data_str_m1_o10_o16_pcu_sym.12
_audit_creation_date              2020-01-03
_audit_creation_method            'Materials Studio'
_symmetry_space_group_name_H-M    'P1'
_symmetry_Int_Tables_number       1
_symmetry_cell_setting            triclinic
loop_
_symmetry_equiv_pos_as_xyz
  x,y,z
_cell_length_a                    32.6663
_cell_length_b                    32.7659
_cell_length_c                    30.6868
_cell_angle_alpha                 96.8192
_cell_angle_beta                  74.6583
_cell_angle_gamma                 98.5484
loop_
_atom_site_label
_atom_site_type_symbol
_atom_site_fract_x
_atom_site_fract_y
_atom_site_fract_z
_atom_site_U_iso_or_equiv
_atom_site_adp_type
_atom_site_occupancy
C1     C     0.05295   0.15957   0.26021   0.00000  Uiso   1.00
C2     C     0.18344   0.16504   0.05232   0.00000  Uiso   1.00
C3     C     0.19690   0.09699   0.06376   0.00000  Uiso   1.00
C4     C     0.28088   0.17361   0.23978   0.00000  Uiso   1.00
C5     C     0.13571   0.18826   0.42223   0.00000  Uiso   1.00
C6     C     0.32696   0.17536   0.23479   0.00000  Uiso   1.00
C7     C     0.00771   0.15731   0.26467   0.00000  Uiso   1.00
C8     C     0.17937   0.32238   0.23620   0.00000  Uiso   1.00
C9     C     0.15116   0.01288   0.26495   0.00000  Uiso   1.00
C10    C     0.15631   0.05620   0.26005   0.00000  Uiso   1.00
C11    C     0.17637   0.27796   0.24020   0.00000  Uiso   1.00
C12    C     0.10838   0.22961   0.49351   0.00000  Uiso   1.00
C13    C     0.18491   0.14831   0.12896   0.00000  Uiso   1.00
C14    C     0.14725   0.18359   0.37156   0.00000  Uiso   1.00
C15    C     0.19150   0.08163   0.02080   0.00000  Uiso   1.00
C16    C     0.19206   0.13805   0.07995   0.00000  Uiso   1.00
C17    C     0.11747   0.22397   0.44553   0.00000  Uiso   1.00
C18    C     0.12002   0.20107   0.01729   0.00000  Uiso   1.00
C19    C     0.14521   0.16995   0.49317   0.00000  Uiso   1.00
C20    C     0.14410   0.15832   0.44782   0.00000  Uiso   1.00
C21    C     0.16802   0.14776   0.01396   0.00000  Uiso   1.00
C22    C     0.17507   0.10650   0.49620   0.00000  Uiso   1.00
C23    C     0.16292   0.09030   0.45600   0.00000  Uiso   1.00
C24    C     0.14874   0.11660   0.43096   0.00000  Uiso   1.00
H25    H     0.20445   0.07661   0.08513   0.00000  Uiso   1.00
H26    H     0.13598   0.31650   0.49134   0.00000  Uiso   1.00
H27    H     0.15218   0.07953   0.37639   0.00000  Uiso   1.00
H28    H     0.02784   0.23097   0.13074   0.00000  Uiso   1.00
H29    H     0.32993   0.12741   0.31865   0.00000  Uiso   1.00
H30    H     0.27448   0.30934   0.17875   0.00000  Uiso   1.00
H31    H     0.06209   0.02809   0.36411   0.00000  Uiso   1.00
H32    H     0.13997   0.03838   0.42861   0.00000  Uiso   1.00
H33    H     0.21110   0.02919   0.02540   0.00000  Uiso   1.00
H34    H     0.25526   0.25530   0.07893   0.00000  Uiso   1.00
H35    H     0.08215   0.26413   0.43810   0.00000  Uiso   1.00
H36    H     0.10238   0.17424   0.07354   0.00000  Uiso   1.00
O37    O     0.16667   0.16667   0.25000   0.00000  Uiso   1.00
O38    O     0.15451   0.12637   0.15459   0.00000  Uiso   1.00
O39    O     0.12940   0.20391   0.34968   0.00000  Uiso   1.00
O40    O     0.20824   0.17759   0.14606   0.00000  Uiso   1.00
O41    O     0.17451   0.15880   0.34968   0.00000  Uiso   1.00
O42    O     0.31312   0.13831   0.30098   0.00000  Uiso   1.00
O43    O     0.20080   0.02834   0.15983   0.00000  Uiso   1.00
O44    O     0.24759   0.04654   0.21115   0.00000  Uiso   1.00
O45    O     0.25324   0.31036   0.16119   0.00000  Uiso   1.00
O46    O     0.07608   0.29870   0.29442   0.00000  Uiso   1.00
O47    O     0.12452   0.31263   0.34516   0.00000  Uiso   1.00
O48    O     0.17930   0.08019   0.28214   0.00000  Uiso   1.00
O49    O     0.08303   0.03831   0.33672   0.00000  Uiso   1.00
O50    O     0.16433   0.04875   0.44210   0.00000  Uiso   1.00
O51    O     0.19999   0.04193   0.00378   0.00000  Uiso   1.00
O52    O     0.20287   0.24175   0.02106   0.00000  Uiso   1.00
O53    O     0.16904   0.23736   0.10237   0.00000  Uiso   1.00
O54    O     0.24853   0.22509   0.07225   0.00000  Uiso   1.00
O55    O     0.10839   0.25235   0.42064   0.00000  Uiso   1.00
O56    O     0.10359   0.20220   0.06369   0.00000  Uiso   1.00
O57    O     0.03687   0.26538   0.02749   0.00000  Uiso   1.00
O58    O     0.09085   0.28059   0.07119   0.00000  Uiso   1.00
O59    O     0.14632   0.26085   0.27014   0.00000  Uiso   1.00
O60    O     0.10465   0.31597   0.49692   0.00000  Uiso   1.00
O61    O     0.13373   0.10044   0.39369   0.00000  Uiso   1.00
O62    O     0.05723   0.23613   0.20772   0.00000  Uiso   1.00
O63    O     0.05870   0.17049   0.16042   0.00000  Uiso   1.00
O64    O     0.00477   0.21942   0.15582   0.00000  Uiso   1.00
O65    O     0.07412   0.13291   0.23413   0.00000  Uiso   1.00
O66    O     0.26693   0.19272   0.21361   0.00000  Uiso   1.00
O67    O     0.07071   0.18878   0.28213   0.00000  Uiso   1.00
O68    O     0.25491   0.15226   0.27014   0.00000  Uiso   1.00
O69    O     0.13760   0.06944   0.23413   0.00000  Uiso   1.00
O70    O     0.20345   0.25620   0.21361   0.00000  Uiso   1.00
S71    S     0.22094   0.01141   0.19148   0.00000  Uiso   1.00
S72    S     0.10787   0.33045   0.31121   0.00000  Uiso   1.00
S73    S     0.19987   0.21908   0.06182   0.00000  Uiso   1.00
S74    S     0.08406   0.27315   0.02417   0.00000  Uiso   1.00
S75    S     0.03018   0.20084   0.18888   0.00000  Uiso   1.00
Zn76   Zn    0.19338   0.13994   0.28734   0.00000  Uiso   1.00
Zn77   Zn    0.13379   0.12458   0.21876   0.00000  Uiso   1.00
Zn78   Zn    0.21056   0.19775   0.20657   0.00000  Uiso   1.00
Zn79   Zn    0.12893   0.20439   0.28734   0.00000  Uiso   1.00
C80    C     0.38628   0.15957   0.26021   0.00000  Uiso   1.00
C81    C     0.51677   0.16504   0.05232   0.00000  Uiso   1.00
C82    C     0.53023   0.09699   0.06376   0.00000  Uiso   1.00
C83    C     0.61422   0.17361   0.23978   0.00000  Uiso   1.00
C84    C     0.46904   0.18826   0.42223   0.00000  Uiso   1.00
C85    C     0.66029   0.17536   0.23479   0.00000  Uiso   1.00
C86    C     0.34105   0.15731   0.26467   0.00000  Uiso   1.00
C87    C     0.51270   0.32238   0.23620   0.00000  Uiso   1.00
C88    C     0.48450   0.01288   0.26495   0.00000  Uiso   1.00
C89    C     0.48964   0.05620   0.26005   0.00000  Uiso   1.00
C90    C     0.50970   0.27796   0.24020   0.00000  Uiso   1.00
C91    C     0.44172   0.22961   0.49351   0.00000  Uiso   1.00
C92    C     0.51825   0.14831   0.12896   0.00000  Uiso   1.00
C93    C     0.48059   0.18359   0.37156   0.00000  Uiso   1.00
C94    C     0.52483   0.08163   0.02080   0.00000  Uiso   1.00
C95    C     0.52539   0.13805   0.07995   0.00000  Uiso   1.00
C96    C     0.45080   0.22397   0.44553   0.00000  Uiso   1.00
C97    C     0.45336   0.20107   0.01729   0.00000  Uiso   1.00
C98    C     0.47854   0.16995   0.49317   0.00000  Uiso   1.00
C99    C     0.47743   0.15832   0.44782   0.00000  Uiso   1.00
C100   C     0.50135   0.14776   0.01396   0.00000  Uiso   1.00
C101   C     0.50840   0.10650   0.49620   0.00000  Uiso   1.00
C102   C     0.49626   0.09030   0.45600   0.00000  Uiso   1.00
C103   C     0.48208   0.11660   0.43096   0.00000  Uiso   1.00
H104   H     0.53778   0.07661   0.08513   0.00000  Uiso   1.00
H105   H     0.46932   0.31650   0.49134   0.00000  Uiso   1.00
H106   H     0.48551   0.07953   0.37639   0.00000  Uiso   1.00
H107   H     0.36117   0.23097   0.13074   0.00000  Uiso   1.00
H108   H     0.66326   0.12741   0.31865   0.00000  Uiso   1.00
H109   H     0.60781   0.30934   0.17875   0.00000  Uiso   1.00
H110   H     0.39542   0.02809   0.36411   0.00000  Uiso   1.00
H111   H     0.47330   0.03838   0.42861   0.00000  Uiso   1.00
H112   H     0.54443   0.02919   0.02540   0.00000  Uiso   1.00
H113   H     0.58859   0.25530   0.07893   0.00000  Uiso   1.00
H114   H     0.41548   0.26413   0.43810   0.00000  Uiso   1.00
H115   H     0.43571   0.17424   0.07354   0.00000  Uiso   1.00
O116   O     0.50000   0.16667   0.25000   0.00000  Uiso   1.00
O117   O     0.48784   0.12637   0.15459   0.00000  Uiso   1.00
O118   O     0.46274   0.20391   0.34968   0.00000  Uiso   1.00
O119   O     0.54157   0.17759   0.14606   0.00000  Uiso   1.00
O120   O     0.50785   0.15880   0.34968   0.00000  Uiso   1.00
O121   O     0.64645   0.13831   0.30098   0.00000  Uiso   1.00
O122   O     0.53413   0.02834   0.15983   0.00000  Uiso   1.00
O123   O     0.58092   0.04654   0.21115   0.00000  Uiso   1.00
O124   O     0.58658   0.31036   0.16119   0.00000  Uiso   1.00
O125   O     0.40941   0.29870   0.29442   0.00000  Uiso   1.00
O126   O     0.45786   0.31263   0.34516   0.00000  Uiso   1.00
O127   O     0.51264   0.08019   0.28214   0.00000  Uiso   1.00
O128   O     0.41636   0.03831   0.33672   0.00000  Uiso   1.00
O129   O     0.49766   0.04875   0.44210   0.00000  Uiso   1.00
O130   O     0.53333   0.04193   0.00378   0.00000  Uiso   1.00
O131   O     0.53621   0.24175   0.02106   0.00000  Uiso   1.00
O132   O     0.50237   0.23736   0.10237   0.00000  Uiso   1.00
O133   O     0.58186   0.22509   0.07225   0.00000  Uiso   1.00
O134   O     0.44172   0.25235   0.42064   0.00000  Uiso   1.00
O135   O     0.43693   0.20220   0.06369   0.00000  Uiso   1.00
O136   O     0.37020   0.26538   0.02749   0.00000  Uiso   1.00
O137   O     0.42418   0.28059   0.07119   0.00000  Uiso   1.00
O138   O     0.47965   0.26085   0.27014   0.00000  Uiso   1.00
O139   O     0.43798   0.31597   0.49692   0.00000  Uiso   1.00
O140   O     0.46706   0.10044   0.39369   0.00000  Uiso   1.00
O141   O     0.39056   0.23613   0.20772   0.00000  Uiso   1.00
O142   O     0.39203   0.17049   0.16042   0.00000  Uiso   1.00
O143   O     0.33811   0.21942   0.15582   0.00000  Uiso   1.00
O144   O     0.40745   0.13291   0.23413   0.00000  Uiso   1.00
O145   O     0.60026   0.19272   0.21361   0.00000  Uiso   1.00
O146   O     0.40405   0.18878   0.28213   0.00000  Uiso   1.00
O147   O     0.58824   0.15226   0.27014   0.00000  Uiso   1.00
O148   O     0.47093   0.06944   0.23413   0.00000  Uiso   1.00
O149   O     0.53678   0.25620   0.21361   0.00000  Uiso   1.00
S150   S     0.55427   0.01141   0.19148   0.00000  Uiso   1.00
S151   S     0.44120   0.33045   0.31121   0.00000  Uiso   1.00
S152   S     0.53320   0.21908   0.06182   0.00000  Uiso   1.00
S153   S     0.41739   0.27315   0.02417   0.00000  Uiso   1.00
S154   S     0.36351   0.20084   0.18888   0.00000  Uiso   1.00
Zn155  Zn    0.52672   0.13994   0.28734   0.00000  Uiso   1.00
Zn156  Zn    0.46713   0.12458   0.21876   0.00000  Uiso   1.00
Zn157  Zn    0.54389   0.19775   0.20657   0.00000  Uiso   1.00
Zn158  Zn    0.46226   0.20439   0.28734   0.00000  Uiso   1.00
C159   C     0.71961   0.15957   0.26021   0.00000  Uiso   1.00
C160   C     0.85011   0.16504   0.05232   0.00000  Uiso   1.00
C161   C     0.86356   0.09699   0.06376   0.00000  Uiso   1.00
C162   C     0.94755   0.17361   0.23978   0.00000  Uiso   1.00
C163   C     0.80238   0.18826   0.42223   0.00000  Uiso   1.00
C164   C     0.99362   0.17536   0.23479   0.00000  Uiso   1.00
C165   C     0.67438   0.15731   0.26467   0.00000  Uiso   1.00
C166   C     0.84604   0.32238   0.23620   0.00000  Uiso   1.00
C167   C     0.81783   0.01288   0.26495   0.00000  Uiso   1.00
C168   C     0.82297   0.05620   0.26005   0.00000  Uiso   1.00
C169   C     0.84303   0.27796   0.24020   0.00000  Uiso   1.00
C170   C     0.77505   0.22961   0.49351   0.00000  Uiso   1.00
C171   C     0.85158   0.14831   0.12896   0.00000  Uiso   1.00
C172   C     0.81392   0.18359   0.37156   0.00000  Uiso   1.00
C173   C     0.85817   0.08163   0.02080   0.00000  Uiso   1.00
C174   C     0.85873   0.13805   0.07995   0.00000  Uiso   1.00
C175   C     0.78414   0.22397   0.44553   0.00000  Uiso   1.00
C176   C     0.78669   0.20107   0.01729   0.00000  Uiso   1.00
C177   C     0.81187   0.16995   0.49317   0.00000  Uiso   1.00
C178   C     0.81077   0.15832   0.44782   0.00000  Uiso   1.00
C179   C     0.83468   0.14776   0.01396   0.00000  Uiso   1.00
C180   C     0.84174   0.10650   0.49620   0.00000  Uiso   1.00
C181   C     0.82959   0.09030   0.45600   0.00000  Uiso   1.00
C182   C     0.81541   0.11660   0.43096   0.00000  Uiso   1.00
H183   H     0.87111   0.07661   0.08513   0.00000  Uiso   1.00
H184   H     0.80265   0.31650   0.49134   0.00000  Uiso   1.00
H185   H     0.81885   0.07953   0.37639   0.00000  Uiso   1.00
H186   H     0.69450   0.23097   0.13074   0.00000  Uiso   1.00
H187   H     0.99660   0.12741   0.31865   0.00000  Uiso   1.00
H188   H     0.94114   0.30934   0.17875   0.00000  Uiso   1.00
H189   H     0.72876   0.02809   0.36411   0.00000  Uiso   1.00
H190   H     0.80663   0.03838   0.42861   0.00000  Uiso   1.00
H191   H     0.87776   0.02919   0.02540   0.00000  Uiso   1.00
H192   H     0.92192   0.25530   0.07893   0.00000  Uiso   1.00
H193   H     0.74882   0.26413   0.43810   0.00000  Uiso   1.00
H194   H     0.76904   0.17424   0.07354   0.00000  Uiso   1.00
O195   O     0.83333   0.16667   0.25000   0.00000  Uiso   1.00
O196   O     0.82118   0.12637   0.15459   0.00000  Uiso   1.00
O197   O     0.79607   0.20391   0.34968   0.00000  Uiso   1.00
O198   O     0.87491   0.17759   0.14606   0.00000  Uiso   1.00
O199   O     0.84118   0.15880   0.34968   0.00000  Uiso   1.00
O200   O     0.97978   0.13831   0.30098   0.00000  Uiso   1.00
O201   O     0.86746   0.02834   0.15983   0.00000  Uiso   1.00
O202   O     0.91425   0.04654   0.21115   0.00000  Uiso   1.00
O203   O     0.91991   0.31036   0.16119   0.00000  Uiso   1.00
O204   O     0.74275   0.29870   0.29442   0.00000  Uiso   1.00
O205   O     0.79119   0.31263   0.34516   0.00000  Uiso   1.00
O206   O     0.84597   0.08019   0.28214   0.00000  Uiso   1.00
O207   O     0.74970   0.03831   0.33672   0.00000  Uiso   1.00
O208   O     0.83100   0.04875   0.44210   0.00000  Uiso   1.00
O209   O     0.86666   0.04193   0.00378   0.00000  Uiso   1.00
O210   O     0.86954   0.24175   0.02106   0.00000  Uiso   1.00
O211   O     0.83571   0.23736   0.10237   0.00000  Uiso   1.00
O212   O     0.91520   0.22509   0.07225   0.00000  Uiso   1.00
O213   O     0.77506   0.25235   0.42064   0.00000  Uiso   1.00
O214   O     0.77026   0.20220   0.06369   0.00000  Uiso   1.00
O215   O     0.70354   0.26538   0.02749   0.00000  Uiso   1.00
O216   O     0.75751   0.28059   0.07119   0.00000  Uiso   1.00
O217   O     0.81298   0.26085   0.27014   0.00000  Uiso   1.00
O218   O     0.77132   0.31597   0.49692   0.00000  Uiso   1.00
O219   O     0.80040   0.10044   0.39369   0.00000  Uiso   1.00
O220   O     0.72390   0.23613   0.20772   0.00000  Uiso   1.00
O221   O     0.72537   0.17049   0.16042   0.00000  Uiso   1.00
O222   O     0.67144   0.21942   0.15582   0.00000  Uiso   1.00
O223   O     0.74078   0.13291   0.23413   0.00000  Uiso   1.00
O224   O     0.93360   0.19272   0.21361   0.00000  Uiso   1.00
O225   O     0.73738   0.18878   0.28213   0.00000  Uiso   1.00
O226   O     0.92158   0.15226   0.27014   0.00000  Uiso   1.00
O227   O     0.80426   0.06944   0.23413   0.00000  Uiso   1.00
O228   O     0.87012   0.25620   0.21361   0.00000  Uiso   1.00
S229   S     0.88761   0.01141   0.19148   0.00000  Uiso   1.00
S230   S     0.77454   0.33045   0.31121   0.00000  Uiso   1.00
S231   S     0.86653   0.21908   0.06182   0.00000  Uiso   1.00
S232   S     0.75073   0.27315   0.02417   0.00000  Uiso   1.00
S233   S     0.69684   0.20084   0.18888   0.00000  Uiso   1.00
Zn234  Zn    0.86005   0.13994   0.28734   0.00000  Uiso   1.00
Zn235  Zn    0.80046   0.12458   0.21876   0.00000  Uiso   1.00
Zn236  Zn    0.87723   0.19775   0.20657   0.00000  Uiso   1.00
Zn237  Zn    0.79560   0.20439   0.28734   0.00000  Uiso   1.00
C238   C     0.05295   0.49291   0.26021   0.00000  Uiso   1.00
C239   C     0.18344   0.49837   0.05232   0.00000  Uiso   1.00
C240   C     0.19690   0.43032   0.06376   0.00000  Uiso   1.00
C241   C     0.28088   0.50695   0.23978   0.00000  Uiso   1.00
C242   C     0.13571   0.52160   0.42223   0.00000  Uiso   1.00
C243   C     0.32696   0.50869   0.23479   0.00000  Uiso   1.00
C244   C     0.00771   0.49064   0.26467   0.00000  Uiso   1.00
C245   C     0.17937   0.65571   0.23620   0.00000  Uiso   1.00
C246   C     0.15116   0.34621   0.26495   0.00000  Uiso   1.00
C247   C     0.15631   0.38953   0.26005   0.00000  Uiso   1.00
C248   C     0.17637   0.61129   0.24020   0.00000  Uiso   1.00
C249   C     0.10838   0.56295   0.49351   0.00000  Uiso   1.00
C250   C     0.18491   0.48165   0.12896   0.00000  Uiso   1.00
C251   C     0.14725   0.51692   0.37156   0.00000  Uiso   1.00
C252   C     0.19150   0.41497   0.02080   0.00000  Uiso   1.00
C253   C     0.19206   0.47138   0.07995   0.00000  Uiso   1.00
C254   C     0.11747   0.55730   0.44553   0.00000  Uiso   1.00
C255   C     0.12002   0.53440   0.01729   0.00000  Uiso   1.00
C256   C     0.14521   0.50329   0.49317   0.00000  Uiso   1.00
C257   C     0.14410   0.49165   0.44782   0.00000  Uiso   1.00
C258   C     0.16802   0.48109   0.01396   0.00000  Uiso   1.00
C259   C     0.17507   0.43983   0.49620   0.00000  Uiso   1.00
C260   C     0.16292   0.42364   0.45600   0.00000  Uiso   1.00
C261   C     0.14874   0.44993   0.43096   0.00000  Uiso   1.00
H262   H     0.20445   0.40995   0.08513   0.00000  Uiso   1.00
H263   H     0.13598   0.64983   0.49134   0.00000  Uiso   1.00
H264   H     0.15218   0.41286   0.37639   0.00000  Uiso   1.00
H265   H     0.02784   0.56430   0.13074   0.00000  Uiso   1.00
H266   H     0.32993   0.46074   0.31865   0.00000  Uiso   1.00
H267   H     0.27448   0.64267   0.17875   0.00000  Uiso   1.00
H268   H     0.06209   0.36142   0.36411   0.00000  Uiso   1.00
H269   H     0.13997   0.37171   0.42861   0.00000  Uiso   1.00
H270   H     0.21110   0.36252   0.02540   0.00000  Uiso   1.00
H271   H     0.25526   0.58863   0.07893   0.00000  Uiso   1.00
H272   H     0.08215   0.59747   0.43810   0.00000  Uiso   1.00
H273   H     0.10238   0.50757   0.07354   0.00000  Uiso   1.00
O274   O     0.16667   0.50000   0.25000   0.00000  Uiso   1.00
O275   O     0.15451   0.45970   0.15459   0.00000  Uiso   1.00
O276   O     0.12940   0.53724   0.34968   0.00000  Uiso   1.00
O277   O     0.20824   0.51092   0.14606   0.00000  Uiso   1.00
O278   O     0.17451   0.49213   0.34968   0.00000  Uiso   1.00
O279   O     0.31312   0.47164   0.30098   0.00000  Uiso   1.00
O280   O     0.20080   0.36168   0.15983   0.00000  Uiso   1.00
O281   O     0.24759   0.37987   0.21115   0.00000  Uiso   1.00
O282   O     0.25324   0.64369   0.16119   0.00000  Uiso   1.00
O283   O     0.07608   0.63203   0.29442   0.00000  Uiso   1.00
O284   O     0.12452   0.64597   0.34516   0.00000  Uiso   1.00
O285   O     0.17930   0.41352   0.28214   0.00000  Uiso   1.00
O286   O     0.08303   0.37164   0.33672   0.00000  Uiso   1.00
O287   O     0.16433   0.38209   0.44210   0.00000  Uiso   1.00
O288   O     0.19999   0.37526   0.00378   0.00000  Uiso   1.00
O289   O     0.20287   0.57508   0.02106   0.00000  Uiso   1.00
O290   O     0.16904   0.57069   0.10237   0.00000  Uiso   1.00
O291   O     0.24853   0.55842   0.07225   0.00000  Uiso   1.00
O292   O     0.10839   0.58569   0.42064   0.00000  Uiso   1.00
O293   O     0.10359   0.53553   0.06369   0.00000  Uiso   1.00
O294   O     0.03687   0.59871   0.02749   0.00000  Uiso   1.00
O295   O     0.09085   0.61392   0.07119   0.00000  Uiso   1.00
O296   O     0.14632   0.59418   0.27014   0.00000  Uiso   1.00
O297   O     0.10465   0.64930   0.49692   0.00000  Uiso   1.00
O298   O     0.13373   0.43378   0.39369   0.00000  Uiso   1.00
O299   O     0.05723   0.56946   0.20772   0.00000  Uiso   1.00
O300   O     0.05870   0.50383   0.16042   0.00000  Uiso   1.00
O301   O     0.00477   0.55275   0.15582   0.00000  Uiso   1.00
O302   O     0.07412   0.46625   0.23413   0.00000  Uiso   1.00
O303   O     0.26693   0.52605   0.21361   0.00000  Uiso   1.00
O304   O     0.07071   0.52211   0.28213   0.00000  Uiso   1.00
O305   O     0.25491   0.48559   0.27014   0.00000  Uiso   1.00
O306   O     0.13760   0.40277   0.23413   0.00000  Uiso   1.00
O307   O     0.20345   0.58953   0.21361   0.00000  Uiso   1.00
S308   S     0.22094   0.34475   0.19148   0.00000  Uiso   1.00
S309   S     0.10787   0.66378   0.31121   0.00000  Uiso   1.00
S310   S     0.19987   0.55242   0.06182   0.00000  Uiso   1.00
S311   S     0.08406   0.60648   0.02417   0.00000  Uiso   1.00
S312   S     0.03018   0.53418   0.18888   0.00000  Uiso   1.00
Zn313  Zn    0.19338   0.47327   0.28734   0.00000  Uiso   1.00
Zn314  Zn    0.13379   0.45791   0.21876   0.00000  Uiso   1.00
Zn315  Zn    0.21056   0.53109   0.20657   0.00000  Uiso   1.00
Zn316  Zn    0.12893   0.53773   0.28734   0.00000  Uiso   1.00
C317   C     0.38628   0.49291   0.26021   0.00000  Uiso   1.00
C318   C     0.51677   0.49837   0.05232   0.00000  Uiso   1.00
C319   C     0.53023   0.43032   0.06376   0.00000  Uiso   1.00
C320   C     0.61422   0.50695   0.23978   0.00000  Uiso   1.00
C321   C     0.46904   0.52160   0.42223   0.00000  Uiso   1.00
C322   C     0.66029   0.50869   0.23479   0.00000  Uiso   1.00
C323   C     0.34105   0.49064   0.26467   0.00000  Uiso   1.00
C324   C     0.51270   0.65571   0.23620   0.00000  Uiso   1.00
C325   C     0.48450   0.34621   0.26495   0.00000  Uiso   1.00
C326   C     0.48964   0.38953   0.26005   0.00000  Uiso   1.00
C327   C     0.50970   0.61129   0.24020   0.00000  Uiso   1.00
C328   C     0.44172   0.56295   0.49351   0.00000  Uiso   1.00
C329   C     0.51825   0.48165   0.12896   0.00000  Uiso   1.00
C330   C     0.48059   0.51692   0.37156   0.00000  Uiso   1.00
C331   C     0.52483   0.41497   0.02080   0.00000  Uiso   1.00
C332   C     0.52539   0.47138   0.07995   0.00000  Uiso   1.00
C333   C     0.45080   0.55730   0.44553   0.00000  Uiso   1.00
C334   C     0.45336   0.53440   0.01729   0.00000  Uiso   1.00
C335   C     0.47854   0.50329   0.49317   0.00000  Uiso   1.00
C336   C     0.47743   0.49165   0.44782   0.00000  Uiso   1.00
C337   C     0.50135   0.48109   0.01396   0.00000  Uiso   1.00
C338   C     0.50840   0.43983   0.49620   0.00000  Uiso   1.00
C339   C     0.49626   0.42364   0.45600   0.00000  Uiso   1.00
C340   C     0.48208   0.44993   0.43096   0.00000  Uiso   1.00
H341   H     0.53778   0.40995   0.08513   0.00000  Uiso   1.00
H342   H     0.46932   0.64983   0.49134   0.00000  Uiso   1.00
H343   H     0.48551   0.41286   0.37639   0.00000  Uiso   1.00
H344   H     0.36117   0.56430   0.13074   0.00000  Uiso   1.00
H345   H     0.66326   0.46074   0.31865   0.00000  Uiso   1.00
H346   H     0.60781   0.64267   0.17875   0.00000  Uiso   1.00
H347   H     0.39542   0.36142   0.36411   0.00000  Uiso   1.00
H348   H     0.47330   0.37171   0.42861   0.00000  Uiso   1.00
H349   H     0.54443   0.36252   0.02540   0.00000  Uiso   1.00
H350   H     0.58859   0.58863   0.07893   0.00000  Uiso   1.00
H351   H     0.41548   0.59747   0.43810   0.00000  Uiso   1.00
H352   H     0.43571   0.50757   0.07354   0.00000  Uiso   1.00
O353   O     0.50000   0.50000   0.25000   0.00000  Uiso   1.00
O354   O     0.48784   0.45970   0.15459   0.00000  Uiso   1.00
O355   O     0.46274   0.53724   0.34968   0.00000  Uiso   1.00
O356   O     0.54157   0.51092   0.14606   0.00000  Uiso   1.00
O357   O     0.50785   0.49213   0.34968   0.00000  Uiso   1.00
O358   O     0.64645   0.47164   0.30098   0.00000  Uiso   1.00
O359   O     0.53413   0.36168   0.15983   0.00000  Uiso   1.00
O360   O     0.58092   0.37987   0.21115   0.00000  Uiso   1.00
O361   O     0.58658   0.64369   0.16119   0.00000  Uiso   1.00
O362   O     0.40941   0.63203   0.29442   0.00000  Uiso   1.00
O363   O     0.45786   0.64597   0.34516   0.00000  Uiso   1.00
O364   O     0.51264   0.41352   0.28214   0.00000  Uiso   1.00
O365   O     0.41636   0.37164   0.33672   0.00000  Uiso   1.00
O366   O     0.49766   0.38209   0.44210   0.00000  Uiso   1.00
O367   O     0.53333   0.37526   0.00378   0.00000  Uiso   1.00
O368   O     0.53621   0.57508   0.02106   0.00000  Uiso   1.00
O369   O     0.50237   0.57069   0.10237   0.00000  Uiso   1.00
O370   O     0.58186   0.55842   0.07225   0.00000  Uiso   1.00
O371   O     0.44172   0.58569   0.42064   0.00000  Uiso   1.00
O372   O     0.43693   0.53553   0.06369   0.00000  Uiso   1.00
O373   O     0.37020   0.59871   0.02749   0.00000  Uiso   1.00
O374   O     0.42418   0.61392   0.07119   0.00000  Uiso   1.00
O375   O     0.47965   0.59418   0.27014   0.00000  Uiso   1.00
O376   O     0.43798   0.64930   0.49692   0.00000  Uiso   1.00
O377   O     0.46706   0.43378   0.39369   0.00000  Uiso   1.00
O378   O     0.39056   0.56946   0.20772   0.00000  Uiso   1.00
O379   O     0.39203   0.50383   0.16042   0.00000  Uiso   1.00
O380   O     0.33811   0.55275   0.15582   0.00000  Uiso   1.00
O381   O     0.40745   0.46625   0.23413   0.00000  Uiso   1.00
O382   O     0.60026   0.52605   0.21361   0.00000  Uiso   1.00
O383   O     0.40405   0.52211   0.28213   0.00000  Uiso   1.00
O384   O     0.58824   0.48559   0.27014   0.00000  Uiso   1.00
O385   O     0.47093   0.40277   0.23413   0.00000  Uiso   1.00
O386   O     0.53678   0.58953   0.21361   0.00000  Uiso   1.00
S387   S     0.55427   0.34475   0.19148   0.00000  Uiso   1.00
S388   S     0.44120   0.66378   0.31121   0.00000  Uiso   1.00
S389   S     0.53320   0.55242   0.06182   0.00000  Uiso   1.00
S390   S     0.41739   0.60648   0.02417   0.00000  Uiso   1.00
S391   S     0.36351   0.53418   0.18888   0.00000  Uiso   1.00
Zn392  Zn    0.52672   0.47327   0.28734   0.00000  Uiso   1.00
Zn393  Zn    0.46713   0.45791   0.21876   0.00000  Uiso   1.00
Zn394  Zn    0.54389   0.53109   0.20657   0.00000  Uiso   1.00
Zn395  Zn    0.46226   0.53773   0.28734   0.00000  Uiso   1.00
C396   C     0.71961   0.49291   0.26021   0.00000  Uiso   1.00
C397   C     0.85011   0.49837   0.05232   0.00000  Uiso   1.00
C398   C     0.86356   0.43032   0.06376   0.00000  Uiso   1.00
C399   C     0.94755   0.50695   0.23978   0.00000  Uiso   1.00
C400   C     0.80238   0.52160   0.42223   0.00000  Uiso   1.00
C401   C     0.99362   0.50869   0.23479   0.00000  Uiso   1.00
C402   C     0.67438   0.49064   0.26467   0.00000  Uiso   1.00
C403   C     0.84604   0.65571   0.23620   0.00000  Uiso   1.00
C404   C     0.81783   0.34621   0.26495   0.00000  Uiso   1.00
C405   C     0.82297   0.38953   0.26005   0.00000  Uiso   1.00
C406   C     0.84303   0.61129   0.24020   0.00000  Uiso   1.00
C407   C     0.77505   0.56295   0.49351   0.00000  Uiso   1.00
C408   C     0.85158   0.48165   0.12896   0.00000  Uiso   1.00
C409   C     0.81392   0.51692   0.37156   0.00000  Uiso   1.00
C410   C     0.85817   0.41497   0.02080   0.00000  Uiso   1.00
C411   C     0.85873   0.47138   0.07995   0.00000  Uiso   1.00
C412   C     0.78414   0.55730   0.44553   0.00000  Uiso   1.00
C413   C     0.78669   0.53440   0.01729   0.00000  Uiso   1.00
C414   C     0.81187   0.50329   0.49317   0.00000  Uiso   1.00
C415   C     0.81077   0.49165   0.44782   0.00000  Uiso   1.00
C416   C     0.83468   0.48109   0.01396   0.00000  Uiso   1.00
C417   C     0.84174   0.43983   0.49620   0.00000  Uiso   1.00
C418   C     0.82959   0.42364   0.45600   0.00000  Uiso   1.00
C419   C     0.81541   0.44993   0.43096   0.00000  Uiso   1.00
H420   H     0.87111   0.40995   0.08513   0.00000  Uiso   1.00
H421   H     0.80265   0.64983   0.49134   0.00000  Uiso   1.00
H422   H     0.81885   0.41286   0.37639   0.00000  Uiso   1.00
H423   H     0.69450   0.56430   0.13074   0.00000  Uiso   1.00
H424   H     0.99660   0.46074   0.31865   0.00000  Uiso   1.00
H425   H     0.94114   0.64267   0.17875   0.00000  Uiso   1.00
H426   H     0.72876   0.36142   0.36411   0.00000  Uiso   1.00
H427   H     0.80663   0.37171   0.42861   0.00000  Uiso   1.00
H428   H     0.87776   0.36252   0.02540   0.00000  Uiso   1.00
H429   H     0.92192   0.58863   0.07893   0.00000  Uiso   1.00
H430   H     0.74882   0.59747   0.43810   0.00000  Uiso   1.00
H431   H     0.76904   0.50757   0.07354   0.00000  Uiso   1.00
O432   O     0.83333   0.50000   0.25000   0.00000  Uiso   1.00
O433   O     0.82118   0.45970   0.15459   0.00000  Uiso   1.00
O434   O     0.79607   0.53724   0.34968   0.00000  Uiso   1.00
O435   O     0.87491   0.51092   0.14606   0.00000  Uiso   1.00
O436   O     0.84118   0.49213   0.34968   0.00000  Uiso   1.00
O437   O     0.97978   0.47164   0.30098   0.00000  Uiso   1.00
O438   O     0.86746   0.36168   0.15983   0.00000  Uiso   1.00
O439   O     0.91425   0.37987   0.21115   0.00000  Uiso   1.00
O440   O     0.91991   0.64369   0.16119   0.00000  Uiso   1.00
O441   O     0.74275   0.63203   0.29442   0.00000  Uiso   1.00
O442   O     0.79119   0.64597   0.34516   0.00000  Uiso   1.00
O443   O     0.84597   0.41352   0.28214   0.00000  Uiso   1.00
O444   O     0.74970   0.37164   0.33672   0.00000  Uiso   1.00
O445   O     0.83100   0.38209   0.44210   0.00000  Uiso   1.00
O446   O     0.86666   0.37526   0.00378   0.00000  Uiso   1.00
O447   O     0.86954   0.57508   0.02106   0.00000  Uiso   1.00
O448   O     0.83571   0.57069   0.10237   0.00000  Uiso   1.00
O449   O     0.91520   0.55842   0.07225   0.00000  Uiso   1.00
O450   O     0.77506   0.58569   0.42064   0.00000  Uiso   1.00
O451   O     0.77026   0.53553   0.06369   0.00000  Uiso   1.00
O452   O     0.70354   0.59871   0.02749   0.00000  Uiso   1.00
O453   O     0.75751   0.61392   0.07119   0.00000  Uiso   1.00
O454   O     0.81298   0.59418   0.27014   0.00000  Uiso   1.00
O455   O     0.77132   0.64930   0.49692   0.00000  Uiso   1.00
O456   O     0.80040   0.43378   0.39369   0.00000  Uiso   1.00
O457   O     0.72390   0.56946   0.20772   0.00000  Uiso   1.00
O458   O     0.72537   0.50383   0.16042   0.00000  Uiso   1.00
O459   O     0.67144   0.55275   0.15582   0.00000  Uiso   1.00
O460   O     0.74078   0.46625   0.23413   0.00000  Uiso   1.00
O461   O     0.93360   0.52605   0.21361   0.00000  Uiso   1.00
O462   O     0.73738   0.52211   0.28213   0.00000  Uiso   1.00
O463   O     0.92158   0.48559   0.27014   0.00000  Uiso   1.00
O464   O     0.80426   0.40277   0.23413   0.00000  Uiso   1.00
O465   O     0.87012   0.58953   0.21361   0.00000  Uiso   1.00
S466   S     0.88761   0.34475   0.19148   0.00000  Uiso   1.00
S467   S     0.77454   0.66378   0.31121   0.00000  Uiso   1.00
S468   S     0.86653   0.55242   0.06182   0.00000  Uiso   1.00
S469   S     0.75073   0.60648   0.02417   0.00000  Uiso   1.00
S470   S     0.69684   0.53418   0.18888   0.00000  Uiso   1.00
Zn471  Zn    0.86005   0.47327   0.28734   0.00000  Uiso   1.00
Zn472  Zn    0.80046   0.45791   0.21876   0.00000  Uiso   1.00
Zn473  Zn    0.87723   0.53109   0.20657   0.00000  Uiso   1.00
Zn474  Zn    0.79560   0.53773   0.28734   0.00000  Uiso   1.00
C475   C     0.05295   0.82624   0.26021   0.00000  Uiso   1.00
C476   C     0.18344   0.83171   0.05232   0.00000  Uiso   1.00
C477   C     0.19690   0.76365   0.06376   0.00000  Uiso   1.00
C478   C     0.28088   0.84028   0.23978   0.00000  Uiso   1.00
C479   C     0.13571   0.85493   0.42223   0.00000  Uiso   1.00
C480   C     0.32696   0.84202   0.23479   0.00000  Uiso   1.00
C481   C     0.00771   0.82397   0.26467   0.00000  Uiso   1.00
C482   C     0.17937   0.98905   0.23620   0.00000  Uiso   1.00
C483   C     0.15116   0.67954   0.26495   0.00000  Uiso   1.00
C484   C     0.15631   0.72286   0.26005   0.00000  Uiso   1.00
C485   C     0.17637   0.94462   0.24020   0.00000  Uiso   1.00
C486   C     0.10838   0.89628   0.49351   0.00000  Uiso   1.00
C487   C     0.18491   0.81498   0.12896   0.00000  Uiso   1.00
C488   C     0.14725   0.85026   0.37156   0.00000  Uiso   1.00
C489   C     0.19150   0.74830   0.02080   0.00000  Uiso   1.00
C490   C     0.19206   0.80472   0.07995   0.00000  Uiso   1.00
C491   C     0.11747   0.89063   0.44553   0.00000  Uiso   1.00
C492   C     0.12002   0.86773   0.01729   0.00000  Uiso   1.00
C493   C     0.14521   0.83662   0.49317   0.00000  Uiso   1.00
C494   C     0.14410   0.82499   0.44782   0.00000  Uiso   1.00
C495   C     0.16802   0.81443   0.01396   0.00000  Uiso   1.00
C496   C     0.17507   0.77316   0.49620   0.00000  Uiso   1.00
C497   C     0.16292   0.75697   0.45600   0.00000  Uiso   1.00
C498   C     0.14874   0.78326   0.43096   0.00000  Uiso   1.00
H499   H     0.20445   0.74328   0.08513   0.00000  Uiso   1.00
H500   H     0.13598   0.98317   0.49134   0.00000  Uiso   1.00
H501   H     0.15218   0.74619   0.37639   0.00000  Uiso   1.00
H502   H     0.02784   0.89763   0.13074   0.00000  Uiso   1.00
H503   H     0.32993   0.79407   0.31865   0.00000  Uiso   1.00
H504   H     0.27448   0.97601   0.17875   0.00000  Uiso   1.00
H505   H     0.06209   0.69475   0.36411   0.00000  Uiso   1.00
H506   H     0.13997   0.70505   0.42861   0.00000  Uiso   1.00
H507   H     0.21110   0.69586   0.02540   0.00000  Uiso   1.00
H508   H     0.25526   0.92197   0.07893   0.00000  Uiso   1.00
H509   H     0.08215   0.93080   0.43810   0.00000  Uiso   1.00
H510   H     0.10238   0.84090   0.07354   0.00000  Uiso   1.00
O511   O     0.16667   0.83333   0.25000   0.00000  Uiso   1.00
O512   O     0.15451   0.79304   0.15459   0.00000  Uiso   1.00
O513   O     0.12940   0.87058   0.34968   0.00000  Uiso   1.00
O514   O     0.20824   0.84425   0.14606   0.00000  Uiso   1.00
O515   O     0.17451   0.82546   0.34968   0.00000  Uiso   1.00
O516   O     0.31312   0.80497   0.30098   0.00000  Uiso   1.00
O517   O     0.20080   0.69501   0.15983   0.00000  Uiso   1.00
O518   O     0.24759   0.71320   0.21115   0.00000  Uiso   1.00
O519   O     0.25324   0.97703   0.16119   0.00000  Uiso   1.00
O520   O     0.07608   0.96536   0.29442   0.00000  Uiso   1.00
O521   O     0.12452   0.97930   0.34516   0.00000  Uiso   1.00
O522   O     0.17930   0.74686   0.28214   0.00000  Uiso   1.00
O523   O     0.08303   0.70498   0.33672   0.00000  Uiso   1.00
O524   O     0.16433   0.71542   0.44210   0.00000  Uiso   1.00
O525   O     0.19999   0.70860   0.00378   0.00000  Uiso   1.00
O526   O     0.20287   0.90842   0.02106   0.00000  Uiso   1.00
O527   O     0.16904   0.90402   0.10237   0.00000  Uiso   1.00
O528   O     0.24853   0.89176   0.07225   0.00000  Uiso   1.00
O529   O     0.10839   0.91902   0.42064   0.00000  Uiso   1.00
O530   O     0.10359   0.86886   0.06369   0.00000  Uiso   1.00
O531   O     0.03687   0.93204   0.02749   0.00000  Uiso   1.00
O532   O     0.09085   0.94725   0.07119   0.00000  Uiso   1.00
O533   O     0.14632   0.92751   0.27014   0.00000  Uiso   1.00
O534   O     0.10465   0.98264   0.49692   0.00000  Uiso   1.00
O535   O     0.13373   0.76711   0.39369   0.00000  Uiso   1.00
O536   O     0.05723   0.90280   0.20772   0.00000  Uiso   1.00
O537   O     0.05870   0.83716   0.16042   0.00000  Uiso   1.00
O538   O     0.00477   0.88609   0.15582   0.00000  Uiso   1.00
O539   O     0.07412   0.79958   0.23413   0.00000  Uiso   1.00
O540   O     0.26693   0.85939   0.21361   0.00000  Uiso   1.00
O541   O     0.07071   0.85544   0.28213   0.00000  Uiso   1.00
O542   O     0.25491   0.81892   0.27014   0.00000  Uiso   1.00
O543   O     0.13760   0.73610   0.23413   0.00000  Uiso   1.00
O544   O     0.20345   0.92286   0.21361   0.00000  Uiso   1.00
S545   S     0.22094   0.67808   0.19148   0.00000  Uiso   1.00
S546   S     0.10787   0.99712   0.31121   0.00000  Uiso   1.00
S547   S     0.19987   0.88575   0.06182   0.00000  Uiso   1.00
S548   S     0.08406   0.93981   0.02417   0.00000  Uiso   1.00
S549   S     0.03018   0.86751   0.18888   0.00000  Uiso   1.00
Zn550  Zn    0.19338   0.80661   0.28734   0.00000  Uiso   1.00
Zn551  Zn    0.13379   0.79124   0.21876   0.00000  Uiso   1.00
Zn552  Zn    0.21056   0.86442   0.20657   0.00000  Uiso   1.00
Zn553  Zn    0.12893   0.87106   0.28734   0.00000  Uiso   1.00
C554   C     0.38628   0.82624   0.26021   0.00000  Uiso   1.00
C555   C     0.51677   0.83171   0.05232   0.00000  Uiso   1.00
C556   C     0.53023   0.76365   0.06376   0.00000  Uiso   1.00
C557   C     0.61422   0.84028   0.23978   0.00000  Uiso   1.00
C558   C     0.46904   0.85493   0.42223   0.00000  Uiso   1.00
C559   C     0.66029   0.84202   0.23479   0.00000  Uiso   1.00
C560   C     0.34105   0.82397   0.26467   0.00000  Uiso   1.00
C561   C     0.51270   0.98905   0.23620   0.00000  Uiso   1.00
C562   C     0.48450   0.67954   0.26495   0.00000  Uiso   1.00
C563   C     0.48964   0.72286   0.26005   0.00000  Uiso   1.00
C564   C     0.50970   0.94462   0.24020   0.00000  Uiso   1.00
C565   C     0.44172   0.89628   0.49351   0.00000  Uiso   1.00
C566   C     0.51825   0.81498   0.12896   0.00000  Uiso   1.00
C567   C     0.48059   0.85026   0.37156   0.00000  Uiso   1.00
C568   C     0.52483   0.74830   0.02080   0.00000  Uiso   1.00
C569   C     0.52539   0.80472   0.07995   0.00000  Uiso   1.00
C570   C     0.45080   0.89063   0.44553   0.00000  Uiso   1.00
C571   C     0.45336   0.86773   0.01729   0.00000  Uiso   1.00
C572   C     0.47854   0.83662   0.49317   0.00000  Uiso   1.00
C573   C     0.47743   0.82499   0.44782   0.00000  Uiso   1.00
C574   C     0.50135   0.81443   0.01396   0.00000  Uiso   1.00
C575   C     0.50840   0.77316   0.49620   0.00000  Uiso   1.00
C576   C     0.49626   0.75697   0.45600   0.00000  Uiso   1.00
C577   C     0.48208   0.78326   0.43096   0.00000  Uiso   1.00
H578   H     0.53778   0.74328   0.08513   0.00000  Uiso   1.00
H579   H     0.46932   0.98317   0.49134   0.00000  Uiso   1.00
H580   H     0.48551   0.74619   0.37639   0.00000  Uiso   1.00
H581   H     0.36117   0.89763   0.13074   0.00000  Uiso   1.00
H582   H     0.66326   0.79407   0.31865   0.00000  Uiso   1.00
H583   H     0.60781   0.97601   0.17875   0.00000  Uiso   1.00
H584   H     0.39542   0.69475   0.36411   0.00000  Uiso   1.00
H585   H     0.47330   0.70505   0.42861   0.00000  Uiso   1.00
H586   H     0.54443   0.69586   0.02540   0.00000  Uiso   1.00
H587   H     0.58859   0.92197   0.07893   0.00000  Uiso   1.00
H588   H     0.41548   0.93080   0.43810   0.00000  Uiso   1.00
H589   H     0.43571   0.84090   0.07354   0.00000  Uiso   1.00
O590   O     0.50000   0.83333   0.25000   0.00000  Uiso   1.00
O591   O     0.48784   0.79304   0.15459   0.00000  Uiso   1.00
O592   O     0.46274   0.87058   0.34968   0.00000  Uiso   1.00
O593   O     0.54157   0.84425   0.14606   0.00000  Uiso   1.00
O594   O     0.50785   0.82546   0.34968   0.00000  Uiso   1.00
O595   O     0.64645   0.80497   0.30098   0.00000  Uiso   1.00
O596   O     0.53413   0.69501   0.15983   0.00000  Uiso   1.00
O597   O     0.58092   0.71320   0.21115   0.00000  Uiso   1.00
O598   O     0.58658   0.97703   0.16119   0.00000  Uiso   1.00
O599   O     0.40941   0.96536   0.29442   0.00000  Uiso   1.00
O600   O     0.45786   0.97930   0.34516   0.00000  Uiso   1.00
O601   O     0.51264   0.74686   0.28214   0.00000  Uiso   1.00
O602   O     0.41636   0.70498   0.33672   0.00000  Uiso   1.00
O603   O     0.49766   0.71542   0.44210   0.00000  Uiso   1.00
O604   O     0.53333   0.70860   0.00378   0.00000  Uiso   1.00
O605   O     0.53621   0.90842   0.02106   0.00000  Uiso   1.00
O606   O     0.50237   0.90402   0.10237   0.00000  Uiso   1.00
O607   O     0.58186   0.89176   0.07225   0.00000  Uiso   1.00
O608   O     0.44172   0.91902   0.42064   0.00000  Uiso   1.00
O609   O     0.43693   0.86886   0.06369   0.00000  Uiso   1.00
O610   O     0.37020   0.93204   0.02749   0.00000  Uiso   1.00
O611   O     0.42418   0.94725   0.07119   0.00000  Uiso   1.00
O612   O     0.47965   0.92751   0.27014   0.00000  Uiso   1.00
O613   O     0.43798   0.98264   0.49692   0.00000  Uiso   1.00
O614   O     0.46706   0.76711   0.39369   0.00000  Uiso   1.00
O615   O     0.39056   0.90280   0.20772   0.00000  Uiso   1.00
O616   O     0.39203   0.83716   0.16042   0.00000  Uiso   1.00
O617   O     0.33811   0.88609   0.15582   0.00000  Uiso   1.00
O618   O     0.40745   0.79958   0.23413   0.00000  Uiso   1.00
O619   O     0.60026   0.85939   0.21361   0.00000  Uiso   1.00
O620   O     0.40405   0.85544   0.28213   0.00000  Uiso   1.00
O621   O     0.58824   0.81892   0.27014   0.00000  Uiso   1.00
O622   O     0.47093   0.73610   0.23413   0.00000  Uiso   1.00
O623   O     0.53678   0.92286   0.21361   0.00000  Uiso   1.00
S624   S     0.55427   0.67808   0.19148   0.00000  Uiso   1.00
S625   S     0.44120   0.99712   0.31121   0.00000  Uiso   1.00
S626   S     0.53320   0.88575   0.06182   0.00000  Uiso   1.00
S627   S     0.41739   0.93981   0.02417   0.00000  Uiso   1.00
S628   S     0.36351   0.86751   0.18888   0.00000  Uiso   1.00
Zn629  Zn    0.52672   0.80661   0.28734   0.00000  Uiso   1.00
Zn630  Zn    0.46713   0.79124   0.21876   0.00000  Uiso   1.00
Zn631  Zn    0.54389   0.86442   0.20657   0.00000  Uiso   1.00
Zn632  Zn    0.46226   0.87106   0.28734   0.00000  Uiso   1.00
C633   C     0.71961   0.82624   0.26021   0.00000  Uiso   1.00
C634   C     0.85011   0.83171   0.05232   0.00000  Uiso   1.00
C635   C     0.86356   0.76365   0.06376   0.00000  Uiso   1.00
C636   C     0.94755   0.84028   0.23978   0.00000  Uiso   1.00
C637   C     0.80238   0.85493   0.42223   0.00000  Uiso   1.00
C638   C     0.99362   0.84202   0.23479   0.00000  Uiso   1.00
C639   C     0.67438   0.82397   0.26467   0.00000  Uiso   1.00
C640   C     0.84604   0.98905   0.23620   0.00000  Uiso   1.00
C641   C     0.81783   0.67954   0.26495   0.00000  Uiso   1.00
C642   C     0.82297   0.72286   0.26005   0.00000  Uiso   1.00
C643   C     0.84303   0.94462   0.24020   0.00000  Uiso   1.00
C644   C     0.77505   0.89628   0.49351   0.00000  Uiso   1.00
C645   C     0.85158   0.81498   0.12896   0.00000  Uiso   1.00
C646   C     0.81392   0.85026   0.37156   0.00000  Uiso   1.00
C647   C     0.85817   0.74830   0.02080   0.00000  Uiso   1.00
C648   C     0.85873   0.80472   0.07995   0.00000  Uiso   1.00
C649   C     0.78414   0.89063   0.44553   0.00000  Uiso   1.00
C650   C     0.78669   0.86773   0.01729   0.00000  Uiso   1.00
C651   C     0.81187   0.83662   0.49317   0.00000  Uiso   1.00
C652   C     0.81077   0.82499   0.44782   0.00000  Uiso   1.00
C653   C     0.83468   0.81443   0.01396   0.00000  Uiso   1.00
C654   C     0.84174   0.77316   0.49620   0.00000  Uiso   1.00
C655   C     0.82959   0.75697   0.45600   0.00000  Uiso   1.00
C656   C     0.81541   0.78326   0.43096   0.00000  Uiso   1.00
H657   H     0.87111   0.74328   0.08513   0.00000  Uiso   1.00
H658   H     0.80265   0.98317   0.49134   0.00000  Uiso   1.00
H659   H     0.81885   0.74619   0.37639   0.00000  Uiso   1.00
H660   H     0.69450   0.89763   0.13074   0.00000  Uiso   1.00
H661   H     0.99660   0.79407   0.31865   0.00000  Uiso   1.00
H662   H     0.94114   0.97601   0.17875   0.00000  Uiso   1.00
H663   H     0.72876   0.69475   0.36411   0.00000  Uiso   1.00
H664   H     0.80663   0.70505   0.42861   0.00000  Uiso   1.00
H665   H     0.87776   0.69586   0.02540   0.00000  Uiso   1.00
H666   H     0.92192   0.92197   0.07893   0.00000  Uiso   1.00
H667   H     0.74882   0.93080   0.43810   0.00000  Uiso   1.00
H668   H     0.76904   0.84090   0.07354   0.00000  Uiso   1.00
O669   O     0.83333   0.83333   0.25000   0.00000  Uiso   1.00
O670   O     0.82118   0.79304   0.15459   0.00000  Uiso   1.00
O671   O     0.79607   0.87058   0.34968   0.00000  Uiso   1.00
O672   O     0.87491   0.84425   0.14606   0.00000  Uiso   1.00
O673   O     0.84118   0.82546   0.34968   0.00000  Uiso   1.00
O674   O     0.97978   0.80497   0.30098   0.00000  Uiso   1.00
O675   O     0.86746   0.69501   0.15983   0.00000  Uiso   1.00
O676   O     0.91425   0.71320   0.21115   0.00000  Uiso   1.00
O677   O     0.91991   0.97703   0.16119   0.00000  Uiso   1.00
O678   O     0.74275   0.96536   0.29442   0.00000  Uiso   1.00
O679   O     0.79119   0.97930   0.34516   0.00000  Uiso   1.00
O680   O     0.84597   0.74686   0.28214   0.00000  Uiso   1.00
O681   O     0.74970   0.70498   0.33672   0.00000  Uiso   1.00
O682   O     0.83100   0.71542   0.44210   0.00000  Uiso   1.00
O683   O     0.86666   0.70860   0.00378   0.00000  Uiso   1.00
O684   O     0.86954   0.90842   0.02106   0.00000  Uiso   1.00
O685   O     0.83571   0.90402   0.10237   0.00000  Uiso   1.00
O686   O     0.91520   0.89176   0.07225   0.00000  Uiso   1.00
O687   O     0.77506   0.91902   0.42064   0.00000  Uiso   1.00
O688   O     0.77026   0.86886   0.06369   0.00000  Uiso   1.00
O689   O     0.70354   0.93204   0.02749   0.00000  Uiso   1.00
O690   O     0.75751   0.94725   0.07119   0.00000  Uiso   1.00
O691   O     0.81298   0.92751   0.27014   0.00000  Uiso   1.00
O692   O     0.77132   0.98264   0.49692   0.00000  Uiso   1.00
O693   O     0.80040   0.76711   0.39369   0.00000  Uiso   1.00
O694   O     0.72390   0.90280   0.20772   0.00000  Uiso   1.00
O695   O     0.72537   0.83716   0.16042   0.00000  Uiso   1.00
O696   O     0.67144   0.88609   0.15582   0.00000  Uiso   1.00
O697   O     0.74078   0.79958   0.23413   0.00000  Uiso   1.00
O698   O     0.93360   0.85939   0.21361   0.00000  Uiso   1.00
O699   O     0.73738   0.85544   0.28213   0.00000  Uiso   1.00
O700   O     0.92158   0.81892   0.27014   0.00000  Uiso   1.00
O701   O     0.80426   0.73610   0.23413   0.00000  Uiso   1.00
O702   O     0.87012   0.92286   0.21361   0.00000  Uiso   1.00
S703   S     0.88761   0.67808   0.19148   0.00000  Uiso   1.00
S704   S     0.77454   0.99712   0.31121   0.00000  Uiso   1.00
S705   S     0.86653   0.88575   0.06182   0.00000  Uiso   1.00
S706   S     0.75073   0.93981   0.02417   0.00000  Uiso   1.00
S707   S     0.69684   0.86751   0.18888   0.00000  Uiso   1.00
Zn708  Zn    0.86005   0.80661   0.28734   0.00000  Uiso   1.00
Zn709  Zn    0.80046   0.79124   0.21876   0.00000  Uiso   1.00
Zn710  Zn    0.87723   0.86442   0.20657   0.00000  Uiso   1.00
Zn711  Zn    0.79560   0.87106   0.28734   0.00000  Uiso   1.00
C712   C     0.05295   0.15957   0.76021   0.00000  Uiso   1.00
C713   C     0.18344   0.16504   0.55232   0.00000  Uiso   1.00
C714   C     0.19690   0.09699   0.56376   0.00000  Uiso   1.00
C715   C     0.28088   0.17361   0.73978   0.00000  Uiso   1.00
C716   C     0.13571   0.18826   0.92223   0.00000  Uiso   1.00
C717   C     0.32696   0.17536   0.73479   0.00000  Uiso   1.00
C718   C     0.00771   0.15731   0.76467   0.00000  Uiso   1.00
C719   C     0.17937   0.32238   0.73620   0.00000  Uiso   1.00
C720   C     0.15116   0.01288   0.76495   0.00000  Uiso   1.00
C721   C     0.15631   0.05620   0.76005   0.00000  Uiso   1.00
C722   C     0.17637   0.27796   0.74020   0.00000  Uiso   1.00
C723   C     0.10838   0.22961   0.99351   0.00000  Uiso   1.00
C724   C     0.18491   0.14831   0.62896   0.00000  Uiso   1.00
C725   C     0.14725   0.18359   0.87156   0.00000  Uiso   1.00
C726   C     0.19150   0.08163   0.52080   0.00000  Uiso   1.00
C727   C     0.19206   0.13805   0.57995   0.00000  Uiso   1.00
C728   C     0.11747   0.22397   0.94553   0.00000  Uiso   1.00
C729   C     0.12002   0.20107   0.51729   0.00000  Uiso   1.00
C730   C     0.14521   0.16995   0.99317   0.00000  Uiso   1.00
C731   C     0.14410   0.15832   0.94782   0.00000  Uiso   1.00
C732   C     0.16802   0.14776   0.51396   0.00000  Uiso   1.00
C733   C     0.17507   0.10650   0.99620   0.00000  Uiso   1.00
C734   C     0.16292   0.09030   0.95600   0.00000  Uiso   1.00
C735   C     0.14874   0.11660   0.93096   0.00000  Uiso   1.00
H736   H     0.20445   0.07661   0.58513   0.00000  Uiso   1.00
H737   H     0.13598   0.31650   0.99134   0.00000  Uiso   1.00
H738   H     0.15218   0.07953   0.87639   0.00000  Uiso   1.00
H739   H     0.02784   0.23097   0.63074   0.00000  Uiso   1.00
H740   H     0.32993   0.12741   0.81865   0.00000  Uiso   1.00
H741   H     0.27448   0.30934   0.67875   0.00000  Uiso   1.00
H742   H     0.06209   0.02809   0.86411   0.00000  Uiso   1.00
H743   H     0.13997   0.03838   0.92861   0.00000  Uiso   1.00
H744   H     0.21110   0.02919   0.52540   0.00000  Uiso   1.00
H745   H     0.25526   0.25530   0.57893   0.00000  Uiso   1.00
H746   H     0.08215   0.26413   0.93810   0.00000  Uiso   1.00
H747   H     0.10238   0.17424   0.57354   0.00000  Uiso   1.00
O748   O     0.16667   0.16667   0.75000   0.00000  Uiso   1.00
O749   O     0.15451   0.12637   0.65459   0.00000  Uiso   1.00
O750   O     0.12940   0.20391   0.84968   0.00000  Uiso   1.00
O751   O     0.20824   0.17759   0.64606   0.00000  Uiso   1.00
O752   O     0.17451   0.15880   0.84968   0.00000  Uiso   1.00
O753   O     0.31312   0.13831   0.80098   0.00000  Uiso   1.00
O754   O     0.20080   0.02834   0.65983   0.00000  Uiso   1.00
O755   O     0.24759   0.04654   0.71115   0.00000  Uiso   1.00
O756   O     0.25324   0.31036   0.66119   0.00000  Uiso   1.00
O757   O     0.07608   0.29870   0.79442   0.00000  Uiso   1.00
O758   O     0.12452   0.31263   0.84516   0.00000  Uiso   1.00
O759   O     0.17930   0.08019   0.78214   0.00000  Uiso   1.00
O760   O     0.08303   0.03831   0.83672   0.00000  Uiso   1.00
O761   O     0.16433   0.04875   0.94210   0.00000  Uiso   1.00
O762   O     0.19999   0.04193   0.50378   0.00000  Uiso   1.00
O763   O     0.20287   0.24175   0.52106   0.00000  Uiso   1.00
O764   O     0.16904   0.23736   0.60237   0.00000  Uiso   1.00
O765   O     0.24853   0.22509   0.57225   0.00000  Uiso   1.00
O766   O     0.10839   0.25235   0.92064   0.00000  Uiso   1.00
O767   O     0.10359   0.20220   0.56369   0.00000  Uiso   1.00
O768   O     0.03687   0.26538   0.52749   0.00000  Uiso   1.00
O769   O     0.09085   0.28059   0.57119   0.00000  Uiso   1.00
O770   O     0.14632   0.26085   0.77014   0.00000  Uiso   1.00
O771   O     0.10465   0.31597   0.99692   0.00000  Uiso   1.00
O772   O     0.13373   0.10044   0.89369   0.00000  Uiso   1.00
O773   O     0.05723   0.23613   0.70772   0.00000  Uiso   1.00
O774   O     0.05870   0.17049   0.66042   0.00000  Uiso   1.00
O775   O     0.00477   0.21942   0.65582   0.00000  Uiso   1.00
O776   O     0.07412   0.13291   0.73413   0.00000  Uiso   1.00
O777   O     0.26693   0.19272   0.71361   0.00000  Uiso   1.00
O778   O     0.07071   0.18878   0.78213   0.00000  Uiso   1.00
O779   O     0.25491   0.15226   0.77014   0.00000  Uiso   1.00
O780   O     0.13760   0.06944   0.73413   0.00000  Uiso   1.00
O781   O     0.20345   0.25620   0.71361   0.00000  Uiso   1.00
S782   S     0.22094   0.01141   0.69148   0.00000  Uiso   1.00
S783   S     0.10787   0.33045   0.81121   0.00000  Uiso   1.00
S784   S     0.19987   0.21908   0.56182   0.00000  Uiso   1.00
S785   S     0.08406   0.27315   0.52417   0.00000  Uiso   1.00
S786   S     0.03018   0.20084   0.68888   0.00000  Uiso   1.00
Zn787  Zn    0.19338   0.13994   0.78734   0.00000  Uiso   1.00
Zn788  Zn    0.13379   0.12458   0.71876   0.00000  Uiso   1.00
Zn789  Zn    0.21056   0.19775   0.70657   0.00000  Uiso   1.00
Zn790  Zn    0.12893   0.20439   0.78734   0.00000  Uiso   1.00
C791   C     0.38628   0.15957   0.76021   0.00000  Uiso   1.00
C792   C     0.51677   0.16504   0.55232   0.00000  Uiso   1.00
C793   C     0.53023   0.09699   0.56376   0.00000  Uiso   1.00
C794   C     0.61422   0.17361   0.73978   0.00000  Uiso   1.00
C795   C     0.46904   0.18826   0.92223   0.00000  Uiso   1.00
C796   C     0.66029   0.17536   0.73479   0.00000  Uiso   1.00
C797   C     0.34105   0.15731   0.76467   0.00000  Uiso   1.00
C798   C     0.51270   0.32238   0.73620   0.00000  Uiso   1.00
C799   C     0.48450   0.01288   0.76495   0.00000  Uiso   1.00
C800   C     0.48964   0.05620   0.76005   0.00000  Uiso   1.00
C801   C     0.50970   0.27796   0.74020   0.00000  Uiso   1.00
C802   C     0.44172   0.22961   0.99351   0.00000  Uiso   1.00
C803   C     0.51825   0.14831   0.62896   0.00000  Uiso   1.00
C804   C     0.48059   0.18359   0.87156   0.00000  Uiso   1.00
C805   C     0.52483   0.08163   0.52080   0.00000  Uiso   1.00
C806   C     0.52539   0.13805   0.57995   0.00000  Uiso   1.00
C807   C     0.45080   0.22397   0.94553   0.00000  Uiso   1.00
C808   C     0.45336   0.20107   0.51729   0.00000  Uiso   1.00
C809   C     0.47854   0.16995   0.99317   0.00000  Uiso   1.00
C810   C     0.47743   0.15832   0.94782   0.00000  Uiso   1.00
C811   C     0.50135   0.14776   0.51396   0.00000  Uiso   1.00
C812   C     0.50840   0.10650   0.99620   0.00000  Uiso   1.00
C813   C     0.49626   0.09030   0.95600   0.00000  Uiso   1.00
C814   C     0.48208   0.11660   0.93096   0.00000  Uiso   1.00
H815   H     0.53778   0.07661   0.58513   0.00000  Uiso   1.00
H816   H     0.46932   0.31650   0.99134   0.00000  Uiso   1.00
H817   H     0.48551   0.07953   0.87639   0.00000  Uiso   1.00
H818   H     0.36117   0.23097   0.63074   0.00000  Uiso   1.00
H819   H     0.66326   0.12741   0.81865   0.00000  Uiso   1.00
H820   H     0.60781   0.30934   0.67875   0.00000  Uiso   1.00
H821   H     0.39542   0.02809   0.86411   0.00000  Uiso   1.00
H822   H     0.47330   0.03838   0.92861   0.00000  Uiso   1.00
H823   H     0.54443   0.02919   0.52540   0.00000  Uiso   1.00
H824   H     0.58859   0.25530   0.57893   0.00000  Uiso   1.00
H825   H     0.41548   0.26413   0.93810   0.00000  Uiso   1.00
H826   H     0.43571   0.17424   0.57354   0.00000  Uiso   1.00
O827   O     0.50000   0.16667   0.75000   0.00000  Uiso   1.00
O828   O     0.48784   0.12637   0.65459   0.00000  Uiso   1.00
O829   O     0.46274   0.20391   0.84968   0.00000  Uiso   1.00
O830   O     0.54157   0.17759   0.64606   0.00000  Uiso   1.00
O831   O     0.50785   0.15880   0.84968   0.00000  Uiso   1.00
O832   O     0.64645   0.13831   0.80098   0.00000  Uiso   1.00
O833   O     0.53413   0.02834   0.65983   0.00000  Uiso   1.00
O834   O     0.58092   0.04654   0.71115   0.00000  Uiso   1.00
O835   O     0.58658   0.31036   0.66119   0.00000  Uiso   1.00
O836   O     0.40941   0.29870   0.79442   0.00000  Uiso   1.00
O837   O     0.45786   0.31263   0.84516   0.00000  Uiso   1.00
O838   O     0.51264   0.08019   0.78214   0.00000  Uiso   1.00
O839   O     0.41636   0.03831   0.83672   0.00000  Uiso   1.00
O840   O     0.49766   0.04875   0.94210   0.00000  Uiso   1.00
O841   O     0.53333   0.04193   0.50378   0.00000  Uiso   1.00
O842   O     0.53621   0.24175   0.52106   0.00000  Uiso   1.00
O843   O     0.50237   0.23736   0.60237   0.00000  Uiso   1.00
O844   O     0.58186   0.22509   0.57225   0.00000  Uiso   1.00
O845   O     0.44172   0.25235   0.92064   0.00000  Uiso   1.00
O846   O     0.43693   0.20220   0.56369   0.00000  Uiso   1.00
O847   O     0.37020   0.26538   0.52749   0.00000  Uiso   1.00
O848   O     0.42418   0.28059   0.57119   0.00000  Uiso   1.00
O849   O     0.47965   0.26085   0.77014   0.00000  Uiso   1.00
O850   O     0.43798   0.31597   0.99692   0.00000  Uiso   1.00
O851   O     0.46706   0.10044   0.89369   0.00000  Uiso   1.00
O852   O     0.39056   0.23613   0.70772   0.00000  Uiso   1.00
O853   O     0.39203   0.17049   0.66042   0.00000  Uiso   1.00
O854   O     0.33811   0.21942   0.65582   0.00000  Uiso   1.00
O855   O     0.40745   0.13291   0.73413   0.00000  Uiso   1.00
O856   O     0.60026   0.19272   0.71361   0.00000  Uiso   1.00
O857   O     0.40405   0.18878   0.78213   0.00000  Uiso   1.00
O858   O     0.58824   0.15226   0.77014   0.00000  Uiso   1.00
O859   O     0.47093   0.06944   0.73413   0.00000  Uiso   1.00
O860   O     0.53678   0.25620   0.71361   0.00000  Uiso   1.00
S861   S     0.55427   0.01141   0.69148   0.00000  Uiso   1.00
S862   S     0.44120   0.33045   0.81121   0.00000  Uiso   1.00
S863   S     0.53320   0.21908   0.56182   0.00000  Uiso   1.00
S864   S     0.41739   0.27315   0.52417   0.00000  Uiso   1.00
S865   S     0.36351   0.20084   0.68888   0.00000  Uiso   1.00
Zn866  Zn    0.52672   0.13994   0.78734   0.00000  Uiso   1.00
Zn867  Zn    0.46713   0.12458   0.71876   0.00000  Uiso   1.00
Zn868  Zn    0.54389   0.19775   0.70657   0.00000  Uiso   1.00
Zn869  Zn    0.46226   0.20439   0.78734   0.00000  Uiso   1.00
C870   C     0.71961   0.15957   0.76021   0.00000  Uiso   1.00
C871   C     0.85011   0.16504   0.55232   0.00000  Uiso   1.00
C872   C     0.86356   0.09699   0.56376   0.00000  Uiso   1.00
C873   C     0.94755   0.17361   0.73978   0.00000  Uiso   1.00
C874   C     0.80238   0.18826   0.92223   0.00000  Uiso   1.00
C875   C     0.99362   0.17536   0.73479   0.00000  Uiso   1.00
C876   C     0.67438   0.15731   0.76467   0.00000  Uiso   1.00
C877   C     0.84604   0.32238   0.73620   0.00000  Uiso   1.00
C878   C     0.81783   0.01288   0.76495   0.00000  Uiso   1.00
C879   C     0.82297   0.05620   0.76005   0.00000  Uiso   1.00
C880   C     0.84303   0.27796   0.74020   0.00000  Uiso   1.00
C881   C     0.77505   0.22961   0.99351   0.00000  Uiso   1.00
C882   C     0.85158   0.14831   0.62896   0.00000  Uiso   1.00
C883   C     0.81392   0.18359   0.87156   0.00000  Uiso   1.00
C884   C     0.85817   0.08163   0.52080   0.00000  Uiso   1.00
C885   C     0.85873   0.13805   0.57995   0.00000  Uiso   1.00
C886   C     0.78414   0.22397   0.94553   0.00000  Uiso   1.00
C887   C     0.78669   0.20107   0.51729   0.00000  Uiso   1.00
C888   C     0.81187   0.16995   0.99317   0.00000  Uiso   1.00
C889   C     0.81077   0.15832   0.94782   0.00000  Uiso   1.00
C890   C     0.83468   0.14776   0.51396   0.00000  Uiso   1.00
C891   C     0.84174   0.10650   0.99620   0.00000  Uiso   1.00
C892   C     0.82959   0.09030   0.95600   0.00000  Uiso   1.00
C893   C     0.81541   0.11660   0.93096   0.00000  Uiso   1.00
H894   H     0.87111   0.07661   0.58513   0.00000  Uiso   1.00
H895   H     0.80265   0.31650   0.99134   0.00000  Uiso   1.00
H896   H     0.81885   0.07953   0.87639   0.00000  Uiso   1.00
H897   H     0.69450   0.23097   0.63074   0.00000  Uiso   1.00
H898   H     0.99660   0.12741   0.81865   0.00000  Uiso   1.00
H899   H     0.94114   0.30934   0.67875   0.00000  Uiso   1.00
H900   H     0.72876   0.02809   0.86411   0.00000  Uiso   1.00
H901   H     0.80663   0.03838   0.92861   0.00000  Uiso   1.00
H902   H     0.87776   0.02919   0.52540   0.00000  Uiso   1.00
H903   H     0.92192   0.25530   0.57893   0.00000  Uiso   1.00
H904   H     0.74882   0.26413   0.93810   0.00000  Uiso   1.00
H905   H     0.76904   0.17424   0.57354   0.00000  Uiso   1.00
O906   O     0.83333   0.16667   0.75000   0.00000  Uiso   1.00
O907   O     0.82118   0.12637   0.65459   0.00000  Uiso   1.00
O908   O     0.79607   0.20391   0.84968   0.00000  Uiso   1.00
O909   O     0.87491   0.17759   0.64606   0.00000  Uiso   1.00
O910   O     0.84118   0.15880   0.84968   0.00000  Uiso   1.00
O911   O     0.97978   0.13831   0.80098   0.00000  Uiso   1.00
O912   O     0.86746   0.02834   0.65983   0.00000  Uiso   1.00
O913   O     0.91425   0.04654   0.71115   0.00000  Uiso   1.00
O914   O     0.91991   0.31036   0.66119   0.00000  Uiso   1.00
O915   O     0.74275   0.29870   0.79442   0.00000  Uiso   1.00
O916   O     0.79119   0.31263   0.84516   0.00000  Uiso   1.00
O917   O     0.84597   0.08019   0.78214   0.00000  Uiso   1.00
O918   O     0.74970   0.03831   0.83672   0.00000  Uiso   1.00
O919   O     0.83100   0.04875   0.94210   0.00000  Uiso   1.00
O920   O     0.86666   0.04193   0.50378   0.00000  Uiso   1.00
O921   O     0.86954   0.24175   0.52106   0.00000  Uiso   1.00
O922   O     0.83571   0.23736   0.60237   0.00000  Uiso   1.00
O923   O     0.91520   0.22509   0.57225   0.00000  Uiso   1.00
O924   O     0.77506   0.25235   0.92064   0.00000  Uiso   1.00
O925   O     0.77026   0.20220   0.56369   0.00000  Uiso   1.00
O926   O     0.70354   0.26538   0.52749   0.00000  Uiso   1.00
O927   O     0.75751   0.28059   0.57119   0.00000  Uiso   1.00
O928   O     0.81298   0.26085   0.77014   0.00000  Uiso   1.00
O929   O     0.77132   0.31597   0.99692   0.00000  Uiso   1.00
O930   O     0.80040   0.10044   0.89369   0.00000  Uiso   1.00
O931   O     0.72390   0.23613   0.70772   0.00000  Uiso   1.00
O932   O     0.72537   0.17049   0.66042   0.00000  Uiso   1.00
O933   O     0.67144   0.21942   0.65582   0.00000  Uiso   1.00
O934   O     0.74078   0.13291   0.73413   0.00000  Uiso   1.00
O935   O     0.93360   0.19272   0.71361   0.00000  Uiso   1.00
O936   O     0.73738   0.18878   0.78213   0.00000  Uiso   1.00
O937   O     0.92158   0.15226   0.77014   0.00000  Uiso   1.00
O938   O     0.80426   0.06944   0.73413   0.00000  Uiso   1.00
O939   O     0.87012   0.25620   0.71361   0.00000  Uiso   1.00
S940   S     0.88761   0.01141   0.69148   0.00000  Uiso   1.00
S941   S     0.77454   0.33045   0.81121   0.00000  Uiso   1.00
S942   S     0.86653   0.21908   0.56182   0.00000  Uiso   1.00
S943   S     0.75073   0.27315   0.52417   0.00000  Uiso   1.00
S944   S     0.69684   0.20084   0.68888   0.00000  Uiso   1.00
Zn945  Zn    0.86005   0.13994   0.78734   0.00000  Uiso   1.00
Zn946  Zn    0.80046   0.12458   0.71876   0.00000  Uiso   1.00
Zn947  Zn    0.87723   0.19775   0.70657   0.00000  Uiso   1.00
Zn948  Zn    0.79560   0.20439   0.78734   0.00000  Uiso   1.00
C949   C     0.05295   0.49291   0.76021   0.00000  Uiso   1.00
C950   C     0.18344   0.49837   0.55232   0.00000  Uiso   1.00
C951   C     0.19690   0.43032   0.56376   0.00000  Uiso   1.00
C952   C     0.28088   0.50695   0.73978   0.00000  Uiso   1.00
C953   C     0.13571   0.52160   0.92223   0.00000  Uiso   1.00
C954   C     0.32696   0.50869   0.73479   0.00000  Uiso   1.00
C955   C     0.00771   0.49064   0.76467   0.00000  Uiso   1.00
C956   C     0.17937   0.65571   0.73620   0.00000  Uiso   1.00
C957   C     0.15116   0.34621   0.76495   0.00000  Uiso   1.00
C958   C     0.15631   0.38953   0.76005   0.00000  Uiso   1.00
C959   C     0.17637   0.61129   0.74020   0.00000  Uiso   1.00
C960   C     0.10838   0.56295   0.99351   0.00000  Uiso   1.00
C961   C     0.18491   0.48165   0.62896   0.00000  Uiso   1.00
C962   C     0.14725   0.51692   0.87156   0.00000  Uiso   1.00
C963   C     0.19150   0.41497   0.52080   0.00000  Uiso   1.00
C964   C     0.19206   0.47138   0.57995   0.00000  Uiso   1.00
C965   C     0.11747   0.55730   0.94553   0.00000  Uiso   1.00
C966   C     0.12002   0.53440   0.51729   0.00000  Uiso   1.00
C967   C     0.14521   0.50329   0.99317   0.00000  Uiso   1.00
C968   C     0.14410   0.49165   0.94782   0.00000  Uiso   1.00
C969   C     0.16802   0.48109   0.51396   0.00000  Uiso   1.00
C970   C     0.17507   0.43983   0.99620   0.00000  Uiso   1.00
C971   C     0.16292   0.42364   0.95600   0.00000  Uiso   1.00
C972   C     0.14874   0.44993   0.93096   0.00000  Uiso   1.00
H973   H     0.20445   0.40995   0.58513   0.00000  Uiso   1.00
H974   H     0.13598   0.64983   0.99134   0.00000  Uiso   1.00
H975   H     0.15218   0.41286   0.87639   0.00000  Uiso   1.00
H976   H     0.02784   0.56430   0.63074   0.00000  Uiso   1.00
H977   H     0.32993   0.46074   0.81865   0.00000  Uiso   1.00
H978   H     0.27448   0.64267   0.67875   0.00000  Uiso   1.00
H979   H     0.06209   0.36142   0.86411   0.00000  Uiso   1.00
H980   H     0.13997   0.37171   0.92861   0.00000  Uiso   1.00
H981   H     0.21110   0.36252   0.52540   0.00000  Uiso   1.00
H982   H     0.25526   0.58863   0.57893   0.00000  Uiso   1.00
H983   H     0.08215   0.59747   0.93810   0.00000  Uiso   1.00
H984   H     0.10238   0.50757   0.57354   0.00000  Uiso   1.00
O985   O     0.16667   0.50000   0.75000   0.00000  Uiso   1.00
O986   O     0.15451   0.45970   0.65459   0.00000  Uiso   1.00
O987   O     0.12940   0.53724   0.84968   0.00000  Uiso   1.00
O988   O     0.20824   0.51092   0.64606   0.00000  Uiso   1.00
O989   O     0.17451   0.49213   0.84968   0.00000  Uiso   1.00
O990   O     0.31312   0.47164   0.80098   0.00000  Uiso   1.00
O991   O     0.20080   0.36168   0.65983   0.00000  Uiso   1.00
O992   O     0.24759   0.37987   0.71115   0.00000  Uiso   1.00
O993   O     0.25324   0.64369   0.66119   0.00000  Uiso   1.00
O994   O     0.07608   0.63203   0.79442   0.00000  Uiso   1.00
O995   O     0.12452   0.64597   0.84516   0.00000  Uiso   1.00
O996   O     0.17930   0.41352   0.78214   0.00000  Uiso   1.00
O997   O     0.08303   0.37164   0.83672   0.00000  Uiso   1.00
O998   O     0.16433   0.38209   0.94210   0.00000  Uiso   1.00
O999   O     0.19999   0.37526   0.50378   0.00000  Uiso   1.00
O1000  O     0.20287   0.57508   0.52106   0.00000  Uiso   1.00
O1001  O     0.16904   0.57069   0.60237   0.00000  Uiso   1.00
O1002  O     0.24853   0.55842   0.57225   0.00000  Uiso   1.00
O1003  O     0.10839   0.58569   0.92064   0.00000  Uiso   1.00
O1004  O     0.10359   0.53553   0.56369   0.00000  Uiso   1.00
O1005  O     0.03687   0.59871   0.52749   0.00000  Uiso   1.00
O1006  O     0.09085   0.61392   0.57119   0.00000  Uiso   1.00
O1007  O     0.14632   0.59418   0.77014   0.00000  Uiso   1.00
O1008  O     0.10465   0.64930   0.99692   0.00000  Uiso   1.00
O1009  O     0.13373   0.43378   0.89369   0.00000  Uiso   1.00
O1010  O     0.05723   0.56946   0.70772   0.00000  Uiso   1.00
O1011  O     0.05870   0.50383   0.66042   0.00000  Uiso   1.00
O1012  O     0.00477   0.55275   0.65582   0.00000  Uiso   1.00
O1013  O     0.07412   0.46625   0.73413   0.00000  Uiso   1.00
O1014  O     0.26693   0.52605   0.71361   0.00000  Uiso   1.00
O1015  O     0.07071   0.52211   0.78213   0.00000  Uiso   1.00
O1016  O     0.25491   0.48559   0.77014   0.00000  Uiso   1.00
O1017  O     0.13760   0.40277   0.73413   0.00000  Uiso   1.00
O1018  O     0.20345   0.58953   0.71361   0.00000  Uiso   1.00
S1019  S     0.22094   0.34475   0.69148   0.00000  Uiso   1.00
S1020  S     0.10787   0.66378   0.81121   0.00000  Uiso   1.00
S1021  S     0.19987   0.55242   0.56182   0.00000  Uiso   1.00
S1022  S     0.08406   0.60648   0.52417   0.00000  Uiso   1.00
S1023  S     0.03018   0.53418   0.68888   0.00000  Uiso   1.00
Zn1024 Zn    0.19338   0.47327   0.78734   0.00000  Uiso   1.00
Zn1025 Zn    0.13379   0.45791   0.71876   0.00000  Uiso   1.00
Zn1026 Zn    0.21056   0.53109   0.70657   0.00000  Uiso   1.00
Zn1027 Zn    0.12893   0.53773   0.78734   0.00000  Uiso   1.00
C1028  C     0.38628   0.49291   0.76021   0.00000  Uiso   1.00
C1029  C     0.51677   0.49837   0.55232   0.00000  Uiso   1.00
C1030  C     0.53023   0.43032   0.56376   0.00000  Uiso   1.00
C1031  C     0.61422   0.50695   0.73978   0.00000  Uiso   1.00
C1032  C     0.46904   0.52160   0.92223   0.00000  Uiso   1.00
C1033  C     0.66029   0.50869   0.73479   0.00000  Uiso   1.00
C1034  C     0.34105   0.49064   0.76467   0.00000  Uiso   1.00
C1035  C     0.51270   0.65571   0.73620   0.00000  Uiso   1.00
C1036  C     0.48450   0.34621   0.76495   0.00000  Uiso   1.00
C1037  C     0.48964   0.38953   0.76005   0.00000  Uiso   1.00
C1038  C     0.50970   0.61129   0.74020   0.00000  Uiso   1.00
C1039  C     0.44172   0.56295   0.99351   0.00000  Uiso   1.00
C1040  C     0.51825   0.48165   0.62896   0.00000  Uiso   1.00
C1041  C     0.48059   0.51692   0.87156   0.00000  Uiso   1.00
C1042  C     0.52483   0.41497   0.52080   0.00000  Uiso   1.00
C1043  C     0.52539   0.47138   0.57995   0.00000  Uiso   1.00
C1044  C     0.45080   0.55730   0.94553   0.00000  Uiso   1.00
C1045  C     0.45336   0.53440   0.51729   0.00000  Uiso   1.00
C1046  C     0.47854   0.50329   0.99317   0.00000  Uiso   1.00
C1047  C     0.47743   0.49165   0.94782   0.00000  Uiso   1.00
C1048  C     0.50135   0.48109   0.51396   0.00000  Uiso   1.00
C1049  C     0.50840   0.43983   0.99620   0.00000  Uiso   1.00
C1050  C     0.49626   0.42364   0.95600   0.00000  Uiso   1.00
C1051  C     0.48208   0.44993   0.93096   0.00000  Uiso   1.00
H1052  H     0.53778   0.40995   0.58513   0.00000  Uiso   1.00
H1053  H     0.46932   0.64983   0.99134   0.00000  Uiso   1.00
H1054  H     0.48551   0.41286   0.87639   0.00000  Uiso   1.00
H1055  H     0.36117   0.56430   0.63074   0.00000  Uiso   1.00
H1056  H     0.66326   0.46074   0.81865   0.00000  Uiso   1.00
H1057  H     0.60781   0.64267   0.67875   0.00000  Uiso   1.00
H1058  H     0.39542   0.36142   0.86411   0.00000  Uiso   1.00
H1059  H     0.47330   0.37171   0.92861   0.00000  Uiso   1.00
H1060  H     0.54443   0.36252   0.52540   0.00000  Uiso   1.00
H1061  H     0.58859   0.58863   0.57893   0.00000  Uiso   1.00
H1062  H     0.41548   0.59747   0.93810   0.00000  Uiso   1.00
H1063  H     0.43571   0.50757   0.57354   0.00000  Uiso   1.00
O1064  O     0.50000   0.50000   0.75000   0.00000  Uiso   1.00
O1065  O     0.48784   0.45970   0.65459   0.00000  Uiso   1.00
O1066  O     0.46274   0.53724   0.84968   0.00000  Uiso   1.00
O1067  O     0.54157   0.51092   0.64606   0.00000  Uiso   1.00
O1068  O     0.50785   0.49213   0.84968   0.00000  Uiso   1.00
O1069  O     0.64645   0.47164   0.80098   0.00000  Uiso   1.00
O1070  O     0.53413   0.36168   0.65983   0.00000  Uiso   1.00
O1071  O     0.58092   0.37987   0.71115   0.00000  Uiso   1.00
O1072  O     0.58658   0.64369   0.66119   0.00000  Uiso   1.00
O1073  O     0.40941   0.63203   0.79442   0.00000  Uiso   1.00
O1074  O     0.45786   0.64597   0.84516   0.00000  Uiso   1.00
O1075  O     0.51264   0.41352   0.78214   0.00000  Uiso   1.00
O1076  O     0.41636   0.37164   0.83672   0.00000  Uiso   1.00
O1077  O     0.49766   0.38209   0.94210   0.00000  Uiso   1.00
O1078  O     0.53333   0.37526   0.50378   0.00000  Uiso   1.00
O1079  O     0.53621   0.57508   0.52106   0.00000  Uiso   1.00
O1080  O     0.50237   0.57069   0.60237   0.00000  Uiso   1.00
O1081  O     0.58186   0.55842   0.57225   0.00000  Uiso   1.00
O1082  O     0.44172   0.58569   0.92064   0.00000  Uiso   1.00
O1083  O     0.43693   0.53553   0.56369   0.00000  Uiso   1.00
O1084  O     0.37020   0.59871   0.52749   0.00000  Uiso   1.00
O1085  O     0.42418   0.61392   0.57119   0.00000  Uiso   1.00
O1086  O     0.47965   0.59418   0.77014   0.00000  Uiso   1.00
O1087  O     0.43798   0.64930   0.99692   0.00000  Uiso   1.00
O1088  O     0.46706   0.43378   0.89369   0.00000  Uiso   1.00
O1089  O     0.39056   0.56946   0.70772   0.00000  Uiso   1.00
O1090  O     0.39203   0.50383   0.66042   0.00000  Uiso   1.00
O1091  O     0.33811   0.55275   0.65582   0.00000  Uiso   1.00
O1092  O     0.40745   0.46625   0.73413   0.00000  Uiso   1.00
O1093  O     0.60026   0.52605   0.71361   0.00000  Uiso   1.00
O1094  O     0.40405   0.52211   0.78213   0.00000  Uiso   1.00
O1095  O     0.58824   0.48559   0.77014   0.00000  Uiso   1.00
O1096  O     0.47093   0.40277   0.73413   0.00000  Uiso   1.00
O1097  O     0.53678   0.58953   0.71361   0.00000  Uiso   1.00
S1098  S     0.55427   0.34475   0.69148   0.00000  Uiso   1.00
S1099  S     0.44120   0.66378   0.81121   0.00000  Uiso   1.00
S1100  S     0.53320   0.55242   0.56182   0.00000  Uiso   1.00
S1101  S     0.41739   0.60648   0.52417   0.00000  Uiso   1.00
S1102  S     0.36351   0.53418   0.68888   0.00000  Uiso   1.00
Zn1103 Zn    0.52672   0.47327   0.78734   0.00000  Uiso   1.00
Zn1104 Zn    0.46713   0.45791   0.71876   0.00000  Uiso   1.00
Zn1105 Zn    0.54389   0.53109   0.70657   0.00000  Uiso   1.00
Zn1106 Zn    0.46226   0.53773   0.78734   0.00000  Uiso   1.00
C1107  C     0.71961   0.49291   0.76021   0.00000  Uiso   1.00
C1108  C     0.85011   0.49837   0.55232   0.00000  Uiso   1.00
C1109  C     0.86356   0.43032   0.56376   0.00000  Uiso   1.00
C1110  C     0.94755   0.50695   0.73978   0.00000  Uiso   1.00
C1111  C     0.80238   0.52160   0.92223   0.00000  Uiso   1.00
C1112  C     0.99362   0.50869   0.73479   0.00000  Uiso   1.00
C1113  C     0.67438   0.49064   0.76467   0.00000  Uiso   1.00
C1114  C     0.84604   0.65571   0.73620   0.00000  Uiso   1.00
C1115  C     0.81783   0.34621   0.76495   0.00000  Uiso   1.00
C1116  C     0.82297   0.38953   0.76005   0.00000  Uiso   1.00
C1117  C     0.84303   0.61129   0.74020   0.00000  Uiso   1.00
C1118  C     0.77505   0.56295   0.99351   0.00000  Uiso   1.00
C1119  C     0.85158   0.48165   0.62896   0.00000  Uiso   1.00
C1120  C     0.81392   0.51692   0.87156   0.00000  Uiso   1.00
C1121  C     0.85817   0.41497   0.52080   0.00000  Uiso   1.00
C1122  C     0.85873   0.47138   0.57995   0.00000  Uiso   1.00
C1123  C     0.78414   0.55730   0.94553   0.00000  Uiso   1.00
C1124  C     0.78669   0.53440   0.51729   0.00000  Uiso   1.00
C1125  C     0.81187   0.50329   0.99317   0.00000  Uiso   1.00
C1126  C     0.81077   0.49165   0.94782   0.00000  Uiso   1.00
C1127  C     0.83468   0.48109   0.51396   0.00000  Uiso   1.00
C1128  C     0.84174   0.43983   0.99620   0.00000  Uiso   1.00
C1129  C     0.82959   0.42364   0.95600   0.00000  Uiso   1.00
C1130  C     0.81541   0.44993   0.93096   0.00000  Uiso   1.00
H1131  H     0.87111   0.40995   0.58513   0.00000  Uiso   1.00
H1132  H     0.80265   0.64983   0.99134   0.00000  Uiso   1.00
H1133  H     0.81885   0.41286   0.87639   0.00000  Uiso   1.00
H1134  H     0.69450   0.56430   0.63074   0.00000  Uiso   1.00
H1135  H     0.99660   0.46074   0.81865   0.00000  Uiso   1.00
H1136  H     0.94114   0.64267   0.67875   0.00000  Uiso   1.00
H1137  H     0.72876   0.36142   0.86411   0.00000  Uiso   1.00
H1138  H     0.80663   0.37171   0.92861   0.00000  Uiso   1.00
H1139  H     0.87776   0.36252   0.52540   0.00000  Uiso   1.00
H1140  H     0.92192   0.58863   0.57893   0.00000  Uiso   1.00
H1141  H     0.74882   0.59747   0.93810   0.00000  Uiso   1.00
H1142  H     0.76904   0.50757   0.57354   0.00000  Uiso   1.00
O1143  O     0.83333   0.50000   0.75000   0.00000  Uiso   1.00
O1144  O     0.82118   0.45970   0.65459   0.00000  Uiso   1.00
O1145  O     0.79607   0.53724   0.84968   0.00000  Uiso   1.00
O1146  O     0.87491   0.51092   0.64606   0.00000  Uiso   1.00
O1147  O     0.84118   0.49213   0.84968   0.00000  Uiso   1.00
O1148  O     0.97978   0.47164   0.80098   0.00000  Uiso   1.00
O1149  O     0.86746   0.36168   0.65983   0.00000  Uiso   1.00
O1150  O     0.91425   0.37987   0.71115   0.00000  Uiso   1.00
O1151  O     0.91991   0.64369   0.66119   0.00000  Uiso   1.00
O1152  O     0.74275   0.63203   0.79442   0.00000  Uiso   1.00
O1153  O     0.79119   0.64597   0.84516   0.00000  Uiso   1.00
O1154  O     0.84597   0.41352   0.78214   0.00000  Uiso   1.00
O1155  O     0.74970   0.37164   0.83672   0.00000  Uiso   1.00
O1156  O     0.83100   0.38209   0.94210   0.00000  Uiso   1.00
O1157  O     0.86666   0.37526   0.50378   0.00000  Uiso   1.00
O1158  O     0.86954   0.57508   0.52106   0.00000  Uiso   1.00
O1159  O     0.83571   0.57069   0.60237   0.00000  Uiso   1.00
O1160  O     0.91520   0.55842   0.57225   0.00000  Uiso   1.00
O1161  O     0.77506   0.58569   0.92064   0.00000  Uiso   1.00
O1162  O     0.77026   0.53553   0.56369   0.00000  Uiso   1.00
O1163  O     0.70354   0.59871   0.52749   0.00000  Uiso   1.00
O1164  O     0.75751   0.61392   0.57119   0.00000  Uiso   1.00
O1165  O     0.81298   0.59418   0.77014   0.00000  Uiso   1.00
O1166  O     0.77132   0.64930   0.99692   0.00000  Uiso   1.00
O1167  O     0.80040   0.43378   0.89369   0.00000  Uiso   1.00
O1168  O     0.72390   0.56946   0.70772   0.00000  Uiso   1.00
O1169  O     0.72537   0.50383   0.66042   0.00000  Uiso   1.00
O1170  O     0.67144   0.55275   0.65582   0.00000  Uiso   1.00
O1171  O     0.74078   0.46625   0.73413   0.00000  Uiso   1.00
O1172  O     0.93360   0.52605   0.71361   0.00000  Uiso   1.00
O1173  O     0.73738   0.52211   0.78213   0.00000  Uiso   1.00
O1174  O     0.92158   0.48559   0.77014   0.00000  Uiso   1.00
O1175  O     0.80426   0.40277   0.73413   0.00000  Uiso   1.00
O1176  O     0.87012   0.58953   0.71361   0.00000  Uiso   1.00
S1177  S     0.88761   0.34475   0.69148   0.00000  Uiso   1.00
S1178  S     0.77454   0.66378   0.81121   0.00000  Uiso   1.00
S1179  S     0.86653   0.55242   0.56182   0.00000  Uiso   1.00
S1180  S     0.75073   0.60648   0.52417   0.00000  Uiso   1.00
S1181  S     0.69684   0.53418   0.68888   0.00000  Uiso   1.00
Zn1182 Zn    0.86005   0.47327   0.78734   0.00000  Uiso   1.00
Zn1183 Zn    0.80046   0.45791   0.71876   0.00000  Uiso   1.00
Zn1184 Zn    0.87723   0.53109   0.70657   0.00000  Uiso   1.00
Zn1185 Zn    0.79560   0.53773   0.78734   0.00000  Uiso   1.00
C1186  C     0.05295   0.82624   0.76021   0.00000  Uiso   1.00
C1187  C     0.18344   0.83171   0.55232   0.00000  Uiso   1.00
C1188  C     0.19690   0.76365   0.56376   0.00000  Uiso   1.00
C1189  C     0.28088   0.84028   0.73978   0.00000  Uiso   1.00
C1190  C     0.13571   0.85493   0.92223   0.00000  Uiso   1.00
C1191  C     0.32696   0.84202   0.73479   0.00000  Uiso   1.00
C1192  C     0.00771   0.82397   0.76467   0.00000  Uiso   1.00
C1193  C     0.17937   0.98905   0.73620   0.00000  Uiso   1.00
C1194  C     0.15116   0.67954   0.76495   0.00000  Uiso   1.00
C1195  C     0.15631   0.72286   0.76005   0.00000  Uiso   1.00
C1196  C     0.17637   0.94462   0.74020   0.00000  Uiso   1.00
C1197  C     0.10838   0.89628   0.99351   0.00000  Uiso   1.00
C1198  C     0.18491   0.81498   0.62896   0.00000  Uiso   1.00
C1199  C     0.14725   0.85026   0.87156   0.00000  Uiso   1.00
C1200  C     0.19150   0.74830   0.52080   0.00000  Uiso   1.00
C1201  C     0.19206   0.80472   0.57995   0.00000  Uiso   1.00
C1202  C     0.11747   0.89063   0.94553   0.00000  Uiso   1.00
C1203  C     0.12002   0.86773   0.51729   0.00000  Uiso   1.00
C1204  C     0.14521   0.83662   0.99317   0.00000  Uiso   1.00
C1205  C     0.14410   0.82499   0.94782   0.00000  Uiso   1.00
C1206  C     0.16802   0.81443   0.51396   0.00000  Uiso   1.00
C1207  C     0.17507   0.77316   0.99620   0.00000  Uiso   1.00
C1208  C     0.16292   0.75697   0.95600   0.00000  Uiso   1.00
C1209  C     0.14874   0.78326   0.93096   0.00000  Uiso   1.00
H1210  H     0.20445   0.74328   0.58513   0.00000  Uiso   1.00
H1211  H     0.13598   0.98317   0.99134   0.00000  Uiso   1.00
H1212  H     0.15218   0.74619   0.87639   0.00000  Uiso   1.00
H1213  H     0.02784   0.89763   0.63074   0.00000  Uiso   1.00
H1214  H     0.32993   0.79407   0.81865   0.00000  Uiso   1.00
H1215  H     0.27448   0.97601   0.67875   0.00000  Uiso   1.00
H1216  H     0.06209   0.69475   0.86411   0.00000  Uiso   1.00
H1217  H     0.13997   0.70505   0.92861   0.00000  Uiso   1.00
H1218  H     0.21110   0.69586   0.52540   0.00000  Uiso   1.00
H1219  H     0.25526   0.92197   0.57893   0.00000  Uiso   1.00
H1220  H     0.08215   0.93080   0.93810   0.00000  Uiso   1.00
H1221  H     0.10238   0.84090   0.57354   0.00000  Uiso   1.00
O1222  O     0.16667   0.83333   0.75000   0.00000  Uiso   1.00
O1223  O     0.15451   0.79304   0.65459   0.00000  Uiso   1.00
O1224  O     0.12940   0.87058   0.84968   0.00000  Uiso   1.00
O1225  O     0.20824   0.84425   0.64606   0.00000  Uiso   1.00
O1226  O     0.17451   0.82546   0.84968   0.00000  Uiso   1.00
O1227  O     0.31312   0.80497   0.80098   0.00000  Uiso   1.00
O1228  O     0.20080   0.69501   0.65983   0.00000  Uiso   1.00
O1229  O     0.24759   0.71320   0.71115   0.00000  Uiso   1.00
O1230  O     0.25324   0.97703   0.66119   0.00000  Uiso   1.00
O1231  O     0.07608   0.96536   0.79442   0.00000  Uiso   1.00
O1232  O     0.12452   0.97930   0.84516   0.00000  Uiso   1.00
O1233  O     0.17930   0.74686   0.78214   0.00000  Uiso   1.00
O1234  O     0.08303   0.70498   0.83672   0.00000  Uiso   1.00
O1235  O     0.16433   0.71542   0.94210   0.00000  Uiso   1.00
O1236  O     0.19999   0.70860   0.50378   0.00000  Uiso   1.00
O1237  O     0.20287   0.90842   0.52106   0.00000  Uiso   1.00
O1238  O     0.16904   0.90402   0.60237   0.00000  Uiso   1.00
O1239  O     0.24853   0.89176   0.57225   0.00000  Uiso   1.00
O1240  O     0.10839   0.91902   0.92064   0.00000  Uiso   1.00
O1241  O     0.10359   0.86886   0.56369   0.00000  Uiso   1.00
O1242  O     0.03687   0.93204   0.52749   0.00000  Uiso   1.00
O1243  O     0.09085   0.94725   0.57119   0.00000  Uiso   1.00
O1244  O     0.14632   0.92751   0.77014   0.00000  Uiso   1.00
O1245  O     0.10465   0.98264   0.99692   0.00000  Uiso   1.00
O1246  O     0.13373   0.76711   0.89369   0.00000  Uiso   1.00
O1247  O     0.05723   0.90280   0.70772   0.00000  Uiso   1.00
O1248  O     0.05870   0.83716   0.66042   0.00000  Uiso   1.00
O1249  O     0.00477   0.88609   0.65582   0.00000  Uiso   1.00
O1250  O     0.07412   0.79958   0.73413   0.00000  Uiso   1.00
O1251  O     0.26693   0.85939   0.71361   0.00000  Uiso   1.00
O1252  O     0.07071   0.85544   0.78213   0.00000  Uiso   1.00
O1253  O     0.25491   0.81892   0.77014   0.00000  Uiso   1.00
O1254  O     0.13760   0.73610   0.73413   0.00000  Uiso   1.00
O1255  O     0.20345   0.92286   0.71361   0.00000  Uiso   1.00
S1256  S     0.22094   0.67808   0.69148   0.00000  Uiso   1.00
S1257  S     0.10787   0.99712   0.81121   0.00000  Uiso   1.00
S1258  S     0.19987   0.88575   0.56182   0.00000  Uiso   1.00
S1259  S     0.08406   0.93981   0.52417   0.00000  Uiso   1.00
S1260  S     0.03018   0.86751   0.68888   0.00000  Uiso   1.00
Zn1261 Zn    0.19338   0.80661   0.78734   0.00000  Uiso   1.00
Zn1262 Zn    0.13379   0.79124   0.71876   0.00000  Uiso   1.00
Zn1263 Zn    0.21056   0.86442   0.70657   0.00000  Uiso   1.00
Zn1264 Zn    0.12893   0.87106   0.78734   0.00000  Uiso   1.00
C1265  C     0.38628   0.82624   0.76021   0.00000  Uiso   1.00
C1266  C     0.51677   0.83171   0.55232   0.00000  Uiso   1.00
C1267  C     0.53023   0.76365   0.56376   0.00000  Uiso   1.00
C1268  C     0.61422   0.84028   0.73978   0.00000  Uiso   1.00
C1269  C     0.46904   0.85493   0.92223   0.00000  Uiso   1.00
C1270  C     0.66029   0.84202   0.73479   0.00000  Uiso   1.00
C1271  C     0.34105   0.82397   0.76467   0.00000  Uiso   1.00
C1272  C     0.51270   0.98905   0.73620   0.00000  Uiso   1.00
C1273  C     0.48450   0.67954   0.76495   0.00000  Uiso   1.00
C1274  C     0.48964   0.72286   0.76005   0.00000  Uiso   1.00
C1275  C     0.50970   0.94462   0.74020   0.00000  Uiso   1.00
C1276  C     0.44172   0.89628   0.99351   0.00000  Uiso   1.00
C1277  C     0.51825   0.81498   0.62896   0.00000  Uiso   1.00
C1278  C     0.48059   0.85026   0.87156   0.00000  Uiso   1.00
C1279  C     0.52483   0.74830   0.52080   0.00000  Uiso   1.00
C1280  C     0.52539   0.80472   0.57995   0.00000  Uiso   1.00
C1281  C     0.45080   0.89063   0.94553   0.00000  Uiso   1.00
C1282  C     0.45336   0.86773   0.51729   0.00000  Uiso   1.00
C1283  C     0.47854   0.83662   0.99317   0.00000  Uiso   1.00
C1284  C     0.47743   0.82499   0.94782   0.00000  Uiso   1.00
C1285  C     0.50135   0.81443   0.51396   0.00000  Uiso   1.00
C1286  C     0.50840   0.77316   0.99620   0.00000  Uiso   1.00
C1287  C     0.49626   0.75697   0.95600   0.00000  Uiso   1.00
C1288  C     0.48208   0.78326   0.93096   0.00000  Uiso   1.00
H1289  H     0.53778   0.74328   0.58513   0.00000  Uiso   1.00
H1290  H     0.46932   0.98317   0.99134   0.00000  Uiso   1.00
H1291  H     0.48551   0.74619   0.87639   0.00000  Uiso   1.00
H1292  H     0.36117   0.89763   0.63074   0.00000  Uiso   1.00
H1293  H     0.66326   0.79407   0.81865   0.00000  Uiso   1.00
H1294  H     0.60781   0.97601   0.67875   0.00000  Uiso   1.00
H1295  H     0.39542   0.69475   0.86411   0.00000  Uiso   1.00
H1296  H     0.47330   0.70505   0.92861   0.00000  Uiso   1.00
H1297  H     0.54443   0.69586   0.52540   0.00000  Uiso   1.00
H1298  H     0.58859   0.92197   0.57893   0.00000  Uiso   1.00
H1299  H     0.41548   0.93080   0.93810   0.00000  Uiso   1.00
H1300  H     0.43571   0.84090   0.57354   0.00000  Uiso   1.00
O1301  O     0.50000   0.83333   0.75000   0.00000  Uiso   1.00
O1302  O     0.48784   0.79304   0.65459   0.00000  Uiso   1.00
O1303  O     0.46274   0.87058   0.84968   0.00000  Uiso   1.00
O1304  O     0.54157   0.84425   0.64606   0.00000  Uiso   1.00
O1305  O     0.50785   0.82546   0.84968   0.00000  Uiso   1.00
O1306  O     0.64645   0.80497   0.80098   0.00000  Uiso   1.00
O1307  O     0.53413   0.69501   0.65983   0.00000  Uiso   1.00
O1308  O     0.58092   0.71320   0.71115   0.00000  Uiso   1.00
O1309  O     0.58658   0.97703   0.66119   0.00000  Uiso   1.00
O1310  O     0.40941   0.96536   0.79442   0.00000  Uiso   1.00
O1311  O     0.45786   0.97930   0.84516   0.00000  Uiso   1.00
O1312  O     0.51264   0.74686   0.78214   0.00000  Uiso   1.00
O1313  O     0.41636   0.70498   0.83672   0.00000  Uiso   1.00
O1314  O     0.49766   0.71542   0.94210   0.00000  Uiso   1.00
O1315  O     0.53333   0.70860   0.50378   0.00000  Uiso   1.00
O1316  O     0.53621   0.90842   0.52106   0.00000  Uiso   1.00
O1317  O     0.50237   0.90402   0.60237   0.00000  Uiso   1.00
O1318  O     0.58186   0.89176   0.57225   0.00000  Uiso   1.00
O1319  O     0.44172   0.91902   0.92064   0.00000  Uiso   1.00
O1320  O     0.43693   0.86886   0.56369   0.00000  Uiso   1.00
O1321  O     0.37020   0.93204   0.52749   0.00000  Uiso   1.00
O1322  O     0.42418   0.94725   0.57119   0.00000  Uiso   1.00
O1323  O     0.47965   0.92751   0.77014   0.00000  Uiso   1.00
O1324  O     0.43798   0.98264   0.99692   0.00000  Uiso   1.00
O1325  O     0.46706   0.76711   0.89369   0.00000  Uiso   1.00
O1326  O     0.39056   0.90280   0.70772   0.00000  Uiso   1.00
O1327  O     0.39203   0.83716   0.66042   0.00000  Uiso   1.00
O1328  O     0.33811   0.88609   0.65582   0.00000  Uiso   1.00
O1329  O     0.40745   0.79958   0.73413   0.00000  Uiso   1.00
O1330  O     0.60026   0.85939   0.71361   0.00000  Uiso   1.00
O1331  O     0.40405   0.85544   0.78213   0.00000  Uiso   1.00
O1332  O     0.58824   0.81892   0.77014   0.00000  Uiso   1.00
O1333  O     0.47093   0.73610   0.73413   0.00000  Uiso   1.00
O1334  O     0.53678   0.92286   0.71361   0.00000  Uiso   1.00
S1335  S     0.55427   0.67808   0.69148   0.00000  Uiso   1.00
S1336  S     0.44120   0.99712   0.81121   0.00000  Uiso   1.00
S1337  S     0.53320   0.88575   0.56182   0.00000  Uiso   1.00
S1338  S     0.41739   0.93981   0.52417   0.00000  Uiso   1.00
S1339  S     0.36351   0.86751   0.68888   0.00000  Uiso   1.00
Zn1340 Zn    0.52672   0.80661   0.78734   0.00000  Uiso   1.00
Zn1341 Zn    0.46713   0.79124   0.71876   0.00000  Uiso   1.00
Zn1342 Zn    0.54389   0.86442   0.70657   0.00000  Uiso   1.00
Zn1343 Zn    0.46226   0.87106   0.78734   0.00000  Uiso   1.00
C1344  C     0.71961   0.82624   0.76021   0.00000  Uiso   1.00
C1345  C     0.85011   0.83171   0.55232   0.00000  Uiso   1.00
C1346  C     0.86356   0.76365   0.56376   0.00000  Uiso   1.00
C1347  C     0.94755   0.84028   0.73978   0.00000  Uiso   1.00
C1348  C     0.80238   0.85493   0.92223   0.00000  Uiso   1.00
C1349  C     0.99362   0.84202   0.73479   0.00000  Uiso   1.00
C1350  C     0.67438   0.82397   0.76467   0.00000  Uiso   1.00
C1351  C     0.84604   0.98905   0.73620   0.00000  Uiso   1.00
C1352  C     0.81783   0.67954   0.76495   0.00000  Uiso   1.00
C1353  C     0.82297   0.72286   0.76005   0.00000  Uiso   1.00
C1354  C     0.84303   0.94462   0.74020   0.00000  Uiso   1.00
C1355  C     0.77505   0.89628   0.99351   0.00000  Uiso   1.00
C1356  C     0.85158   0.81498   0.62896   0.00000  Uiso   1.00
C1357  C     0.81392   0.85026   0.87156   0.00000  Uiso   1.00
C1358  C     0.85817   0.74830   0.52080   0.00000  Uiso   1.00
C1359  C     0.85873   0.80472   0.57995   0.00000  Uiso   1.00
C1360  C     0.78414   0.89063   0.94553   0.00000  Uiso   1.00
C1361  C     0.78669   0.86773   0.51729   0.00000  Uiso   1.00
C1362  C     0.81187   0.83662   0.99317   0.00000  Uiso   1.00
C1363  C     0.81077   0.82499   0.94782   0.00000  Uiso   1.00
C1364  C     0.83468   0.81443   0.51396   0.00000  Uiso   1.00
C1365  C     0.84174   0.77316   0.99620   0.00000  Uiso   1.00
C1366  C     0.82959   0.75697   0.95600   0.00000  Uiso   1.00
C1367  C     0.81541   0.78326   0.93096   0.00000  Uiso   1.00
H1368  H     0.87111   0.74328   0.58513   0.00000  Uiso   1.00
H1369  H     0.80265   0.98317   0.99134   0.00000  Uiso   1.00
H1370  H     0.81885   0.74619   0.87639   0.00000  Uiso   1.00
H1371  H     0.69450   0.89763   0.63074   0.00000  Uiso   1.00
H1372  H     0.99660   0.79407   0.81865   0.00000  Uiso   1.00
H1373  H     0.94114   0.97601   0.67875   0.00000  Uiso   1.00
H1374  H     0.72876   0.69475   0.86411   0.00000  Uiso   1.00
H1375  H     0.80663   0.70505   0.92861   0.00000  Uiso   1.00
H1376  H     0.87776   0.69586   0.52540   0.00000  Uiso   1.00
H1377  H     0.92192   0.92197   0.57893   0.00000  Uiso   1.00
H1378  H     0.74882   0.93080   0.93810   0.00000  Uiso   1.00
H1379  H     0.76904   0.84090   0.57354   0.00000  Uiso   1.00
O1380  O     0.83333   0.83333   0.75000   0.00000  Uiso   1.00
O1381  O     0.82118   0.79304   0.65459   0.00000  Uiso   1.00
O1382  O     0.79607   0.87058   0.84968   0.00000  Uiso   1.00
O1383  O     0.87491   0.84425   0.64606   0.00000  Uiso   1.00
O1384  O     0.84118   0.82546   0.84968   0.00000  Uiso   1.00
O1385  O     0.97978   0.80497   0.80098   0.00000  Uiso   1.00
O1386  O     0.86746   0.69501   0.65983   0.00000  Uiso   1.00
O1387  O     0.91425   0.71320   0.71115   0.00000  Uiso   1.00
O1388  O     0.91991   0.97703   0.66119   0.00000  Uiso   1.00
O1389  O     0.74275   0.96536   0.79442   0.00000  Uiso   1.00
O1390  O     0.79119   0.97930   0.84516   0.00000  Uiso   1.00
O1391  O     0.84597   0.74686   0.78214   0.00000  Uiso   1.00
O1392  O     0.74970   0.70498   0.83672   0.00000  Uiso   1.00
O1393  O     0.83100   0.71542   0.94210   0.00000  Uiso   1.00
O1394  O     0.86666   0.70860   0.50378   0.00000  Uiso   1.00
O1395  O     0.86954   0.90842   0.52106   0.00000  Uiso   1.00
O1396  O     0.83571   0.90402   0.60237   0.00000  Uiso   1.00
O1397  O     0.91520   0.89176   0.57225   0.00000  Uiso   1.00
O1398  O     0.77506   0.91902   0.92064   0.00000  Uiso   1.00
O1399  O     0.77026   0.86886   0.56369   0.00000  Uiso   1.00
O1400  O     0.70354   0.93204   0.52749   0.00000  Uiso   1.00
O1401  O     0.75751   0.94725   0.57119   0.00000  Uiso   1.00
O1402  O     0.81298   0.92751   0.77014   0.00000  Uiso   1.00
O1403  O     0.77132   0.98264   0.99692   0.00000  Uiso   1.00
O1404  O     0.80040   0.76711   0.89369   0.00000  Uiso   1.00
O1405  O     0.72390   0.90280   0.70772   0.00000  Uiso   1.00
O1406  O     0.72537   0.83716   0.66042   0.00000  Uiso   1.00
O1407  O     0.67144   0.88609   0.65582   0.00000  Uiso   1.00
O1408  O     0.74078   0.79958   0.73413   0.00000  Uiso   1.00
O1409  O     0.93360   0.85939   0.71361   0.00000  Uiso   1.00
O1410  O     0.73738   0.85544   0.78213   0.00000  Uiso   1.00
O1411  O     0.92158   0.81892   0.77014   0.00000  Uiso   1.00
O1412  O     0.80426   0.73610   0.73413   0.00000  Uiso   1.00
O1413  O     0.87012   0.92286   0.71361   0.00000  Uiso   1.00
S1414  S     0.88761   0.67808   0.69148   0.00000  Uiso   1.00
S1415  S     0.77454   0.99712   0.81121   0.00000  Uiso   1.00
S1416  S     0.86653   0.88575   0.56182   0.00000  Uiso   1.00
S1417  S     0.75073   0.93981   0.52417   0.00000  Uiso   1.00
S1418  S     0.69684   0.86751   0.68888   0.00000  Uiso   1.00
Zn1419 Zn    0.86005   0.80661   0.78734   0.00000  Uiso   1.00
Zn1420 Zn    0.80046   0.79124   0.71876   0.00000  Uiso   1.00
Zn1421 Zn    0.87723   0.86442   0.70657   0.00000  Uiso   1.00
Zn1422 Zn    0.79560   0.87106   0.78734   0.00000  Uiso   1.00
loop_
_geom_bond_atom_site_label_1
_geom_bond_atom_site_label_2
_geom_bond_distance
_geom_bond_site_symmetry_2
_ccdc_geom_bond_type
C1     O65     1.266   .     A
C1     C7      1.439   .     S
C1     O67     1.262   .     A
C2     C16     1.400   .     A
C2     C21     1.425   .     A
C2     S73     1.785   .     S
C3     H25     1.084   .     S
C3     C15     1.400   .     A
C3     C16     1.395   .     A
C4     C6      1.465   .     S
C4     O68     1.280   .     A
C4     O66     1.282   .     A
C5     C20     1.425   .     A
C5     C17     1.421   .     A
C5     C14     1.495   .     S
C6     C86     1.355   .     S
C6     S154    1.789   .     S
C7     C164    1.355   1_455 S
C7     O200    1.385   1_455 S
C8     C11     1.462   .     S
C8     C246    1.363   .     S
C8     S308    1.795   .     S
C9     C10     1.425   .     S
C9     C482    1.363   1_545 S
C9     S546    1.782   1_545 S
C10    O48     1.268   .     A
C10    O69     1.270   .     A
C11    O70     1.275   .     A
C11    O59     1.266   .     A
C12    C17     1.418   .     A
C12    C729    1.402   .     S
C12    S785    1.782   .     S
C13    O40     1.285   .     A
C13    O38     1.277   .     A
C13    C16     1.465   .     S
C14    O39     1.289   .     A
C14    O41     1.293   .     A
C15    O51     1.383   .     S
C15    C733    1.418   1_554 S
C17    O55     1.381   .     S
C18    O56     1.381   .     S
C18    C723    1.402   1_554 S
C18    C730    1.418   1_554 S
C19    C20     1.407   .     A
C19    C729    1.418   .     S
C19    C732    1.419   .     S
C20    C24     1.418   .     A
C21    C730    1.419   1_554 S
C21    C733    1.425   1_554 S
C22    C23     1.415   .     A
C22    C732    1.425   .     S
C22    C726    1.418   .     S
C23    C24     1.418   .     A
C23    O50     1.381   .     S
C24    O61     1.380   .     S
H26    O60     0.990   .     S
H27    O61     0.991   .     S
H28    O64     0.990   .     S
H29    O42     0.993   .     S
H30    O45     0.991   .     S
H31    O49     0.991   .     S
H32    O50     0.990   .     S
H33    O51     0.992   .     S
H34    O54     0.991   .     S
H35    O55     0.988   .     S
H36    O56     0.990   .     S
O37    Zn79    1.931   .     S
O37    Zn77    1.940   .     S
O37    Zn76    1.959   .     S
O37    Zn78    1.936   .     S
O38    Zn77    1.910   .     S
O39    Zn79    1.919   .     S
O40    Zn78    1.913   .     S
O41    Zn76    1.905   .     S
O42    C86     1.385   .     S
O43    S71     1.503   .     D
O44    S71     1.504   .     D
O45    S308    1.683   .     S
O46    S72     1.504   .     D
O47    S72     1.504   .     D
O48    Zn76    1.941   .     S
O49    S546    1.683   1_545 S
O52    S73     1.503   .     D
O53    S73     1.503   .     D
O54    S73     1.682   .     S
O57    S74     1.503   .     D
O58    S74     1.503   .     D
O59    Zn79    1.945   .     S
O60    S785    1.680   .     S
O62    S75     1.503   .     D
O63    S75     1.503   .     D
O64    S75     1.682   .     S
O65    Zn77    1.934   .     S
O66    Zn78    1.943   .     S
O67    Zn79    1.938   .     S
O68    Zn76    1.931   .     S
O69    Zn77    1.950   .     S
O70    Zn78    1.943   .     S
S71    O519    1.683   1_545 S
S71    C482    1.795   1_545 S
S72    O286    1.683   .     S
S72    C246    1.782   .     S
S74    O771    1.680   1_554 S
S74    C723    1.782   1_554 S
S75    C164    1.789   1_455 S
C80    O144    1.266   .     A
C80    C86     1.439   .     S
C80    O146    1.262   .     A
C81    C95     1.400   .     A
C81    C100    1.425   .     A
C81    S152    1.785   .     S
C82    H104    1.084   .     S
C82    C94     1.400   .     A
C82    C95     1.395   .     A
C83    C85     1.465   .     S
C83    O147    1.280   .     A
C83    O145    1.282   .     A
C84    C99     1.425   .     A
C84    C96     1.421   .     A
C84    C93     1.495   .     S
C85    C165    1.355   .     S
C85    S233    1.789   .     S
C87    C90     1.462   .     S
C87    C325    1.363   .     S
C87    S387    1.795   .     S
C88    C89     1.425   .     S
C88    C561    1.363   1_545 S
C88    S625    1.782   1_545 S
C89    O127    1.268   .     A
C89    O148    1.270   .     A
C90    O149    1.275   .     A
C90    O138    1.266   .     A
C91    C96     1.418   .     A
C91    C808    1.402   .     S
C91    S864    1.782   .     S
C92    O119    1.285   .     A
C92    O117    1.277   .     A
C92    C95     1.465   .     S
C93    O118    1.289   .     A
C93    O120    1.293   .     A
C94    O130    1.383   .     S
C94    C812    1.418   1_554 S
C96    O134    1.381   .     S
C97    O135    1.381   .     S
C97    C802    1.402   1_554 S
C97    C809    1.418   1_554 S
C98    C99     1.407   .     A
C98    C808    1.418   .     S
C98    C811    1.419   .     S
C99    C103    1.418   .     A
C100   C809    1.419   1_554 S
C100   C812    1.425   1_554 S
C101   C102    1.415   .     A
C101   C811    1.425   .     S
C101   C805    1.418   .     S
C102   C103    1.418   .     A
C102   O129    1.381   .     S
C103   O140    1.380   .     S
H105   O139    0.990   .     S
H106   O140    0.991   .     S
H107   O143    0.990   .     S
H108   O121    0.993   .     S
H109   O124    0.991   .     S
H110   O128    0.991   .     S
H111   O129    0.990   .     S
H112   O130    0.992   .     S
H113   O133    0.991   .     S
H114   O134    0.988   .     S
H115   O135    0.990   .     S
O116   Zn158   1.931   .     S
O116   Zn156   1.940   .     S
O116   Zn155   1.959   .     S
O116   Zn157   1.936   .     S
O117   Zn156   1.910   .     S
O118   Zn158   1.919   .     S
O119   Zn157   1.913   .     S
O120   Zn155   1.905   .     S
O121   C165    1.385   .     S
O122   S150    1.503   .     D
O123   S150    1.504   .     D
O124   S387    1.683   .     S
O125   S151    1.504   .     D
O126   S151    1.504   .     D
O127   Zn155   1.941   .     S
O128   S625    1.683   1_545 S
O131   S152    1.503   .     D
O132   S152    1.503   .     D
O133   S152    1.682   .     S
O136   S153    1.503   .     D
O137   S153    1.503   .     D
O138   Zn158   1.945   .     S
O139   S864    1.680   .     S
O141   S154    1.503   .     D
O142   S154    1.503   .     D
O143   S154    1.682   .     S
O144   Zn156   1.934   .     S
O145   Zn157   1.943   .     S
O146   Zn158   1.938   .     S
O147   Zn155   1.931   .     S
O148   Zn156   1.950   .     S
O149   Zn157   1.943   .     S
S150   O598    1.683   1_545 S
S150   C561    1.795   1_545 S
S151   O365    1.683   .     S
S151   C325    1.782   .     S
S153   O850    1.680   1_554 S
S153   C802    1.782   1_554 S
C159   O223    1.266   .     A
C159   C165    1.439   .     S
C159   O225    1.262   .     A
C160   C174    1.400   .     A
C160   C179    1.425   .     A
C160   S231    1.785   .     S
C161   H183    1.084   .     S
C161   C173    1.400   .     A
C161   C174    1.395   .     A
C162   C164    1.465   .     S
C162   O226    1.280   .     A
C162   O224    1.282   .     A
C163   C178    1.425   .     A
C163   C175    1.421   .     A
C163   C172    1.495   .     S
C164   C7      1.355   1_655 S
C164   S75     1.789   1_655 S
C166   C169    1.462   .     S
C166   C404    1.363   .     S
C166   S466    1.795   .     S
C167   C168    1.425   .     S
C167   C640    1.363   1_545 S
C167   S704    1.782   1_545 S
C168   O206    1.268   .     A
C168   O227    1.270   .     A
C169   O228    1.275   .     A
C169   O217    1.266   .     A
C170   C175    1.418   .     A
C170   C887    1.402   .     S
C170   S943    1.782   .     S
C171   O198    1.285   .     A
C171   O196    1.277   .     A
C171   C174    1.465   .     S
C172   O197    1.289   .     A
C172   O199    1.293   .     A
C173   O209    1.383   .     S
C173   C891    1.418   1_554 S
C175   O213    1.381   .     S
C176   O214    1.381   .     S
C176   C881    1.402   1_554 S
C176   C888    1.418   1_554 S
C177   C178    1.407   .     A
C177   C887    1.418   .     S
C177   C890    1.419   .     S
C178   C182    1.418   .     A
C179   C888    1.419   1_554 S
C179   C891    1.425   1_554 S
C180   C181    1.415   .     A
C180   C890    1.425   .     S
C180   C884    1.418   .     S
C181   C182    1.418   .     A
C181   O208    1.381   .     S
C182   O219    1.380   .     S
H184   O218    0.990   .     S
H185   O219    0.991   .     S
H186   O222    0.990   .     S
H187   O200    0.993   .     S
H188   O203    0.991   .     S
H189   O207    0.991   .     S
H190   O208    0.990   .     S
H191   O209    0.992   .     S
H192   O212    0.991   .     S
H193   O213    0.988   .     S
H194   O214    0.990   .     S
O195   Zn237   1.931   .     S
O195   Zn235   1.940   .     S
O195   Zn234   1.959   .     S
O195   Zn236   1.936   .     S
O196   Zn235   1.910   .     S
O197   Zn237   1.919   .     S
O198   Zn236   1.913   .     S
O199   Zn234   1.905   .     S
O200   C7      1.385   1_655 S
O201   S229    1.503   .     D
O202   S229    1.504   .     D
O203   S466    1.683   .     S
O204   S230    1.504   .     D
O205   S230    1.504   .     D
O206   Zn234   1.941   .     S
O207   S704    1.683   1_545 S
O210   S231    1.503   .     D
O211   S231    1.503   .     D
O212   S231    1.682   .     S
O215   S232    1.503   .     D
O216   S232    1.503   .     D
O217   Zn237   1.945   .     S
O218   S943    1.680   .     S
O220   S233    1.503   .     D
O221   S233    1.503   .     D
O222   S233    1.682   .     S
O223   Zn235   1.934   .     S
O224   Zn236   1.943   .     S
O225   Zn237   1.938   .     S
O226   Zn234   1.931   .     S
O227   Zn235   1.950   .     S
O228   Zn236   1.943   .     S
S229   O677    1.683   1_545 S
S229   C640    1.795   1_545 S
S230   O444    1.683   .     S
S230   C404    1.782   .     S
S232   O929    1.680   1_554 S
S232   C881    1.782   1_554 S
C238   O302    1.266   .     A
C238   C244    1.439   .     S
C238   O304    1.262   .     A
C239   C253    1.400   .     A
C239   C258    1.425   .     A
C239   S310    1.785   .     S
C240   H262    1.084   .     S
C240   C252    1.400   .     A
C240   C253    1.395   .     A
C241   C243    1.465   .     S
C241   O305    1.280   .     A
C241   O303    1.282   .     A
C242   C257    1.425   .     A
C242   C254    1.421   .     A
C242   C251    1.495   .     S
C243   C323    1.355   .     S
C243   S391    1.789   .     S
C244   C401    1.355   1_455 S
C244   O437    1.385   1_455 S
C245   C248    1.462   .     S
C245   C483    1.363   .     S
C245   S545    1.795   .     S
C246   C247    1.425   .     S
C247   O285    1.268   .     A
C247   O306    1.270   .     A
C248   O307    1.275   .     A
C248   O296    1.266   .     A
C249   C254    1.418   .     A
C249   C966    1.402   .     S
C249   S1022   1.782   .     S
C250   O277    1.285   .     A
C250   O275    1.277   .     A
C250   C253    1.465   .     S
C251   O276    1.289   .     A
C251   O278    1.293   .     A
C252   O288    1.383   .     S
C252   C970    1.418   1_554 S
C254   O292    1.381   .     S
C255   O293    1.381   .     S
C255   C960    1.402   1_554 S
C255   C967    1.418   1_554 S
C256   C257    1.407   .     A
C256   C966    1.418   .     S
C256   C969    1.419   .     S
C257   C261    1.418   .     A
C258   C967    1.419   1_554 S
C258   C970    1.425   1_554 S
C259   C260    1.415   .     A
C259   C969    1.425   .     S
C259   C963    1.418   .     S
C260   C261    1.418   .     A
C260   O287    1.381   .     S
C261   O298    1.380   .     S
H263   O297    0.990   .     S
H264   O298    0.991   .     S
H265   O301    0.990   .     S
H266   O279    0.993   .     S
H267   O282    0.991   .     S
H268   O286    0.991   .     S
H269   O287    0.990   .     S
H270   O288    0.992   .     S
H271   O291    0.991   .     S
H272   O292    0.988   .     S
H273   O293    0.990   .     S
O274   Zn316   1.931   .     S
O274   Zn314   1.940   .     S
O274   Zn313   1.959   .     S
O274   Zn315   1.936   .     S
O275   Zn314   1.910   .     S
O276   Zn316   1.919   .     S
O277   Zn315   1.913   .     S
O278   Zn313   1.905   .     S
O279   C323    1.385   .     S
O280   S308    1.503   .     D
O281   S308    1.504   .     D
O282   S545    1.683   .     S
O283   S309    1.504   .     D
O284   S309    1.504   .     D
O285   Zn313   1.941   .     S
O289   S310    1.503   .     D
O290   S310    1.503   .     D
O291   S310    1.682   .     S
O294   S311    1.503   .     D
O295   S311    1.503   .     D
O296   Zn316   1.945   .     S
O297   S1022   1.680   .     S
O299   S312    1.503   .     D
O300   S312    1.503   .     D
O301   S312    1.682   .     S
O302   Zn314   1.934   .     S
O303   Zn315   1.943   .     S
O304   Zn316   1.938   .     S
O305   Zn313   1.931   .     S
O306   Zn314   1.950   .     S
O307   Zn315   1.943   .     S
S309   O523    1.683   .     S
S309   C483    1.782   .     S
S311   O1008   1.680   1_554 S
S311   C960    1.782   1_554 S
S312   C401    1.789   1_455 S
C317   O381    1.266   .     A
C317   C323    1.439   .     S
C317   O383    1.262   .     A
C318   C332    1.400   .     A
C318   C337    1.425   .     A
C318   S389    1.785   .     S
C319   H341    1.084   .     S
C319   C331    1.400   .     A
C319   C332    1.395   .     A
C320   C322    1.465   .     S
C320   O384    1.280   .     A
C320   O382    1.282   .     A
C321   C336    1.425   .     A
C321   C333    1.421   .     A
C321   C330    1.495   .     S
C322   C402    1.355   .     S
C322   S470    1.789   .     S
C324   C327    1.462   .     S
C324   C562    1.363   .     S
C324   S624    1.795   .     S
C325   C326    1.425   .     S
C326   O364    1.268   .     A
C326   O385    1.270   .     A
C327   O386    1.275   .     A
C327   O375    1.266   .     A
C328   C333    1.418   .     A
C328   C1045   1.402   .     S
C328   S1101   1.782   .     S
C329   O356    1.285   .     A
C329   O354    1.277   .     A
C329   C332    1.465   .     S
C330   O355    1.289   .     A
C330   O357    1.293   .     A
C331   O367    1.383   .     S
C331   C1049   1.418   1_554 S
C333   O371    1.381   .     S
C334   O372    1.381   .     S
C334   C1039   1.402   1_554 S
C334   C1046   1.418   1_554 S
C335   C336    1.407   .     A
C335   C1045   1.418   .     S
C335   C1048   1.419   .     S
C336   C340    1.418   .     A
C337   C1046   1.419   1_554 S
C337   C1049   1.425   1_554 S
C338   C339    1.415   .     A
C338   C1048   1.425   .     S
C338   C1042   1.418   .     S
C339   C340    1.418   .     A
C339   O366    1.381   .     S
C340   O377    1.380   .     S
H342   O376    0.990   .     S
H343   O377    0.991   .     S
H344   O380    0.990   .     S
H345   O358    0.993   .     S
H346   O361    0.991   .     S
H347   O365    0.991   .     S
H348   O366    0.990   .     S
H349   O367    0.992   .     S
H350   O370    0.991   .     S
H351   O371    0.988   .     S
H352   O372    0.990   .     S
O353   Zn395   1.931   .     S
O353   Zn393   1.940   .     S
O353   Zn392   1.959   .     S
O353   Zn394   1.936   .     S
O354   Zn393   1.910   .     S
O355   Zn395   1.919   .     S
O356   Zn394   1.913   .     S
O357   Zn392   1.905   .     S
O358   C402    1.385   .     S
O359   S387    1.503   .     D
O360   S387    1.504   .     D
O361   S624    1.683   .     S
O362   S388    1.504   .     D
O363   S388    1.504   .     D
O364   Zn392   1.941   .     S
O368   S389    1.503   .     D
O369   S389    1.503   .     D
O370   S389    1.682   .     S
O373   S390    1.503   .     D
O374   S390    1.503   .     D
O375   Zn395   1.945   .     S
O376   S1101   1.680   .     S
O378   S391    1.503   .     D
O379   S391    1.503   .     D
O380   S391    1.682   .     S
O381   Zn393   1.934   .     S
O382   Zn394   1.943   .     S
O383   Zn395   1.938   .     S
O384   Zn392   1.931   .     S
O385   Zn393   1.950   .     S
O386   Zn394   1.943   .     S
S388   O602    1.683   .     S
S388   C562    1.782   .     S
S390   O1087   1.680   1_554 S
S390   C1039   1.782   1_554 S
C396   O460    1.266   .     A
C396   C402    1.439   .     S
C396   O462    1.262   .     A
C397   C411    1.400   .     A
C397   C416    1.425   .     A
C397   S468    1.785   .     S
C398   H420    1.084   .     S
C398   C410    1.400   .     A
C398   C411    1.395   .     A
C399   C401    1.465   .     S
C399   O463    1.280   .     A
C399   O461    1.282   .     A
C400   C415    1.425   .     A
C400   C412    1.421   .     A
C400   C409    1.495   .     S
C401   C244    1.355   1_655 S
C401   S312    1.789   1_655 S
C403   C406    1.462   .     S
C403   C641    1.363   .     S
C403   S703    1.795   .     S
C404   C405    1.425   .     S
C405   O443    1.268   .     A
C405   O464    1.270   .     A
C406   O465    1.275   .     A
C406   O454    1.266   .     A
C407   C412    1.418   .     A
C407   C1124   1.402   .     S
C407   S1180   1.782   .     S
C408   O435    1.285   .     A
C408   O433    1.277   .     A
C408   C411    1.465   .     S
C409   O434    1.289   .     A
C409   O436    1.293   .     A
C410   O446    1.383   .     S
C410   C1128   1.418   1_554 S
C412   O450    1.381   .     S
C413   O451    1.381   .     S
C413   C1118   1.402   1_554 S
C413   C1125   1.418   1_554 S
C414   C415    1.407   .     A
C414   C1124   1.418   .     S
C414   C1127   1.419   .     S
C415   C419    1.418   .     A
C416   C1125   1.419   1_554 S
C416   C1128   1.425   1_554 S
C417   C418    1.415   .     A
C417   C1127   1.425   .     S
C417   C1121   1.418   .     S
C418   C419    1.418   .     A
C418   O445    1.381   .     S
C419   O456    1.380   .     S
H421   O455    0.990   .     S
H422   O456    0.991   .     S
H423   O459    0.990   .     S
H424   O437    0.993   .     S
H425   O440    0.991   .     S
H426   O444    0.991   .     S
H427   O445    0.990   .     S
H428   O446    0.992   .     S
H429   O449    0.991   .     S
H430   O450    0.988   .     S
H431   O451    0.990   .     S
O432   Zn474   1.931   .     S
O432   Zn472   1.940   .     S
O432   Zn471   1.959   .     S
O432   Zn473   1.936   .     S
O433   Zn472   1.910   .     S
O434   Zn474   1.919   .     S
O435   Zn473   1.913   .     S
O436   Zn471   1.905   .     S
O437   C244    1.385   1_655 S
O438   S466    1.503   .     D
O439   S466    1.504   .     D
O440   S703    1.683   .     S
O441   S467    1.504   .     D
O442   S467    1.504   .     D
O443   Zn471   1.941   .     S
O447   S468    1.503   .     D
O448   S468    1.503   .     D
O449   S468    1.682   .     S
O452   S469    1.503   .     D
O453   S469    1.503   .     D
O454   Zn474   1.945   .     S
O455   S1180   1.680   .     S
O457   S470    1.503   .     D
O458   S470    1.503   .     D
O459   S470    1.682   .     S
O460   Zn472   1.934   .     S
O461   Zn473   1.943   .     S
O462   Zn474   1.938   .     S
O463   Zn471   1.931   .     S
O464   Zn472   1.950   .     S
O465   Zn473   1.943   .     S
S467   O681    1.683   .     S
S467   C641    1.782   .     S
S469   O1166   1.680   1_554 S
S469   C1118   1.782   1_554 S
C475   O539    1.266   .     A
C475   C481    1.439   .     S
C475   O541    1.262   .     A
C476   C490    1.400   .     A
C476   C495    1.425   .     A
C476   S547    1.785   .     S
C477   H499    1.084   .     S
C477   C489    1.400   .     A
C477   C490    1.395   .     A
C478   C480    1.465   .     S
C478   O542    1.280   .     A
C478   O540    1.282   .     A
C479   C494    1.425   .     A
C479   C491    1.421   .     A
C479   C488    1.495   .     S
C480   C560    1.355   .     S
C480   S628    1.789   .     S
C481   C638    1.355   1_455 S
C481   O674    1.385   1_455 S
C482   C485    1.462   .     S
C482   C9      1.363   1_565 S
C482   S71     1.795   1_565 S
C483   C484    1.425   .     S
C484   O522    1.268   .     A
C484   O543    1.270   .     A
C485   O544    1.275   .     A
C485   O533    1.266   .     A
C486   C491    1.418   .     A
C486   C1203   1.402   .     S
C486   S1259   1.782   .     S
C487   O514    1.285   .     A
C487   O512    1.277   .     A
C487   C490    1.465   .     S
C488   O513    1.289   .     A
C488   O515    1.293   .     A
C489   O525    1.383   .     S
C489   C1207   1.418   1_554 S
C491   O529    1.381   .     S
C492   O530    1.381   .     S
C492   C1197   1.402   1_554 S
C492   C1204   1.418   1_554 S
C493   C494    1.407   .     A
C493   C1203   1.418   .     S
C493   C1206   1.419   .     S
C494   C498    1.418   .     A
C495   C1204   1.419   1_554 S
C495   C1207   1.425   1_554 S
C496   C497    1.415   .     A
C496   C1206   1.425   .     S
C496   C1200   1.418   .     S
C497   C498    1.418   .     A
C497   O524    1.381   .     S
C498   O535    1.380   .     S
H500   O534    0.990   .     S
H501   O535    0.991   .     S
H502   O538    0.990   .     S
H503   O516    0.993   .     S
H504   O519    0.991   .     S
H505   O523    0.991   .     S
H506   O524    0.990   .     S
H507   O525    0.992   .     S
H508   O528    0.991   .     S
H509   O529    0.988   .     S
H510   O530    0.990   .     S
O511   Zn553   1.931   .     S
O511   Zn551   1.940   .     S
O511   Zn550   1.959   .     S
O511   Zn552   1.936   .     S
O512   Zn551   1.910   .     S
O513   Zn553   1.919   .     S
O514   Zn552   1.913   .     S
O515   Zn550   1.905   .     S
O516   C560    1.385   .     S
O517   S545    1.503   .     D
O518   S545    1.504   .     D
O519   S71     1.683   1_565 S
O520   S546    1.504   .     D
O521   S546    1.504   .     D
O522   Zn550   1.941   .     S
O526   S547    1.503   .     D
O527   S547    1.503   .     D
O528   S547    1.682   .     S
O531   S548    1.503   .     D
O532   S548    1.503   .     D
O533   Zn553   1.945   .     S
O534   S1259   1.680   .     S
O536   S549    1.503   .     D
O537   S549    1.503   .     D
O538   S549    1.682   .     S
O539   Zn551   1.934   .     S
O540   Zn552   1.943   .     S
O541   Zn553   1.938   .     S
O542   Zn550   1.931   .     S
O543   Zn551   1.950   .     S
O544   Zn552   1.943   .     S
S546   O49     1.683   1_565 S
S546   C9      1.782   1_565 S
S548   O1245   1.680   1_554 S
S548   C1197   1.782   1_554 S
S549   C638    1.789   1_455 S
C554   O618    1.266   .     A
C554   C560    1.439   .     S
C554   O620    1.262   .     A
C555   C569    1.400   .     A
C555   C574    1.425   .     A
C555   S626    1.785   .     S
C556   H578    1.084   .     S
C556   C568    1.400   .     A
C556   C569    1.395   .     A
C557   C559    1.465   .     S
C557   O621    1.280   .     A
C557   O619    1.282   .     A
C558   C573    1.425   .     A
C558   C570    1.421   .     A
C558   C567    1.495   .     S
C559   C639    1.355   .     S
C559   S707    1.789   .     S
C561   C564    1.462   .     S
C561   C88     1.363   1_565 S
C561   S150    1.795   1_565 S
C562   C563    1.425   .     S
C563   O601    1.268   .     A
C563   O622    1.270   .     A
C564   O623    1.275   .     A
C564   O612    1.266   .     A
C565   C570    1.418   .     A
C565   C1282   1.402   .     S
C565   S1338   1.782   .     S
C566   O593    1.285   .     A
C566   O591    1.277   .     A
C566   C569    1.465   .     S
C567   O592    1.289   .     A
C567   O594    1.293   .     A
C568   O604    1.383   .     S
C568   C1286   1.418   1_554 S
C570   O608    1.381   .     S
C571   O609    1.381   .     S
C571   C1276   1.402   1_554 S
C571   C1283   1.418   1_554 S
C572   C573    1.407   .     A
C572   C1282   1.418   .     S
C572   C1285   1.419   .     S
C573   C577    1.418   .     A
C574   C1283   1.419   1_554 S
C574   C1286   1.425   1_554 S
C575   C576    1.415   .     A
C575   C1285   1.425   .     S
C575   C1279   1.418   .     S
C576   C577    1.418   .     A
C576   O603    1.381   .     S
C577   O614    1.380   .     S
H579   O613    0.990   .     S
H580   O614    0.991   .     S
H581   O617    0.990   .     S
H582   O595    0.993   .     S
H583   O598    0.991   .     S
H584   O602    0.991   .     S
H585   O603    0.990   .     S
H586   O604    0.992   .     S
H587   O607    0.991   .     S
H588   O608    0.988   .     S
H589   O609    0.990   .     S
O590   Zn632   1.931   .     S
O590   Zn630   1.940   .     S
O590   Zn629   1.959   .     S
O590   Zn631   1.936   .     S
O591   Zn630   1.910   .     S
O592   Zn632   1.919   .     S
O593   Zn631   1.913   .     S
O594   Zn629   1.905   .     S
O595   C639    1.385   .     S
O596   S624    1.503   .     D
O597   S624    1.504   .     D
O598   S150    1.683   1_565 S
O599   S625    1.504   .     D
O600   S625    1.504   .     D
O601   Zn629   1.941   .     S
O605   S626    1.503   .     D
O606   S626    1.503   .     D
O607   S626    1.682   .     S
O610   S627    1.503   .     D
O611   S627    1.503   .     D
O612   Zn632   1.945   .     S
O613   S1338   1.680   .     S
O615   S628    1.503   .     D
O616   S628    1.503   .     D
O617   S628    1.682   .     S
O618   Zn630   1.934   .     S
O619   Zn631   1.943   .     S
O620   Zn632   1.938   .     S
O621   Zn629   1.931   .     S
O622   Zn630   1.950   .     S
O623   Zn631   1.943   .     S
S625   O128    1.683   1_565 S
S625   C88     1.782   1_565 S
S627   O1324   1.680   1_554 S
S627   C1276   1.782   1_554 S
C633   O697    1.266   .     A
C633   C639    1.439   .     S
C633   O699    1.262   .     A
C634   C648    1.400   .     A
C634   C653    1.425   .     A
C634   S705    1.785   .     S
C635   H657    1.084   .     S
C635   C647    1.400   .     A
C635   C648    1.395   .     A
C636   C638    1.465   .     S
C636   O700    1.280   .     A
C636   O698    1.282   .     A
C637   C652    1.425   .     A
C637   C649    1.421   .     A
C637   C646    1.495   .     S
C638   C481    1.355   1_655 S
C638   S549    1.789   1_655 S
C640   C643    1.462   .     S
C640   C167    1.363   1_565 S
C640   S229    1.795   1_565 S
C641   C642    1.425   .     S
C642   O680    1.268   .     A
C642   O701    1.270   .     A
C643   O702    1.275   .     A
C643   O691    1.266   .     A
C644   C649    1.418   .     A
C644   C1361   1.402   .     S
C644   S1417   1.782   .     S
C645   O672    1.285   .     A
C645   O670    1.277   .     A
C645   C648    1.465   .     S
C646   O671    1.289   .     A
C646   O673    1.293   .     A
C647   O683    1.383   .     S
C647   C1365   1.418   1_554 S
C649   O687    1.381   .     S
C650   O688    1.381   .     S
C650   C1355   1.402   1_554 S
C650   C1362   1.418   1_554 S
C651   C652    1.407   .     A
C651   C1361   1.418   .     S
C651   C1364   1.419   .     S
C652   C656    1.418   .     A
C653   C1362   1.419   1_554 S
C653   C1365   1.425   1_554 S
C654   C655    1.415   .     A
C654   C1364   1.425   .     S
C654   C1358   1.418   .     S
C655   C656    1.418   .     A
C655   O682    1.381   .     S
C656   O693    1.380   .     S
H658   O692    0.990   .     S
H659   O693    0.991   .     S
H660   O696    0.990   .     S
H661   O674    0.993   .     S
H662   O677    0.991   .     S
H663   O681    0.991   .     S
H664   O682    0.990   .     S
H665   O683    0.992   .     S
H666   O686    0.991   .     S
H667   O687    0.988   .     S
H668   O688    0.990   .     S
O669   Zn711   1.931   .     S
O669   Zn709   1.940   .     S
O669   Zn708   1.959   .     S
O669   Zn710   1.936   .     S
O670   Zn709   1.910   .     S
O671   Zn711   1.919   .     S
O672   Zn710   1.913   .     S
O673   Zn708   1.905   .     S
O674   C481    1.385   1_655 S
O675   S703    1.503   .     D
O676   S703    1.504   .     D
O677   S229    1.683   1_565 S
O678   S704    1.504   .     D
O679   S704    1.504   .     D
O680   Zn708   1.941   .     S
O684   S705    1.503   .     D
O685   S705    1.503   .     D
O686   S705    1.682   .     S
O689   S706    1.503   .     D
O690   S706    1.503   .     D
O691   Zn711   1.945   .     S
O692   S1417   1.680   .     S
O694   S707    1.503   .     D
O695   S707    1.503   .     D
O696   S707    1.682   .     S
O697   Zn709   1.934   .     S
O698   Zn710   1.943   .     S
O699   Zn711   1.938   .     S
O700   Zn708   1.931   .     S
O701   Zn709   1.950   .     S
O702   Zn710   1.943   .     S
S704   O207    1.683   1_565 S
S704   C167    1.782   1_565 S
S706   O1403   1.680   1_554 S
S706   C1355   1.782   1_554 S
C712   O776    1.266   .     A
C712   C718    1.439   .     S
C712   O778    1.262   .     A
C713   C727    1.400   .     A
C713   C732    1.425   .     A
C713   S784    1.785   .     S
C714   H736    1.084   .     S
C714   C726    1.400   .     A
C714   C727    1.395   .     A
C715   C717    1.465   .     S
C715   O779    1.280   .     A
C715   O777    1.282   .     A
C716   C731    1.425   .     A
C716   C728    1.421   .     A
C716   C725    1.495   .     S
C717   C797    1.355   .     S
C717   S865    1.789   .     S
C718   C875    1.355   1_455 S
C718   O911    1.385   1_455 S
C719   C722    1.462   .     S
C719   C957    1.363   .     S
C719   S1019   1.795   .     S
C720   C721    1.425   .     S
C720   C1193   1.363   1_545 S
C720   S1257   1.782   1_545 S
C721   O759    1.268   .     A
C721   O780    1.270   .     A
C722   O781    1.275   .     A
C722   O770    1.266   .     A
C723   C728    1.418   .     A
C723   C18     1.402   1_556 S
C723   S74     1.782   1_556 S
C724   O751    1.285   .     A
C724   O749    1.277   .     A
C724   C727    1.465   .     S
C725   O750    1.289   .     A
C725   O752    1.293   .     A
C726   O762    1.383   .     S
C728   O766    1.381   .     S
C729   O767    1.381   .     S
C730   C731    1.407   .     A
C730   C18     1.418   1_556 S
C730   C21     1.419   1_556 S
C731   C735    1.418   .     A
C733   C734    1.415   .     A
C733   C21     1.425   1_556 S
C733   C15     1.418   1_556 S
C734   C735    1.418   .     A
C734   O761    1.381   .     S
C735   O772    1.380   .     S
H737   O771    0.990   .     S
H738   O772    0.991   .     S
H739   O775    0.990   .     S
H740   O753    0.993   .     S
H741   O756    0.991   .     S
H742   O760    0.991   .     S
H743   O761    0.990   .     S
H744   O762    0.992   .     S
H745   O765    0.991   .     S
H746   O766    0.988   .     S
H747   O767    0.990   .     S
O748   Zn790   1.931   .     S
O748   Zn788   1.940   .     S
O748   Zn787   1.959   .     S
O748   Zn789   1.936   .     S
O749   Zn788   1.910   .     S
O750   Zn790   1.919   .     S
O751   Zn789   1.913   .     S
O752   Zn787   1.905   .     S
O753   C797    1.385   .     S
O754   S782    1.503   .     D
O755   S782    1.504   .     D
O756   S1019   1.683   .     S
O757   S783    1.504   .     D
O758   S783    1.504   .     D
O759   Zn787   1.941   .     S
O760   S1257   1.683   1_545 S
O763   S784    1.503   .     D
O764   S784    1.503   .     D
O765   S784    1.682   .     S
O768   S785    1.503   .     D
O769   S785    1.503   .     D
O770   Zn790   1.945   .     S
O771   S74     1.680   1_556 S
O773   S786    1.503   .     D
O774   S786    1.503   .     D
O775   S786    1.682   .     S
O776   Zn788   1.934   .     S
O777   Zn789   1.943   .     S
O778   Zn790   1.938   .     S
O779   Zn787   1.931   .     S
O780   Zn788   1.950   .     S
O781   Zn789   1.943   .     S
S782   O1230   1.683   1_545 S
S782   C1193   1.795   1_545 S
S783   O997    1.683   .     S
S783   C957    1.782   .     S
S786   C875    1.789   1_455 S
C791   O855    1.266   .     A
C791   C797    1.439   .     S
C791   O857    1.262   .     A
C792   C806    1.400   .     A
C792   C811    1.425   .     A
C792   S863    1.785   .     S
C793   H815    1.084   .     S
C793   C805    1.400   .     A
C793   C806    1.395   .     A
C794   C796    1.465   .     S
C794   O858    1.280   .     A
C794   O856    1.282   .     A
C795   C810    1.425   .     A
C795   C807    1.421   .     A
C795   C804    1.495   .     S
C796   C876    1.355   .     S
C796   S944    1.789   .     S
C798   C801    1.462   .     S
C798   C1036   1.363   .     S
C798   S1098   1.795   .     S
C799   C800    1.425   .     S
C799   C1272   1.363   1_545 S
C799   S1336   1.782   1_545 S
C800   O838    1.268   .     A
C800   O859    1.270   .     A
C801   O860    1.275   .     A
C801   O849    1.266   .     A
C802   C807    1.418   .     A
C802   C97     1.402   1_556 S
C802   S153    1.782   1_556 S
C803   O830    1.285   .     A
C803   O828    1.277   .     A
C803   C806    1.465   .     S
C804   O829    1.289   .     A
C804   O831    1.293   .     A
C805   O841    1.383   .     S
C807   O845    1.381   .     S
C808   O846    1.381   .     S
C809   C810    1.407   .     A
C809   C97     1.418   1_556 S
C809   C100    1.419   1_556 S
C810   C814    1.418   .     A
C812   C813    1.415   .     A
C812   C100    1.425   1_556 S
C812   C94     1.418   1_556 S
C813   C814    1.418   .     A
C813   O840    1.381   .     S
C814   O851    1.380   .     S
H816   O850    0.990   .     S
H817   O851    0.991   .     S
H818   O854    0.990   .     S
H819   O832    0.993   .     S
H820   O835    0.991   .     S
H821   O839    0.991   .     S
H822   O840    0.990   .     S
H823   O841    0.992   .     S
H824   O844    0.991   .     S
H825   O845    0.988   .     S
H826   O846    0.990   .     S
O827   Zn869   1.931   .     S
O827   Zn867   1.940   .     S
O827   Zn866   1.959   .     S
O827   Zn868   1.936   .     S
O828   Zn867   1.910   .     S
O829   Zn869   1.919   .     S
O830   Zn868   1.913   .     S
O831   Zn866   1.905   .     S
O832   C876    1.385   .     S
O833   S861    1.503   .     D
O834   S861    1.504   .     D
O835   S1098   1.683   .     S
O836   S862    1.504   .     D
O837   S862    1.504   .     D
O838   Zn866   1.941   .     S
O839   S1336   1.683   1_545 S
O842   S863    1.503   .     D
O843   S863    1.503   .     D
O844   S863    1.682   .     S
O847   S864    1.503   .     D
O848   S864    1.503   .     D
O849   Zn869   1.945   .     S
O850   S153    1.680   1_556 S
O852   S865    1.503   .     D
O853   S865    1.503   .     D
O854   S865    1.682   .     S
O855   Zn867   1.934   .     S
O856   Zn868   1.943   .     S
O857   Zn869   1.938   .     S
O858   Zn866   1.931   .     S
O859   Zn867   1.950   .     S
O860   Zn868   1.943   .     S
S861   O1309   1.683   1_545 S
S861   C1272   1.795   1_545 S
S862   O1076   1.683   .     S
S862   C1036   1.782   .     S
C870   O934    1.266   .     A
C870   C876    1.439   .     S
C870   O936    1.262   .     A
C871   C885    1.400   .     A
C871   C890    1.425   .     A
C871   S942    1.785   .     S
C872   H894    1.084   .     S
C872   C884    1.400   .     A
C872   C885    1.395   .     A
C873   C875    1.465   .     S
C873   O937    1.280   .     A
C873   O935    1.282   .     A
C874   C889    1.425   .     A
C874   C886    1.421   .     A
C874   C883    1.495   .     S
C875   C718    1.355   1_655 S
C875   S786    1.789   1_655 S
C877   C880    1.462   .     S
C877   C1115   1.363   .     S
C877   S1177   1.795   .     S
C878   C879    1.425   .     S
C878   C1351   1.363   1_545 S
C878   S1415   1.782   1_545 S
C879   O917    1.268   .     A
C879   O938    1.270   .     A
C880   O939    1.275   .     A
C880   O928    1.266   .     A
C881   C886    1.418   .     A
C881   C176    1.402   1_556 S
C881   S232    1.782   1_556 S
C882   O909    1.285   .     A
C882   O907    1.277   .     A
C882   C885    1.465   .     S
C883   O908    1.289   .     A
C883   O910    1.293   .     A
C884   O920    1.383   .     S
C886   O924    1.381   .     S
C887   O925    1.381   .     S
C888   C889    1.407   .     A
C888   C176    1.418   1_556 S
C888   C179    1.419   1_556 S
C889   C893    1.418   .     A
C891   C892    1.415   .     A
C891   C179    1.425   1_556 S
C891   C173    1.418   1_556 S
C892   C893    1.418   .     A
C892   O919    1.381   .     S
C893   O930    1.380   .     S
H895   O929    0.990   .     S
H896   O930    0.991   .     S
H897   O933    0.990   .     S
H898   O911    0.993   .     S
H899   O914    0.991   .     S
H900   O918    0.991   .     S
H901   O919    0.990   .     S
H902   O920    0.992   .     S
H903   O923    0.991   .     S
H904   O924    0.988   .     S
H905   O925    0.990   .     S
O906   Zn948   1.931   .     S
O906   Zn946   1.940   .     S
O906   Zn945   1.959   .     S
O906   Zn947   1.936   .     S
O907   Zn946   1.910   .     S
O908   Zn948   1.919   .     S
O909   Zn947   1.913   .     S
O910   Zn945   1.905   .     S
O911   C718    1.385   1_655 S
O912   S940    1.503   .     D
O913   S940    1.504   .     D
O914   S1177   1.683   .     S
O915   S941    1.504   .     D
O916   S941    1.504   .     D
O917   Zn945   1.941   .     S
O918   S1415   1.683   1_545 S
O921   S942    1.503   .     D
O922   S942    1.503   .     D
O923   S942    1.682   .     S
O926   S943    1.503   .     D
O927   S943    1.503   .     D
O928   Zn948   1.945   .     S
O929   S232    1.680   1_556 S
O931   S944    1.503   .     D
O932   S944    1.503   .     D
O933   S944    1.682   .     S
O934   Zn946   1.934   .     S
O935   Zn947   1.943   .     S
O936   Zn948   1.938   .     S
O937   Zn945   1.931   .     S
O938   Zn946   1.950   .     S
O939   Zn947   1.943   .     S
S940   O1388   1.683   1_545 S
S940   C1351   1.795   1_545 S
S941   O1155   1.683   .     S
S941   C1115   1.782   .     S
C949   O1013   1.266   .     A
C949   C955    1.439   .     S
C949   O1015   1.262   .     A
C950   C964    1.400   .     A
C950   C969    1.425   .     A
C950   S1021   1.785   .     S
C951   H973    1.084   .     S
C951   C963    1.400   .     A
C951   C964    1.395   .     A
C952   C954    1.465   .     S
C952   O1016   1.280   .     A
C952   O1014   1.282   .     A
C953   C968    1.425   .     A
C953   C965    1.421   .     A
C953   C962    1.495   .     S
C954   C1034   1.355   .     S
C954   S1102   1.789   .     S
C955   C1112   1.355   1_455 S
C955   O1148   1.385   1_455 S
C956   C959    1.462   .     S
C956   C1194   1.363   .     S
C956   S1256   1.795   .     S
C957   C958    1.425   .     S
C958   O996    1.268   .     A
C958   O1017   1.270   .     A
C959   O1018   1.275   .     A
C959   O1007   1.266   .     A
C960   C965    1.418   .     A
C960   C255    1.402   1_556 S
C960   S311    1.782   1_556 S
C961   O988    1.285   .     A
C961   O986    1.277   .     A
C961   C964    1.465   .     S
C962   O987    1.289   .     A
C962   O989    1.293   .     A
C963   O999    1.383   .     S
C965   O1003   1.381   .     S
C966   O1004   1.381   .     S
C967   C968    1.407   .     A
C967   C255    1.418   1_556 S
C967   C258    1.419   1_556 S
C968   C972    1.418   .     A
C970   C971    1.415   .     A
C970   C258    1.425   1_556 S
C970   C252    1.418   1_556 S
C971   C972    1.418   .     A
C971   O998    1.381   .     S
C972   O1009   1.380   .     S
H974   O1008   0.990   .     S
H975   O1009   0.991   .     S
H976   O1012   0.990   .     S
H977   O990    0.993   .     S
H978   O993    0.991   .     S
H979   O997    0.991   .     S
H980   O998    0.990   .     S
H981   O999    0.992   .     S
H982   O1002   0.991   .     S
H983   O1003   0.988   .     S
H984   O1004   0.990   .     S
O985   Zn1027  1.931   .     S
O985   Zn1025  1.940   .     S
O985   Zn1024  1.959   .     S
O985   Zn1026  1.936   .     S
O986   Zn1025  1.910   .     S
O987   Zn1027  1.919   .     S
O988   Zn1026  1.913   .     S
O989   Zn1024  1.905   .     S
O990   C1034   1.385   .     S
O991   S1019   1.503   .     D
O992   S1019   1.504   .     D
O993   S1256   1.683   .     S
O994   S1020   1.504   .     D
O995   S1020   1.504   .     D
O996   Zn1024  1.941   .     S
O1000  S1021   1.503   .     D
O1001  S1021   1.503   .     D
O1002  S1021   1.682   .     S
O1005  S1022   1.503   .     D
O1006  S1022   1.503   .     D
O1007  Zn1027  1.945   .     S
O1008  S311    1.680   1_556 S
O1010  S1023   1.503   .     D
O1011  S1023   1.503   .     D
O1012  S1023   1.682   .     S
O1013  Zn1025  1.934   .     S
O1014  Zn1026  1.943   .     S
O1015  Zn1027  1.938   .     S
O1016  Zn1024  1.931   .     S
O1017  Zn1025  1.950   .     S
O1018  Zn1026  1.943   .     S
S1020  O1234   1.683   .     S
S1020  C1194   1.782   .     S
S1023  C1112   1.789   1_455 S
C1028  O1092   1.266   .     A
C1028  C1034   1.439   .     S
C1028  O1094   1.262   .     A
C1029  C1043   1.400   .     A
C1029  C1048   1.425   .     A
C1029  S1100   1.785   .     S
C1030  H1052   1.084   .     S
C1030  C1042   1.400   .     A
C1030  C1043   1.395   .     A
C1031  C1033   1.465   .     S
C1031  O1095   1.280   .     A
C1031  O1093   1.282   .     A
C1032  C1047   1.425   .     A
C1032  C1044   1.421   .     A
C1032  C1041   1.495   .     S
C1033  C1113   1.355   .     S
C1033  S1181   1.789   .     S
C1035  C1038   1.462   .     S
C1035  C1273   1.363   .     S
C1035  S1335   1.795   .     S
C1036  C1037   1.425   .     S
C1037  O1075   1.268   .     A
C1037  O1096   1.270   .     A
C1038  O1097   1.275   .     A
C1038  O1086   1.266   .     A
C1039  C1044   1.418   .     A
C1039  C334    1.402   1_556 S
C1039  S390    1.782   1_556 S
C1040  O1067   1.285   .     A
C1040  O1065   1.277   .     A
C1040  C1043   1.465   .     S
C1041  O1066   1.289   .     A
C1041  O1068   1.293   .     A
C1042  O1078   1.383   .     S
C1044  O1082   1.381   .     S
C1045  O1083   1.381   .     S
C1046  C1047   1.407   .     A
C1046  C334    1.418   1_556 S
C1046  C337    1.419   1_556 S
C1047  C1051   1.418   .     A
C1049  C1050   1.415   .     A
C1049  C337    1.425   1_556 S
C1049  C331    1.418   1_556 S
C1050  C1051   1.418   .     A
C1050  O1077   1.381   .     S
C1051  O1088   1.380   .     S
H1053  O1087   0.990   .     S
H1054  O1088   0.991   .     S
H1055  O1091   0.990   .     S
H1056  O1069   0.993   .     S
H1057  O1072   0.991   .     S
H1058  O1076   0.991   .     S
H1059  O1077   0.990   .     S
H1060  O1078   0.992   .     S
H1061  O1081   0.991   .     S
H1062  O1082   0.988   .     S
H1063  O1083   0.990   .     S
O1064  Zn1106  1.931   .     S
O1064  Zn1104  1.940   .     S
O1064  Zn1103  1.959   .     S
O1064  Zn1105  1.936   .     S
O1065  Zn1104  1.910   .     S
O1066  Zn1106  1.919   .     S
O1067  Zn1105  1.913   .     S
O1068  Zn1103  1.905   .     S
O1069  C1113   1.385   .     S
O1070  S1098   1.503   .     D
O1071  S1098   1.504   .     D
O1072  S1335   1.683   .     S
O1073  S1099   1.504   .     D
O1074  S1099   1.504   .     D
O1075  Zn1103  1.941   .     S
O1079  S1100   1.503   .     D
O1080  S1100   1.503   .     D
O1081  S1100   1.682   .     S
O1084  S1101   1.503   .     D
O1085  S1101   1.503   .     D
O1086  Zn1106  1.945   .     S
O1087  S390    1.680   1_556 S
O1089  S1102   1.503   .     D
O1090  S1102   1.503   .     D
O1091  S1102   1.682   .     S
O1092  Zn1104  1.934   .     S
O1093  Zn1105  1.943   .     S
O1094  Zn1106  1.938   .     S
O1095  Zn1103  1.931   .     S
O1096  Zn1104  1.950   .     S
O1097  Zn1105  1.943   .     S
S1099  O1313   1.683   .     S
S1099  C1273   1.782   .     S
C1107  O1171   1.266   .     A
C1107  C1113   1.439   .     S
C1107  O1173   1.262   .     A
C1108  C1122   1.400   .     A
C1108  C1127   1.425   .     A
C1108  S1179   1.785   .     S
C1109  H1131   1.084   .     S
C1109  C1121   1.400   .     A
C1109  C1122   1.395   .     A
C1110  C1112   1.465   .     S
C1110  O1174   1.280   .     A
C1110  O1172   1.282   .     A
C1111  C1126   1.425   .     A
C1111  C1123   1.421   .     A
C1111  C1120   1.495   .     S
C1112  C955    1.355   1_655 S
C1112  S1023   1.789   1_655 S
C1114  C1117   1.462   .     S
C1114  C1352   1.363   .     S
C1114  S1414   1.795   .     S
C1115  C1116   1.425   .     S
C1116  O1154   1.268   .     A
C1116  O1175   1.270   .     A
C1117  O1176   1.275   .     A
C1117  O1165   1.266   .     A
C1118  C1123   1.418   .     A
C1118  C413    1.402   1_556 S
C1118  S469    1.782   1_556 S
C1119  O1146   1.285   .     A
C1119  O1144   1.277   .     A
C1119  C1122   1.465   .     S
C1120  O1145   1.289   .     A
C1120  O1147   1.293   .     A
C1121  O1157   1.383   .     S
C1123  O1161   1.381   .     S
C1124  O1162   1.381   .     S
C1125  C1126   1.407   .     A
C1125  C413    1.418   1_556 S
C1125  C416    1.419   1_556 S
C1126  C1130   1.418   .     A
C1128  C1129   1.415   .     A
C1128  C416    1.425   1_556 S
C1128  C410    1.418   1_556 S
C1129  C1130   1.418   .     A
C1129  O1156   1.381   .     S
C1130  O1167   1.380   .     S
H1132  O1166   0.990   .     S
H1133  O1167   0.991   .     S
H1134  O1170   0.990   .     S
H1135  O1148   0.993   .     S
H1136  O1151   0.991   .     S
H1137  O1155   0.991   .     S
H1138  O1156   0.990   .     S
H1139  O1157   0.992   .     S
H1140  O1160   0.991   .     S
H1141  O1161   0.988   .     S
H1142  O1162   0.990   .     S
O1143  Zn1185  1.931   .     S
O1143  Zn1183  1.940   .     S
O1143  Zn1182  1.959   .     S
O1143  Zn1184  1.936   .     S
O1144  Zn1183  1.910   .     S
O1145  Zn1185  1.919   .     S
O1146  Zn1184  1.913   .     S
O1147  Zn1182  1.905   .     S
O1148  C955    1.385   1_655 S
O1149  S1177   1.503   .     D
O1150  S1177   1.504   .     D
O1151  S1414   1.683   .     S
O1152  S1178   1.504   .     D
O1153  S1178   1.504   .     D
O1154  Zn1182  1.941   .     S
O1158  S1179   1.503   .     D
O1159  S1179   1.503   .     D
O1160  S1179   1.682   .     S
O1163  S1180   1.503   .     D
O1164  S1180   1.503   .     D
O1165  Zn1185  1.945   .     S
O1166  S469    1.680   1_556 S
O1168  S1181   1.503   .     D
O1169  S1181   1.503   .     D
O1170  S1181   1.682   .     S
O1171  Zn1183  1.934   .     S
O1172  Zn1184  1.943   .     S
O1173  Zn1185  1.938   .     S
O1174  Zn1182  1.931   .     S
O1175  Zn1183  1.950   .     S
O1176  Zn1184  1.943   .     S
S1178  O1392   1.683   .     S
S1178  C1352   1.782   .     S
C1186  O1250   1.266   .     A
C1186  C1192   1.439   .     S
C1186  O1252   1.262   .     A
C1187  C1201   1.400   .     A
C1187  C1206   1.425   .     A
C1187  S1258   1.785   .     S
C1188  H1210   1.084   .     S
C1188  C1200   1.400   .     A
C1188  C1201   1.395   .     A
C1189  C1191   1.465   .     S
C1189  O1253   1.280   .     A
C1189  O1251   1.282   .     A
C1190  C1205   1.425   .     A
C1190  C1202   1.421   .     A
C1190  C1199   1.495   .     S
C1191  C1271   1.355   .     S
C1191  S1339   1.789   .     S
C1192  C1349   1.355   1_455 S
C1192  O1385   1.385   1_455 S
C1193  C1196   1.462   .     S
C1193  C720    1.363   1_565 S
C1193  S782    1.795   1_565 S
C1194  C1195   1.425   .     S
C1195  O1233   1.268   .     A
C1195  O1254   1.270   .     A
C1196  O1255   1.275   .     A
C1196  O1244   1.266   .     A
C1197  C1202   1.418   .     A
C1197  C492    1.402   1_556 S
C1197  S548    1.782   1_556 S
C1198  O1225   1.285   .     A
C1198  O1223   1.277   .     A
C1198  C1201   1.465   .     S
C1199  O1224   1.289   .     A
C1199  O1226   1.293   .     A
C1200  O1236   1.383   .     S
C1202  O1240   1.381   .     S
C1203  O1241   1.381   .     S
C1204  C1205   1.407   .     A
C1204  C492    1.418   1_556 S
C1204  C495    1.419   1_556 S
C1205  C1209   1.418   .     A
C1207  C1208   1.415   .     A
C1207  C495    1.425   1_556 S
C1207  C489    1.418   1_556 S
C1208  C1209   1.418   .     A
C1208  O1235   1.381   .     S
C1209  O1246   1.380   .     S
H1211  O1245   0.990   .     S
H1212  O1246   0.991   .     S
H1213  O1249   0.990   .     S
H1214  O1227   0.993   .     S
H1215  O1230   0.991   .     S
H1216  O1234   0.991   .     S
H1217  O1235   0.990   .     S
H1218  O1236   0.992   .     S
H1219  O1239   0.991   .     S
H1220  O1240   0.988   .     S
H1221  O1241   0.990   .     S
O1222  Zn1264  1.931   .     S
O1222  Zn1262  1.940   .     S
O1222  Zn1261  1.959   .     S
O1222  Zn1263  1.936   .     S
O1223  Zn1262  1.910   .     S
O1224  Zn1264  1.919   .     S
O1225  Zn1263  1.913   .     S
O1226  Zn1261  1.905   .     S
O1227  C1271   1.385   .     S
O1228  S1256   1.503   .     D
O1229  S1256   1.504   .     D
O1230  S782    1.683   1_565 S
O1231  S1257   1.504   .     D
O1232  S1257   1.504   .     D
O1233  Zn1261  1.941   .     S
O1237  S1258   1.503   .     D
O1238  S1258   1.503   .     D
O1239  S1258   1.682   .     S
O1242  S1259   1.503   .     D
O1243  S1259   1.503   .     D
O1244  Zn1264  1.945   .     S
O1245  S548    1.680   1_556 S
O1247  S1260   1.503   .     D
O1248  S1260   1.503   .     D
O1249  S1260   1.682   .     S
O1250  Zn1262  1.934   .     S
O1251  Zn1263  1.943   .     S
O1252  Zn1264  1.938   .     S
O1253  Zn1261  1.931   .     S
O1254  Zn1262  1.950   .     S
O1255  Zn1263  1.943   .     S
S1257  O760    1.683   1_565 S
S1257  C720    1.782   1_565 S
S1260  C1349   1.789   1_455 S
C1265  O1329   1.266   .     A
C1265  C1271   1.439   .     S
C1265  O1331   1.262   .     A
C1266  C1280   1.400   .     A
C1266  C1285   1.425   .     A
C1266  S1337   1.785   .     S
C1267  H1289   1.084   .     S
C1267  C1279   1.400   .     A
C1267  C1280   1.395   .     A
C1268  C1270   1.465   .     S
C1268  O1332   1.280   .     A
C1268  O1330   1.282   .     A
C1269  C1284   1.425   .     A
C1269  C1281   1.421   .     A
C1269  C1278   1.495   .     S
C1270  C1350   1.355   .     S
C1270  S1418   1.789   .     S
C1272  C1275   1.462   .     S
C1272  C799    1.363   1_565 S
C1272  S861    1.795   1_565 S
C1273  C1274   1.425   .     S
C1274  O1312   1.268   .     A
C1274  O1333   1.270   .     A
C1275  O1334   1.275   .     A
C1275  O1323   1.266   .     A
C1276  C1281   1.418   .     A
C1276  C571    1.402   1_556 S
C1276  S627    1.782   1_556 S
C1277  O1304   1.285   .     A
C1277  O1302   1.277   .     A
C1277  C1280   1.465   .     S
C1278  O1303   1.289   .     A
C1278  O1305   1.293   .     A
C1279  O1315   1.383   .     S
C1281  O1319   1.381   .     S
C1282  O1320   1.381   .     S
C1283  C1284   1.407   .     A
C1283  C571    1.418   1_556 S
C1283  C574    1.419   1_556 S
C1284  C1288   1.418   .     A
C1286  C1287   1.415   .     A
C1286  C574    1.425   1_556 S
C1286  C568    1.418   1_556 S
C1287  C1288   1.418   .     A
C1287  O1314   1.381   .     S
C1288  O1325   1.380   .     S
H1290  O1324   0.990   .     S
H1291  O1325   0.991   .     S
H1292  O1328   0.990   .     S
H1293  O1306   0.993   .     S
H1294  O1309   0.991   .     S
H1295  O1313   0.991   .     S
H1296  O1314   0.990   .     S
H1297  O1315   0.992   .     S
H1298  O1318   0.991   .     S
H1299  O1319   0.988   .     S
H1300  O1320   0.990   .     S
O1301  Zn1343  1.931   .     S
O1301  Zn1341  1.940   .     S
O1301  Zn1340  1.959   .     S
O1301  Zn1342  1.936   .     S
O1302  Zn1341  1.910   .     S
O1303  Zn1343  1.919   .     S
O1304  Zn1342  1.913   .     S
O1305  Zn1340  1.905   .     S
O1306  C1350   1.385   .     S
O1307  S1335   1.503   .     D
O1308  S1335   1.504   .     D
O1309  S861    1.683   1_565 S
O1310  S1336   1.504   .     D
O1311  S1336   1.504   .     D
O1312  Zn1340  1.941   .     S
O1316  S1337   1.503   .     D
O1317  S1337   1.503   .     D
O1318  S1337   1.682   .     S
O1321  S1338   1.503   .     D
O1322  S1338   1.503   .     D
O1323  Zn1343  1.945   .     S
O1324  S627    1.680   1_556 S
O1326  S1339   1.503   .     D
O1327  S1339   1.503   .     D
O1328  S1339   1.682   .     S
O1329  Zn1341  1.934   .     S
O1330  Zn1342  1.943   .     S
O1331  Zn1343  1.938   .     S
O1332  Zn1340  1.931   .     S
O1333  Zn1341  1.950   .     S
O1334  Zn1342  1.943   .     S
S1336  O839    1.683   1_565 S
S1336  C799    1.782   1_565 S
C1344  O1408   1.266   .     A
C1344  C1350   1.439   .     S
C1344  O1410   1.262   .     A
C1345  C1359   1.400   .     A
C1345  C1364   1.425   .     A
C1345  S1416   1.785   .     S
C1346  H1368   1.084   .     S
C1346  C1358   1.400   .     A
C1346  C1359   1.395   .     A
C1347  C1349   1.465   .     S
C1347  O1411   1.280   .     A
C1347  O1409   1.282   .     A
C1348  C1363   1.425   .     A
C1348  C1360   1.421   .     A
C1348  C1357   1.495   .     S
C1349  C1192   1.355   1_655 S
C1349  S1260   1.789   1_655 S
C1351  C1354   1.462   .     S
C1351  C878    1.363   1_565 S
C1351  S940    1.795   1_565 S
C1352  C1353   1.425   .     S
C1353  O1391   1.268   .     A
C1353  O1412   1.270   .     A
C1354  O1413   1.275   .     A
C1354  O1402   1.266   .     A
C1355  C1360   1.418   .     A
C1355  C650    1.402   1_556 S
C1355  S706    1.782   1_556 S
C1356  O1383   1.285   .     A
C1356  O1381   1.277   .     A
C1356  C1359   1.465   .     S
C1357  O1382   1.289   .     A
C1357  O1384   1.293   .     A
C1358  O1394   1.383   .     S
C1360  O1398   1.381   .     S
C1361  O1399   1.381   .     S
C1362  C1363   1.407   .     A
C1362  C650    1.418   1_556 S
C1362  C653    1.419   1_556 S
C1363  C1367   1.418   .     A
C1365  C1366   1.415   .     A
C1365  C653    1.425   1_556 S
C1365  C647    1.418   1_556 S
C1366  C1367   1.418   .     A
C1366  O1393   1.381   .     S
C1367  O1404   1.380   .     S
H1369  O1403   0.990   .     S
H1370  O1404   0.991   .     S
H1371  O1407   0.990   .     S
H1372  O1385   0.993   .     S
H1373  O1388   0.991   .     S
H1374  O1392   0.991   .     S
H1375  O1393   0.990   .     S
H1376  O1394   0.992   .     S
H1377  O1397   0.991   .     S
H1378  O1398   0.988   .     S
H1379  O1399   0.990   .     S
O1380  Zn1422  1.931   .     S
O1380  Zn1420  1.940   .     S
O1380  Zn1419  1.959   .     S
O1380  Zn1421  1.936   .     S
O1381  Zn1420  1.910   .     S
O1382  Zn1422  1.919   .     S
O1383  Zn1421  1.913   .     S
O1384  Zn1419  1.905   .     S
O1385  C1192   1.385   1_655 S
O1386  S1414   1.503   .     D
O1387  S1414   1.504   .     D
O1388  S940    1.683   1_565 S
O1389  S1415   1.504   .     D
O1390  S1415   1.504   .     D
O1391  Zn1419  1.941   .     S
O1395  S1416   1.503   .     D
O1396  S1416   1.503   .     D
O1397  S1416   1.682   .     S
O1400  S1417   1.503   .     D
O1401  S1417   1.503   .     D
O1402  Zn1422  1.945   .     S
O1403  S706    1.680   1_556 S
O1405  S1418   1.503   .     D
O1406  S1418   1.503   .     D
O1407  S1418   1.682   .     S
O1408  Zn1420  1.934   .     S
O1409  Zn1421  1.943   .     S
O1410  Zn1422  1.938   .     S
O1411  Zn1419  1.931   .     S
O1412  Zn1420  1.950   .     S
O1413  Zn1421  1.943   .     S
S1415  O918    1.683   1_565 S
S1415  C878    1.782   1_565 S
