data_str_m2_o1_o10_pcu_sym.71
_audit_creation_date              2020-01-03
_audit_creation_method            'Materials Studio'
_symmetry_space_group_name_H-M    'P1'
_symmetry_Int_Tables_number       1
_symmetry_cell_setting            triclinic
loop_
_symmetry_equiv_pos_as_xyz
  x,y,z
_cell_length_a                    26.5493
_cell_length_b                    32.8229
_cell_length_c                    29.0975
_cell_angle_alpha                 91.7225
_cell_angle_beta                  98.3044
_cell_angle_gamma                 96.9026
loop_
_atom_site_label
_atom_site_type_symbol
_atom_site_fract_x
_atom_site_fract_y
_atom_site_fract_z
_atom_site_U_iso_or_equiv
_atom_site_adp_type
_atom_site_occupancy
C1     C     0.16793   0.08749   0.16591   0.00000  Uiso   1.00
C2     C     0.19418   0.02463   0.20309   0.00000  Uiso   1.00
C3     C     0.16251   0.29002   0.16740   0.00000  Uiso   1.00
C4     C     0.16994   0.04256   0.16419   0.00000  Uiso   1.00
C5     C     0.13473   0.13747   0.01984   0.00000  Uiso   1.00
C6     C     0.20383   0.19066   0.31436   0.00000  Uiso   1.00
C7     C     0.13420   0.13734   0.30317   0.00000  Uiso   1.00
C8     C     0.19907   0.19545   0.02978   0.00000  Uiso   1.00
C9     C     0.31364   0.13802   0.07449   0.00000  Uiso   1.00
C10    C     0.27671   0.10568   0.04457   0.00000  Uiso   1.00
C11    C     0.03257   0.24126   0.19848   0.00000  Uiso   1.00
C12    C     0.16406   0.24545   0.16684   0.00000  Uiso   1.00
C13    C     0.06588   0.26978   0.23622   0.00000  Uiso   1.00
C14    C     0.13288   0.00599   0.03843   0.00000  Uiso   1.00
C15    C     0.27308   0.29399   0.23436   0.00000  Uiso   1.00
C16    C     0.08042   0.25682   0.07254   0.00000  Uiso   1.00
C17    C     0.20727   0.05397   0.28176   0.00000  Uiso   1.00
C18    C     0.05917   0.08207   0.01684   0.00000  Uiso   1.00
C19    C     0.29207   0.23000   0.31806   0.00000  Uiso   1.00
C20    C     0.07043   0.09886   0.24714   0.00000  Uiso   1.00
C21    C     0.03994   0.05592   0.24141   0.00000  Uiso   1.00
C22    C     0.25376   0.24488   0.08130   0.00000  Uiso   1.00
C23    C     0.06792   0.16411   0.15468   0.00000  Uiso   1.00
C24    C     0.26765   0.29136   0.08717   0.00000  Uiso   1.00
C25    C     0.26553   0.16866   0.17855   0.00000  Uiso   1.00
C26    C     0.01188   0.15882   0.14982   0.00000  Uiso   1.00
C27    C     0.32158   0.17635   0.18267   0.00000  Uiso   1.00
C28    C     0.14739   0.01715   0.12448   0.00000  Uiso   1.00
C29    C     0.19197   0.31517   0.20394   0.00000  Uiso   1.00
C30    C     0.13495   0.30806   0.12989   0.00000  Uiso   1.00
Cu31   Cu    0.16667   0.16667   0.21355   0.00000  Uiso   1.00
Cu32   Cu    0.16667   0.16666   0.11978   0.00000  Uiso   1.00
H33    H     0.01771   0.14058   0.06172   0.00000  Uiso   1.00
H34    H     0.08190   0.29789   0.22049   0.00000  Uiso   1.00
H35    H     0.17665   0.05397   0.07628   0.00000  Uiso   1.00
H36    H     0.15746   0.31419   0.04091   0.00000  Uiso   1.00
H37    H     0.14058   0.02310   0.00786   0.00000  Uiso   1.00
H38    H     0.09145   0.32818   0.03217   0.00000  Uiso   1.00
H39    H     0.21649   0.30672   0.27402   0.00000  Uiso   1.00
H40    H     0.28403   0.31052   0.20372   0.00000  Uiso   1.00
H41    H     0.27610   0.26107   0.22849   0.00000  Uiso   1.00
H42    H     0.29987   0.30702   0.26562   0.00000  Uiso   1.00
H43    H     0.05754   0.30799   0.10421   0.00000  Uiso   1.00
H44    H     0.29812   0.16760   0.07020   0.00000  Uiso   1.00
H45    H     0.05540   0.26526   0.04135   0.00000  Uiso   1.00
H46    H     0.06135   0.22795   0.08403   0.00000  Uiso   1.00
H47    H     0.11763   0.25214   0.06179   0.00000  Uiso   1.00
H48    H     0.26455   0.04493   0.24218   0.00000  Uiso   1.00
H49    H     0.23032   0.03879   0.30961   0.00000  Uiso   1.00
H50    H     0.16663   0.04021   0.27797   0.00000  Uiso   1.00
H51    H     0.20963   0.08694   0.29170   0.00000  Uiso   1.00
H52    H     0.09987   0.11249   0.07383   0.00000  Uiso   1.00
H53    H     0.03703   0.06663   0.04241   0.00000  Uiso   1.00
H54    H     0.06999   0.05687   0.32962   0.00000  Uiso   1.00
H55    H     0.28023   0.11066   0.00767   0.00000  Uiso   1.00
H56    H     0.03453   0.10200   0.32965   0.00000  Uiso   1.00
H57    H     0.26813   0.16984   0.29636   0.00000  Uiso   1.00
H58    H     0.31692   0.23713   0.29150   0.00000  Uiso   1.00
H59    H     0.31830   0.21908   0.01334   0.00000  Uiso   1.00
H60    H     0.27532   0.25799   0.32673   0.00000  Uiso   1.00
H61    H     0.08004   0.10173   0.21207   0.00000  Uiso   1.00
H62    H     0.04588   0.12240   0.25573   0.00000  Uiso   1.00
H63    H     0.01399   0.05100   0.26762   0.00000  Uiso   1.00
H64    H     0.01529   0.05181   0.20686   0.00000  Uiso   1.00
H65    H     0.06642   0.03211   0.24374   0.00000  Uiso   1.00
H66    H     0.28577   0.07437   0.05299   0.00000  Uiso   1.00
H67    H     0.28664   0.23135   0.07205   0.00000  Uiso   1.00
H68    H     0.24946   0.23443   0.11600   0.00000  Uiso   1.00
H69    H     0.23566   0.30562   0.09904   0.00000  Uiso   1.00
H70    H     0.30219   0.29905   0.11374   0.00000  Uiso   1.00
H71    H     0.27554   0.30461   0.05394   0.00000  Uiso   1.00
H72    H     0.23679   0.10820   0.05034   0.00000  Uiso   1.00
H73    H     0.00021   0.25658   0.18175   0.00000  Uiso   1.00
H74    H     0.05663   0.23664   0.17131   0.00000  Uiso   1.00
H75    H     0.04355   0.27914   0.26308   0.00000  Uiso   1.00
H76    H     0.09798   0.25420   0.25327   0.00000  Uiso   1.00
N77    N     0.16668   0.16668   0.28403   0.00000  Uiso   1.00
N78    N     0.16665   0.16666   0.04931   0.00000  Uiso   1.00
N79    N     0.14480   0.03353   0.07924   0.00000  Uiso   1.00
N80    N     0.22096   0.29727   0.24095   0.00000  Uiso   1.00
N81    N     0.08541   0.28855   0.10918   0.00000  Uiso   1.00
N82    N     0.22683   0.04999   0.23840   0.00000  Uiso   1.00
N83    N     0.10494   0.10582   0.04078   0.00000  Uiso   1.00
N84    N     0.25303   0.19707   0.29989   0.00000  Uiso   1.00
O85    O     0.16666   0.10655   0.20625   0.00000  Uiso   1.00
O86    O     0.01483   0.20393   0.21775   0.00000  Uiso   1.00
O87    O     0.11661   0.09970   0.27875   0.00000  Uiso   1.00
O88    O     0.20806   0.23566   0.04888   0.00000  Uiso   1.00
O89    O     0.16667   0.22678   0.12709   0.00000  Uiso   1.00
O90    O     0.16666   0.10654   0.12706   0.00000  Uiso   1.00
O91    O     0.16667   0.22679   0.20628   0.00000  Uiso   1.00
O92    O     0.09161   0.16667   0.19712   0.00000  Uiso   1.00
O93    O     0.24172   0.16666   0.13621   0.00000  Uiso   1.00
O94    O     0.09161   0.16666   0.11793   0.00000  Uiso   1.00
O95    O     0.24172   0.16667   0.21540   0.00000  Uiso   1.00
O96    O     0.31828   0.12664   0.12097   0.00000  Uiso   1.00
C97    C     0.50126   0.08749   0.16591   0.00000  Uiso   1.00
C98    C     0.52751   0.02463   0.20309   0.00000  Uiso   1.00
C99    C     0.49584   0.29002   0.16740   0.00000  Uiso   1.00
C100   C     0.50327   0.04256   0.16419   0.00000  Uiso   1.00
C101   C     0.46807   0.13747   0.01984   0.00000  Uiso   1.00
C102   C     0.53717   0.19066   0.31436   0.00000  Uiso   1.00
C103   C     0.46753   0.13734   0.30317   0.00000  Uiso   1.00
C104   C     0.53240   0.19545   0.02978   0.00000  Uiso   1.00
C105   C     0.64698   0.13802   0.07449   0.00000  Uiso   1.00
C106   C     0.61004   0.10568   0.04457   0.00000  Uiso   1.00
C107   C     0.36591   0.24126   0.19848   0.00000  Uiso   1.00
C108   C     0.49739   0.24545   0.16684   0.00000  Uiso   1.00
C109   C     0.39921   0.26978   0.23622   0.00000  Uiso   1.00
C110   C     0.46621   0.00599   0.03843   0.00000  Uiso   1.00
C111   C     0.60641   0.29399   0.23436   0.00000  Uiso   1.00
C112   C     0.41375   0.25682   0.07254   0.00000  Uiso   1.00
C113   C     0.54060   0.05397   0.28176   0.00000  Uiso   1.00
C114   C     0.39251   0.08207   0.01684   0.00000  Uiso   1.00
C115   C     0.62541   0.23000   0.31806   0.00000  Uiso   1.00
C116   C     0.40376   0.09886   0.24714   0.00000  Uiso   1.00
C117   C     0.37327   0.05592   0.24141   0.00000  Uiso   1.00
C118   C     0.58709   0.24488   0.08130   0.00000  Uiso   1.00
C119   C     0.40125   0.16411   0.15468   0.00000  Uiso   1.00
C120   C     0.60098   0.29136   0.08717   0.00000  Uiso   1.00
C121   C     0.59886   0.16866   0.17855   0.00000  Uiso   1.00
C122   C     0.34521   0.15882   0.14982   0.00000  Uiso   1.00
C123   C     0.65491   0.17635   0.18267   0.00000  Uiso   1.00
C124   C     0.48072   0.01715   0.12448   0.00000  Uiso   1.00
C125   C     0.52531   0.31517   0.20394   0.00000  Uiso   1.00
C126   C     0.46828   0.30806   0.12989   0.00000  Uiso   1.00
Cu127  Cu    0.50000   0.16667   0.21355   0.00000  Uiso   1.00
Cu128  Cu    0.50000   0.16666   0.11978   0.00000  Uiso   1.00
H129   H     0.35105   0.14058   0.06172   0.00000  Uiso   1.00
H130   H     0.41524   0.29789   0.22049   0.00000  Uiso   1.00
H131   H     0.50998   0.05397   0.07628   0.00000  Uiso   1.00
H132   H     0.49079   0.31419   0.04091   0.00000  Uiso   1.00
H133   H     0.47391   0.02310   0.00786   0.00000  Uiso   1.00
H134   H     0.42479   0.32818   0.03217   0.00000  Uiso   1.00
H135   H     0.54982   0.30672   0.27402   0.00000  Uiso   1.00
H136   H     0.61737   0.31052   0.20372   0.00000  Uiso   1.00
H137   H     0.60943   0.26107   0.22849   0.00000  Uiso   1.00
H138   H     0.63321   0.30702   0.26562   0.00000  Uiso   1.00
H139   H     0.39087   0.30799   0.10421   0.00000  Uiso   1.00
H140   H     0.63146   0.16760   0.07020   0.00000  Uiso   1.00
H141   H     0.38874   0.26526   0.04135   0.00000  Uiso   1.00
H142   H     0.39468   0.22795   0.08403   0.00000  Uiso   1.00
H143   H     0.45096   0.25214   0.06179   0.00000  Uiso   1.00
H144   H     0.59789   0.04493   0.24218   0.00000  Uiso   1.00
H145   H     0.56365   0.03879   0.30961   0.00000  Uiso   1.00
H146   H     0.49996   0.04021   0.27797   0.00000  Uiso   1.00
H147   H     0.54296   0.08694   0.29170   0.00000  Uiso   1.00
H148   H     0.43320   0.11249   0.07383   0.00000  Uiso   1.00
H149   H     0.37036   0.06663   0.04241   0.00000  Uiso   1.00
H150   H     0.40333   0.05687   0.32962   0.00000  Uiso   1.00
H151   H     0.61356   0.11066   0.00767   0.00000  Uiso   1.00
H152   H     0.36787   0.10200   0.32965   0.00000  Uiso   1.00
H153   H     0.60147   0.16984   0.29636   0.00000  Uiso   1.00
H154   H     0.65025   0.23713   0.29150   0.00000  Uiso   1.00
H155   H     0.65163   0.21908   0.01334   0.00000  Uiso   1.00
H156   H     0.60866   0.25799   0.32673   0.00000  Uiso   1.00
H157   H     0.41337   0.10173   0.21207   0.00000  Uiso   1.00
H158   H     0.37921   0.12240   0.25573   0.00000  Uiso   1.00
H159   H     0.34732   0.05100   0.26762   0.00000  Uiso   1.00
H160   H     0.34862   0.05181   0.20686   0.00000  Uiso   1.00
H161   H     0.39975   0.03211   0.24374   0.00000  Uiso   1.00
H162   H     0.61910   0.07437   0.05299   0.00000  Uiso   1.00
H163   H     0.61998   0.23135   0.07205   0.00000  Uiso   1.00
H164   H     0.58279   0.23443   0.11600   0.00000  Uiso   1.00
H165   H     0.56900   0.30562   0.09904   0.00000  Uiso   1.00
H166   H     0.63553   0.29905   0.11374   0.00000  Uiso   1.00
H167   H     0.60887   0.30461   0.05394   0.00000  Uiso   1.00
H168   H     0.57013   0.10820   0.05034   0.00000  Uiso   1.00
H169   H     0.33354   0.25658   0.18175   0.00000  Uiso   1.00
H170   H     0.38996   0.23664   0.17131   0.00000  Uiso   1.00
H171   H     0.37689   0.27914   0.26308   0.00000  Uiso   1.00
H172   H     0.43132   0.25420   0.25327   0.00000  Uiso   1.00
N173   N     0.50001   0.16668   0.28403   0.00000  Uiso   1.00
N174   N     0.49999   0.16666   0.04931   0.00000  Uiso   1.00
N175   N     0.47813   0.03353   0.07924   0.00000  Uiso   1.00
N176   N     0.55430   0.29727   0.24095   0.00000  Uiso   1.00
N177   N     0.41874   0.28855   0.10918   0.00000  Uiso   1.00
N178   N     0.56017   0.04999   0.23840   0.00000  Uiso   1.00
N179   N     0.43827   0.10582   0.04078   0.00000  Uiso   1.00
N180   N     0.58636   0.19707   0.29989   0.00000  Uiso   1.00
O181   O     0.50000   0.10655   0.20625   0.00000  Uiso   1.00
O182   O     0.34816   0.20393   0.21775   0.00000  Uiso   1.00
O183   O     0.44995   0.09970   0.27875   0.00000  Uiso   1.00
O184   O     0.54139   0.23566   0.04888   0.00000  Uiso   1.00
O185   O     0.50000   0.22678   0.12709   0.00000  Uiso   1.00
O186   O     0.50000   0.10654   0.12706   0.00000  Uiso   1.00
O187   O     0.50000   0.22679   0.20628   0.00000  Uiso   1.00
O188   O     0.42495   0.16667   0.19712   0.00000  Uiso   1.00
O189   O     0.57505   0.16666   0.13621   0.00000  Uiso   1.00
O190   O     0.42494   0.16666   0.11793   0.00000  Uiso   1.00
O191   O     0.57506   0.16667   0.21540   0.00000  Uiso   1.00
O192   O     0.65162   0.12664   0.12097   0.00000  Uiso   1.00
C193   C     0.83460   0.08749   0.16591   0.00000  Uiso   1.00
C194   C     0.86084   0.02463   0.20309   0.00000  Uiso   1.00
C195   C     0.82918   0.29002   0.16740   0.00000  Uiso   1.00
C196   C     0.83661   0.04256   0.16419   0.00000  Uiso   1.00
C197   C     0.80140   0.13747   0.01984   0.00000  Uiso   1.00
C198   C     0.87050   0.19066   0.31436   0.00000  Uiso   1.00
C199   C     0.80087   0.13734   0.30317   0.00000  Uiso   1.00
C200   C     0.86574   0.19545   0.02978   0.00000  Uiso   1.00
C201   C     0.98031   0.13802   0.07449   0.00000  Uiso   1.00
C202   C     0.94337   0.10568   0.04457   0.00000  Uiso   1.00
C203   C     0.69924   0.24126   0.19848   0.00000  Uiso   1.00
C204   C     0.83072   0.24545   0.16684   0.00000  Uiso   1.00
C205   C     0.73255   0.26978   0.23622   0.00000  Uiso   1.00
C206   C     0.79954   0.00599   0.03843   0.00000  Uiso   1.00
C207   C     0.93974   0.29399   0.23436   0.00000  Uiso   1.00
C208   C     0.74709   0.25682   0.07254   0.00000  Uiso   1.00
C209   C     0.87393   0.05397   0.28176   0.00000  Uiso   1.00
C210   C     0.72584   0.08207   0.01684   0.00000  Uiso   1.00
C211   C     0.95874   0.23000   0.31806   0.00000  Uiso   1.00
C212   C     0.73709   0.09886   0.24714   0.00000  Uiso   1.00
C213   C     0.70661   0.05592   0.24141   0.00000  Uiso   1.00
C214   C     0.92042   0.24488   0.08130   0.00000  Uiso   1.00
C215   C     0.73459   0.16411   0.15468   0.00000  Uiso   1.00
C216   C     0.93431   0.29136   0.08717   0.00000  Uiso   1.00
C217   C     0.93219   0.16866   0.17855   0.00000  Uiso   1.00
C218   C     0.67854   0.15882   0.14982   0.00000  Uiso   1.00
C219   C     0.98824   0.17635   0.18267   0.00000  Uiso   1.00
C220   C     0.81405   0.01715   0.12448   0.00000  Uiso   1.00
C221   C     0.85864   0.31517   0.20394   0.00000  Uiso   1.00
C222   C     0.80162   0.30806   0.12989   0.00000  Uiso   1.00
Cu223  Cu    0.83333   0.16667   0.21355   0.00000  Uiso   1.00
Cu224  Cu    0.83333   0.16666   0.11978   0.00000  Uiso   1.00
H225   H     0.68438   0.14058   0.06172   0.00000  Uiso   1.00
H226   H     0.74857   0.29789   0.22049   0.00000  Uiso   1.00
H227   H     0.84331   0.05397   0.07628   0.00000  Uiso   1.00
H228   H     0.82413   0.31419   0.04091   0.00000  Uiso   1.00
H229   H     0.80725   0.02310   0.00786   0.00000  Uiso   1.00
H230   H     0.75812   0.32818   0.03217   0.00000  Uiso   1.00
H231   H     0.88316   0.30672   0.27402   0.00000  Uiso   1.00
H232   H     0.95070   0.31052   0.20372   0.00000  Uiso   1.00
H233   H     0.94276   0.26107   0.22849   0.00000  Uiso   1.00
H234   H     0.96654   0.30702   0.26562   0.00000  Uiso   1.00
H235   H     0.72420   0.30799   0.10421   0.00000  Uiso   1.00
H236   H     0.96479   0.16760   0.07020   0.00000  Uiso   1.00
H237   H     0.72207   0.26526   0.04135   0.00000  Uiso   1.00
H238   H     0.72802   0.22795   0.08403   0.00000  Uiso   1.00
H239   H     0.78430   0.25214   0.06179   0.00000  Uiso   1.00
H240   H     0.93122   0.04493   0.24218   0.00000  Uiso   1.00
H241   H     0.89698   0.03879   0.30961   0.00000  Uiso   1.00
H242   H     0.83330   0.04021   0.27797   0.00000  Uiso   1.00
H243   H     0.87629   0.08694   0.29170   0.00000  Uiso   1.00
H244   H     0.76654   0.11249   0.07383   0.00000  Uiso   1.00
H245   H     0.70370   0.06663   0.04241   0.00000  Uiso   1.00
H246   H     0.73666   0.05687   0.32962   0.00000  Uiso   1.00
H247   H     0.94689   0.11066   0.00767   0.00000  Uiso   1.00
H248   H     0.70120   0.10200   0.32965   0.00000  Uiso   1.00
H249   H     0.93480   0.16984   0.29636   0.00000  Uiso   1.00
H250   H     0.98358   0.23713   0.29150   0.00000  Uiso   1.00
H251   H     0.98496   0.21908   0.01334   0.00000  Uiso   1.00
H252   H     0.94199   0.25799   0.32673   0.00000  Uiso   1.00
H253   H     0.74671   0.10173   0.21207   0.00000  Uiso   1.00
H254   H     0.71255   0.12240   0.25573   0.00000  Uiso   1.00
H255   H     0.68065   0.05100   0.26762   0.00000  Uiso   1.00
H256   H     0.68196   0.05181   0.20686   0.00000  Uiso   1.00
H257   H     0.73308   0.03211   0.24374   0.00000  Uiso   1.00
H258   H     0.95244   0.07437   0.05299   0.00000  Uiso   1.00
H259   H     0.95331   0.23135   0.07205   0.00000  Uiso   1.00
H260   H     0.91612   0.23443   0.11600   0.00000  Uiso   1.00
H261   H     0.90233   0.30562   0.09904   0.00000  Uiso   1.00
H262   H     0.96886   0.29905   0.11374   0.00000  Uiso   1.00
H263   H     0.94221   0.30461   0.05394   0.00000  Uiso   1.00
H264   H     0.90346   0.10820   0.05034   0.00000  Uiso   1.00
H265   H     0.66687   0.25658   0.18175   0.00000  Uiso   1.00
H266   H     0.72330   0.23664   0.17131   0.00000  Uiso   1.00
H267   H     0.71022   0.27914   0.26308   0.00000  Uiso   1.00
H268   H     0.76465   0.25420   0.25327   0.00000  Uiso   1.00
N269   N     0.83335   0.16668   0.28403   0.00000  Uiso   1.00
N270   N     0.83332   0.16666   0.04931   0.00000  Uiso   1.00
N271   N     0.81147   0.03353   0.07924   0.00000  Uiso   1.00
N272   N     0.88763   0.29727   0.24095   0.00000  Uiso   1.00
N273   N     0.75208   0.28855   0.10918   0.00000  Uiso   1.00
N274   N     0.89350   0.04999   0.23840   0.00000  Uiso   1.00
N275   N     0.77161   0.10582   0.04078   0.00000  Uiso   1.00
N276   N     0.91970   0.19707   0.29989   0.00000  Uiso   1.00
O277   O     0.83333   0.10655   0.20625   0.00000  Uiso   1.00
O278   O     0.68150   0.20393   0.21775   0.00000  Uiso   1.00
O279   O     0.78328   0.09970   0.27875   0.00000  Uiso   1.00
O280   O     0.87472   0.23566   0.04888   0.00000  Uiso   1.00
O281   O     0.83334   0.22678   0.12709   0.00000  Uiso   1.00
O282   O     0.83333   0.10654   0.12706   0.00000  Uiso   1.00
O283   O     0.83334   0.22679   0.20628   0.00000  Uiso   1.00
O284   O     0.75828   0.16667   0.19712   0.00000  Uiso   1.00
O285   O     0.90839   0.16666   0.13621   0.00000  Uiso   1.00
O286   O     0.75828   0.16666   0.11793   0.00000  Uiso   1.00
O287   O     0.90839   0.16667   0.21540   0.00000  Uiso   1.00
O288   O     0.98495   0.12664   0.12097   0.00000  Uiso   1.00
C289   C     0.16793   0.42083   0.16591   0.00000  Uiso   1.00
C290   C     0.19418   0.35797   0.20309   0.00000  Uiso   1.00
C291   C     0.16251   0.62336   0.16740   0.00000  Uiso   1.00
C292   C     0.16994   0.37590   0.16419   0.00000  Uiso   1.00
C293   C     0.13473   0.47081   0.01984   0.00000  Uiso   1.00
C294   C     0.20383   0.52399   0.31436   0.00000  Uiso   1.00
C295   C     0.13420   0.47067   0.30317   0.00000  Uiso   1.00
C296   C     0.19907   0.52879   0.02978   0.00000  Uiso   1.00
C297   C     0.31364   0.47135   0.07449   0.00000  Uiso   1.00
C298   C     0.27671   0.43901   0.04457   0.00000  Uiso   1.00
C299   C     0.03257   0.57459   0.19848   0.00000  Uiso   1.00
C300   C     0.16406   0.57878   0.16684   0.00000  Uiso   1.00
C301   C     0.06588   0.60311   0.23622   0.00000  Uiso   1.00
C302   C     0.13288   0.33932   0.03843   0.00000  Uiso   1.00
C303   C     0.27308   0.62732   0.23436   0.00000  Uiso   1.00
C304   C     0.08042   0.59015   0.07254   0.00000  Uiso   1.00
C305   C     0.20727   0.38730   0.28176   0.00000  Uiso   1.00
C306   C     0.05917   0.41541   0.01684   0.00000  Uiso   1.00
C307   C     0.29207   0.56333   0.31806   0.00000  Uiso   1.00
C308   C     0.07043   0.43220   0.24714   0.00000  Uiso   1.00
C309   C     0.03994   0.38925   0.24141   0.00000  Uiso   1.00
C310   C     0.25376   0.57821   0.08130   0.00000  Uiso   1.00
C311   C     0.06792   0.49744   0.15468   0.00000  Uiso   1.00
C312   C     0.26765   0.62470   0.08717   0.00000  Uiso   1.00
C313   C     0.26553   0.50200   0.17855   0.00000  Uiso   1.00
C314   C     0.01188   0.49215   0.14982   0.00000  Uiso   1.00
C315   C     0.32158   0.50968   0.18267   0.00000  Uiso   1.00
C316   C     0.14739   0.35049   0.12448   0.00000  Uiso   1.00
C317   C     0.19197   0.64851   0.20394   0.00000  Uiso   1.00
C318   C     0.13495   0.64139   0.12989   0.00000  Uiso   1.00
Cu319  Cu    0.16667   0.50001   0.21355   0.00000  Uiso   1.00
Cu320  Cu    0.16667   0.49999   0.11978   0.00000  Uiso   1.00
H321   H     0.01771   0.47391   0.06172   0.00000  Uiso   1.00
H322   H     0.08190   0.63122   0.22049   0.00000  Uiso   1.00
H323   H     0.17665   0.38730   0.07628   0.00000  Uiso   1.00
H324   H     0.15746   0.64753   0.04091   0.00000  Uiso   1.00
H325   H     0.14058   0.35643   0.00786   0.00000  Uiso   1.00
H326   H     0.09145   0.66152   0.03217   0.00000  Uiso   1.00
H327   H     0.21649   0.64005   0.27402   0.00000  Uiso   1.00
H328   H     0.28403   0.64385   0.20372   0.00000  Uiso   1.00
H329   H     0.27610   0.59441   0.22849   0.00000  Uiso   1.00
H330   H     0.29987   0.64036   0.26562   0.00000  Uiso   1.00
H331   H     0.05754   0.64133   0.10421   0.00000  Uiso   1.00
H332   H     0.29812   0.50093   0.07020   0.00000  Uiso   1.00
H333   H     0.05540   0.59859   0.04135   0.00000  Uiso   1.00
H334   H     0.06135   0.56129   0.08403   0.00000  Uiso   1.00
H335   H     0.11763   0.58548   0.06179   0.00000  Uiso   1.00
H336   H     0.26455   0.37827   0.24218   0.00000  Uiso   1.00
H337   H     0.23032   0.37213   0.30961   0.00000  Uiso   1.00
H338   H     0.16663   0.37354   0.27797   0.00000  Uiso   1.00
H339   H     0.20963   0.42028   0.29170   0.00000  Uiso   1.00
H340   H     0.09987   0.44583   0.07383   0.00000  Uiso   1.00
H341   H     0.03703   0.39996   0.04241   0.00000  Uiso   1.00
H342   H     0.06999   0.39020   0.32962   0.00000  Uiso   1.00
H343   H     0.28023   0.44399   0.00767   0.00000  Uiso   1.00
H344   H     0.03453   0.43533   0.32965   0.00000  Uiso   1.00
H345   H     0.26813   0.50317   0.29636   0.00000  Uiso   1.00
H346   H     0.31692   0.57047   0.29150   0.00000  Uiso   1.00
H347   H     0.31830   0.55242   0.01334   0.00000  Uiso   1.00
H348   H     0.27532   0.59132   0.32673   0.00000  Uiso   1.00
H349   H     0.08004   0.43506   0.21207   0.00000  Uiso   1.00
H350   H     0.04588   0.45573   0.25573   0.00000  Uiso   1.00
H351   H     0.01399   0.38434   0.26762   0.00000  Uiso   1.00
H352   H     0.01529   0.38514   0.20686   0.00000  Uiso   1.00
H353   H     0.06642   0.36544   0.24374   0.00000  Uiso   1.00
H354   H     0.28577   0.40770   0.05299   0.00000  Uiso   1.00
H355   H     0.28664   0.56468   0.07205   0.00000  Uiso   1.00
H356   H     0.24946   0.56777   0.11600   0.00000  Uiso   1.00
H357   H     0.23566   0.63896   0.09904   0.00000  Uiso   1.00
H358   H     0.30219   0.63238   0.11374   0.00000  Uiso   1.00
H359   H     0.27554   0.63794   0.05394   0.00000  Uiso   1.00
H360   H     0.23679   0.44153   0.05034   0.00000  Uiso   1.00
H361   H     0.00021   0.58992   0.18175   0.00000  Uiso   1.00
H362   H     0.05663   0.56998   0.17131   0.00000  Uiso   1.00
H363   H     0.04355   0.61247   0.26308   0.00000  Uiso   1.00
H364   H     0.09798   0.58754   0.25327   0.00000  Uiso   1.00
N365   N     0.16668   0.50001   0.28403   0.00000  Uiso   1.00
N366   N     0.16665   0.49999   0.04931   0.00000  Uiso   1.00
N367   N     0.14480   0.36686   0.07924   0.00000  Uiso   1.00
N368   N     0.22096   0.63060   0.24095   0.00000  Uiso   1.00
N369   N     0.08541   0.62189   0.10918   0.00000  Uiso   1.00
N370   N     0.22683   0.38332   0.23840   0.00000  Uiso   1.00
N371   N     0.10494   0.43915   0.04078   0.00000  Uiso   1.00
N372   N     0.25303   0.53041   0.29989   0.00000  Uiso   1.00
O373   O     0.16666   0.43989   0.20625   0.00000  Uiso   1.00
O374   O     0.01483   0.53726   0.21775   0.00000  Uiso   1.00
O375   O     0.11661   0.43303   0.27875   0.00000  Uiso   1.00
O376   O     0.20806   0.56899   0.04888   0.00000  Uiso   1.00
O377   O     0.16667   0.56011   0.12709   0.00000  Uiso   1.00
O378   O     0.16666   0.43988   0.12706   0.00000  Uiso   1.00
O379   O     0.16667   0.56012   0.20628   0.00000  Uiso   1.00
O380   O     0.09161   0.50000   0.19712   0.00000  Uiso   1.00
O381   O     0.24172   0.50000   0.13621   0.00000  Uiso   1.00
O382   O     0.09161   0.49999   0.11793   0.00000  Uiso   1.00
O383   O     0.24172   0.50001   0.21540   0.00000  Uiso   1.00
O384   O     0.31828   0.45997   0.12097   0.00000  Uiso   1.00
C385   C     0.50126   0.42083   0.16591   0.00000  Uiso   1.00
C386   C     0.52751   0.35797   0.20309   0.00000  Uiso   1.00
C387   C     0.49584   0.62336   0.16740   0.00000  Uiso   1.00
C388   C     0.50327   0.37590   0.16419   0.00000  Uiso   1.00
C389   C     0.46807   0.47081   0.01984   0.00000  Uiso   1.00
C390   C     0.53717   0.52399   0.31436   0.00000  Uiso   1.00
C391   C     0.46753   0.47067   0.30317   0.00000  Uiso   1.00
C392   C     0.53240   0.52879   0.02978   0.00000  Uiso   1.00
C393   C     0.64698   0.47135   0.07449   0.00000  Uiso   1.00
C394   C     0.61004   0.43901   0.04457   0.00000  Uiso   1.00
C395   C     0.36591   0.57459   0.19848   0.00000  Uiso   1.00
C396   C     0.49739   0.57878   0.16684   0.00000  Uiso   1.00
C397   C     0.39921   0.60311   0.23622   0.00000  Uiso   1.00
C398   C     0.46621   0.33932   0.03843   0.00000  Uiso   1.00
C399   C     0.60641   0.62732   0.23436   0.00000  Uiso   1.00
C400   C     0.41375   0.59015   0.07254   0.00000  Uiso   1.00
C401   C     0.54060   0.38730   0.28176   0.00000  Uiso   1.00
C402   C     0.39251   0.41541   0.01684   0.00000  Uiso   1.00
C403   C     0.62541   0.56333   0.31806   0.00000  Uiso   1.00
C404   C     0.40376   0.43220   0.24714   0.00000  Uiso   1.00
C405   C     0.37327   0.38925   0.24141   0.00000  Uiso   1.00
C406   C     0.58709   0.57821   0.08130   0.00000  Uiso   1.00
C407   C     0.40125   0.49744   0.15468   0.00000  Uiso   1.00
C408   C     0.60098   0.62470   0.08717   0.00000  Uiso   1.00
C409   C     0.59886   0.50200   0.17855   0.00000  Uiso   1.00
C410   C     0.34521   0.49215   0.14982   0.00000  Uiso   1.00
C411   C     0.65491   0.50968   0.18267   0.00000  Uiso   1.00
C412   C     0.48072   0.35049   0.12448   0.00000  Uiso   1.00
C413   C     0.52531   0.64851   0.20394   0.00000  Uiso   1.00
C414   C     0.46828   0.64139   0.12989   0.00000  Uiso   1.00
Cu415  Cu    0.50000   0.50001   0.21355   0.00000  Uiso   1.00
Cu416  Cu    0.50000   0.49999   0.11978   0.00000  Uiso   1.00
H417   H     0.35105   0.47391   0.06172   0.00000  Uiso   1.00
H418   H     0.41524   0.63122   0.22049   0.00000  Uiso   1.00
H419   H     0.50998   0.38730   0.07628   0.00000  Uiso   1.00
H420   H     0.49079   0.64753   0.04091   0.00000  Uiso   1.00
H421   H     0.47391   0.35643   0.00786   0.00000  Uiso   1.00
H422   H     0.42479   0.66152   0.03217   0.00000  Uiso   1.00
H423   H     0.54982   0.64005   0.27402   0.00000  Uiso   1.00
H424   H     0.61737   0.64385   0.20372   0.00000  Uiso   1.00
H425   H     0.60943   0.59441   0.22849   0.00000  Uiso   1.00
H426   H     0.63321   0.64036   0.26562   0.00000  Uiso   1.00
H427   H     0.39087   0.64133   0.10421   0.00000  Uiso   1.00
H428   H     0.63146   0.50093   0.07020   0.00000  Uiso   1.00
H429   H     0.38874   0.59859   0.04135   0.00000  Uiso   1.00
H430   H     0.39468   0.56129   0.08403   0.00000  Uiso   1.00
H431   H     0.45096   0.58548   0.06179   0.00000  Uiso   1.00
H432   H     0.59789   0.37827   0.24218   0.00000  Uiso   1.00
H433   H     0.56365   0.37213   0.30961   0.00000  Uiso   1.00
H434   H     0.49996   0.37354   0.27797   0.00000  Uiso   1.00
H435   H     0.54296   0.42028   0.29170   0.00000  Uiso   1.00
H436   H     0.43320   0.44583   0.07383   0.00000  Uiso   1.00
H437   H     0.37036   0.39996   0.04241   0.00000  Uiso   1.00
H438   H     0.40333   0.39020   0.32962   0.00000  Uiso   1.00
H439   H     0.61356   0.44399   0.00767   0.00000  Uiso   1.00
H440   H     0.36787   0.43533   0.32965   0.00000  Uiso   1.00
H441   H     0.60147   0.50317   0.29636   0.00000  Uiso   1.00
H442   H     0.65025   0.57047   0.29150   0.00000  Uiso   1.00
H443   H     0.65163   0.55242   0.01334   0.00000  Uiso   1.00
H444   H     0.60866   0.59132   0.32673   0.00000  Uiso   1.00
H445   H     0.41337   0.43506   0.21207   0.00000  Uiso   1.00
H446   H     0.37921   0.45573   0.25573   0.00000  Uiso   1.00
H447   H     0.34732   0.38434   0.26762   0.00000  Uiso   1.00
H448   H     0.34862   0.38514   0.20686   0.00000  Uiso   1.00
H449   H     0.39975   0.36544   0.24374   0.00000  Uiso   1.00
H450   H     0.61910   0.40770   0.05299   0.00000  Uiso   1.00
H451   H     0.61998   0.56468   0.07205   0.00000  Uiso   1.00
H452   H     0.58279   0.56777   0.11600   0.00000  Uiso   1.00
H453   H     0.56900   0.63896   0.09904   0.00000  Uiso   1.00
H454   H     0.63553   0.63238   0.11374   0.00000  Uiso   1.00
H455   H     0.60887   0.63794   0.05394   0.00000  Uiso   1.00
H456   H     0.57013   0.44153   0.05034   0.00000  Uiso   1.00
H457   H     0.33354   0.58992   0.18175   0.00000  Uiso   1.00
H458   H     0.38996   0.56998   0.17131   0.00000  Uiso   1.00
H459   H     0.37689   0.61247   0.26308   0.00000  Uiso   1.00
H460   H     0.43132   0.58754   0.25327   0.00000  Uiso   1.00
N461   N     0.50001   0.50001   0.28403   0.00000  Uiso   1.00
N462   N     0.49999   0.49999   0.04931   0.00000  Uiso   1.00
N463   N     0.47813   0.36686   0.07924   0.00000  Uiso   1.00
N464   N     0.55430   0.63060   0.24095   0.00000  Uiso   1.00
N465   N     0.41874   0.62189   0.10918   0.00000  Uiso   1.00
N466   N     0.56017   0.38332   0.23840   0.00000  Uiso   1.00
N467   N     0.43827   0.43915   0.04078   0.00000  Uiso   1.00
N468   N     0.58636   0.53041   0.29989   0.00000  Uiso   1.00
O469   O     0.50000   0.43989   0.20625   0.00000  Uiso   1.00
O470   O     0.34816   0.53726   0.21775   0.00000  Uiso   1.00
O471   O     0.44995   0.43303   0.27875   0.00000  Uiso   1.00
O472   O     0.54139   0.56899   0.04888   0.00000  Uiso   1.00
O473   O     0.50000   0.56011   0.12709   0.00000  Uiso   1.00
O474   O     0.50000   0.43988   0.12706   0.00000  Uiso   1.00
O475   O     0.50000   0.56012   0.20628   0.00000  Uiso   1.00
O476   O     0.42495   0.50000   0.19712   0.00000  Uiso   1.00
O477   O     0.57505   0.50000   0.13621   0.00000  Uiso   1.00
O478   O     0.42494   0.49999   0.11793   0.00000  Uiso   1.00
O479   O     0.57506   0.50001   0.21540   0.00000  Uiso   1.00
O480   O     0.65162   0.45997   0.12097   0.00000  Uiso   1.00
C481   C     0.83460   0.42083   0.16591   0.00000  Uiso   1.00
C482   C     0.86084   0.35797   0.20309   0.00000  Uiso   1.00
C483   C     0.82918   0.62336   0.16740   0.00000  Uiso   1.00
C484   C     0.83661   0.37590   0.16419   0.00000  Uiso   1.00
C485   C     0.80140   0.47081   0.01984   0.00000  Uiso   1.00
C486   C     0.87050   0.52399   0.31436   0.00000  Uiso   1.00
C487   C     0.80087   0.47067   0.30317   0.00000  Uiso   1.00
C488   C     0.86574   0.52879   0.02978   0.00000  Uiso   1.00
C489   C     0.98031   0.47135   0.07449   0.00000  Uiso   1.00
C490   C     0.94337   0.43901   0.04457   0.00000  Uiso   1.00
C491   C     0.69924   0.57459   0.19848   0.00000  Uiso   1.00
C492   C     0.83072   0.57878   0.16684   0.00000  Uiso   1.00
C493   C     0.73255   0.60311   0.23622   0.00000  Uiso   1.00
C494   C     0.79954   0.33932   0.03843   0.00000  Uiso   1.00
C495   C     0.93974   0.62732   0.23436   0.00000  Uiso   1.00
C496   C     0.74709   0.59015   0.07254   0.00000  Uiso   1.00
C497   C     0.87393   0.38730   0.28176   0.00000  Uiso   1.00
C498   C     0.72584   0.41541   0.01684   0.00000  Uiso   1.00
C499   C     0.95874   0.56333   0.31806   0.00000  Uiso   1.00
C500   C     0.73709   0.43220   0.24714   0.00000  Uiso   1.00
C501   C     0.70661   0.38925   0.24141   0.00000  Uiso   1.00
C502   C     0.92042   0.57821   0.08130   0.00000  Uiso   1.00
C503   C     0.73459   0.49744   0.15468   0.00000  Uiso   1.00
C504   C     0.93431   0.62470   0.08717   0.00000  Uiso   1.00
C505   C     0.93219   0.50200   0.17855   0.00000  Uiso   1.00
C506   C     0.67854   0.49215   0.14982   0.00000  Uiso   1.00
C507   C     0.98824   0.50968   0.18267   0.00000  Uiso   1.00
C508   C     0.81405   0.35049   0.12448   0.00000  Uiso   1.00
C509   C     0.85864   0.64851   0.20394   0.00000  Uiso   1.00
C510   C     0.80162   0.64139   0.12989   0.00000  Uiso   1.00
Cu511  Cu    0.83333   0.50001   0.21355   0.00000  Uiso   1.00
Cu512  Cu    0.83333   0.49999   0.11978   0.00000  Uiso   1.00
H513   H     0.68438   0.47391   0.06172   0.00000  Uiso   1.00
H514   H     0.74857   0.63122   0.22049   0.00000  Uiso   1.00
H515   H     0.84331   0.38730   0.07628   0.00000  Uiso   1.00
H516   H     0.82413   0.64753   0.04091   0.00000  Uiso   1.00
H517   H     0.80725   0.35643   0.00786   0.00000  Uiso   1.00
H518   H     0.75812   0.66152   0.03217   0.00000  Uiso   1.00
H519   H     0.88316   0.64005   0.27402   0.00000  Uiso   1.00
H520   H     0.95070   0.64385   0.20372   0.00000  Uiso   1.00
H521   H     0.94276   0.59441   0.22849   0.00000  Uiso   1.00
H522   H     0.96654   0.64036   0.26562   0.00000  Uiso   1.00
H523   H     0.72420   0.64133   0.10421   0.00000  Uiso   1.00
H524   H     0.96479   0.50093   0.07020   0.00000  Uiso   1.00
H525   H     0.72207   0.59859   0.04135   0.00000  Uiso   1.00
H526   H     0.72802   0.56129   0.08403   0.00000  Uiso   1.00
H527   H     0.78430   0.58548   0.06179   0.00000  Uiso   1.00
H528   H     0.93122   0.37827   0.24218   0.00000  Uiso   1.00
H529   H     0.89698   0.37213   0.30961   0.00000  Uiso   1.00
H530   H     0.83330   0.37354   0.27797   0.00000  Uiso   1.00
H531   H     0.87629   0.42028   0.29170   0.00000  Uiso   1.00
H532   H     0.76654   0.44583   0.07383   0.00000  Uiso   1.00
H533   H     0.70370   0.39996   0.04241   0.00000  Uiso   1.00
H534   H     0.73666   0.39020   0.32962   0.00000  Uiso   1.00
H535   H     0.94689   0.44399   0.00767   0.00000  Uiso   1.00
H536   H     0.70120   0.43533   0.32965   0.00000  Uiso   1.00
H537   H     0.93480   0.50317   0.29636   0.00000  Uiso   1.00
H538   H     0.98358   0.57047   0.29150   0.00000  Uiso   1.00
H539   H     0.98496   0.55242   0.01334   0.00000  Uiso   1.00
H540   H     0.94199   0.59132   0.32673   0.00000  Uiso   1.00
H541   H     0.74671   0.43506   0.21207   0.00000  Uiso   1.00
H542   H     0.71255   0.45573   0.25573   0.00000  Uiso   1.00
H543   H     0.68065   0.38434   0.26762   0.00000  Uiso   1.00
H544   H     0.68196   0.38514   0.20686   0.00000  Uiso   1.00
H545   H     0.73308   0.36544   0.24374   0.00000  Uiso   1.00
H546   H     0.95244   0.40770   0.05299   0.00000  Uiso   1.00
H547   H     0.95331   0.56468   0.07205   0.00000  Uiso   1.00
H548   H     0.91612   0.56777   0.11600   0.00000  Uiso   1.00
H549   H     0.90233   0.63896   0.09904   0.00000  Uiso   1.00
H550   H     0.96886   0.63238   0.11374   0.00000  Uiso   1.00
H551   H     0.94221   0.63794   0.05394   0.00000  Uiso   1.00
H552   H     0.90346   0.44153   0.05034   0.00000  Uiso   1.00
H553   H     0.66687   0.58992   0.18175   0.00000  Uiso   1.00
H554   H     0.72330   0.56998   0.17131   0.00000  Uiso   1.00
H555   H     0.71022   0.61247   0.26308   0.00000  Uiso   1.00
H556   H     0.76465   0.58754   0.25327   0.00000  Uiso   1.00
N557   N     0.83335   0.50001   0.28403   0.00000  Uiso   1.00
N558   N     0.83332   0.49999   0.04931   0.00000  Uiso   1.00
N559   N     0.81147   0.36686   0.07924   0.00000  Uiso   1.00
N560   N     0.88763   0.63060   0.24095   0.00000  Uiso   1.00
N561   N     0.75208   0.62189   0.10918   0.00000  Uiso   1.00
N562   N     0.89350   0.38332   0.23840   0.00000  Uiso   1.00
N563   N     0.77161   0.43915   0.04078   0.00000  Uiso   1.00
N564   N     0.91970   0.53041   0.29989   0.00000  Uiso   1.00
O565   O     0.83333   0.43989   0.20625   0.00000  Uiso   1.00
O566   O     0.68150   0.53726   0.21775   0.00000  Uiso   1.00
O567   O     0.78328   0.43303   0.27875   0.00000  Uiso   1.00
O568   O     0.87472   0.56899   0.04888   0.00000  Uiso   1.00
O569   O     0.83334   0.56011   0.12709   0.00000  Uiso   1.00
O570   O     0.83333   0.43988   0.12706   0.00000  Uiso   1.00
O571   O     0.83334   0.56012   0.20628   0.00000  Uiso   1.00
O572   O     0.75828   0.50000   0.19712   0.00000  Uiso   1.00
O573   O     0.90839   0.50000   0.13621   0.00000  Uiso   1.00
O574   O     0.75828   0.49999   0.11793   0.00000  Uiso   1.00
O575   O     0.90839   0.50001   0.21540   0.00000  Uiso   1.00
O576   O     0.98495   0.45997   0.12097   0.00000  Uiso   1.00
C577   C     0.16793   0.75416   0.16591   0.00000  Uiso   1.00
C578   C     0.19418   0.69130   0.20309   0.00000  Uiso   1.00
C579   C     0.16251   0.95669   0.16740   0.00000  Uiso   1.00
C580   C     0.16994   0.70923   0.16419   0.00000  Uiso   1.00
C581   C     0.13473   0.80414   0.01984   0.00000  Uiso   1.00
C582   C     0.20383   0.85732   0.31436   0.00000  Uiso   1.00
C583   C     0.13420   0.80401   0.30317   0.00000  Uiso   1.00
C584   C     0.19907   0.86212   0.02978   0.00000  Uiso   1.00
C585   C     0.31364   0.80468   0.07449   0.00000  Uiso   1.00
C586   C     0.27671   0.77235   0.04457   0.00000  Uiso   1.00
C587   C     0.03257   0.90793   0.19848   0.00000  Uiso   1.00
C588   C     0.16406   0.91211   0.16684   0.00000  Uiso   1.00
C589   C     0.06588   0.93645   0.23622   0.00000  Uiso   1.00
C590   C     0.13288   0.67265   0.03843   0.00000  Uiso   1.00
C591   C     0.27308   0.96066   0.23436   0.00000  Uiso   1.00
C592   C     0.08042   0.92349   0.07254   0.00000  Uiso   1.00
C593   C     0.20727   0.72064   0.28176   0.00000  Uiso   1.00
C594   C     0.05917   0.74874   0.01684   0.00000  Uiso   1.00
C595   C     0.29207   0.89667   0.31806   0.00000  Uiso   1.00
C596   C     0.07043   0.76553   0.24714   0.00000  Uiso   1.00
C597   C     0.03994   0.72259   0.24141   0.00000  Uiso   1.00
C598   C     0.25376   0.91154   0.08130   0.00000  Uiso   1.00
C599   C     0.06792   0.83078   0.15468   0.00000  Uiso   1.00
C600   C     0.26765   0.95803   0.08717   0.00000  Uiso   1.00
C601   C     0.26553   0.83533   0.17855   0.00000  Uiso   1.00
C602   C     0.01188   0.82548   0.14982   0.00000  Uiso   1.00
C603   C     0.32158   0.84302   0.18267   0.00000  Uiso   1.00
C604   C     0.14739   0.68382   0.12448   0.00000  Uiso   1.00
C605   C     0.19197   0.98184   0.20394   0.00000  Uiso   1.00
C606   C     0.13495   0.97472   0.12989   0.00000  Uiso   1.00
Cu607  Cu    0.16667   0.83334   0.21355   0.00000  Uiso   1.00
Cu608  Cu    0.16667   0.83333   0.11978   0.00000  Uiso   1.00
H609   H     0.01771   0.80725   0.06172   0.00000  Uiso   1.00
H610   H     0.08190   0.96456   0.22049   0.00000  Uiso   1.00
H611   H     0.17665   0.72063   0.07628   0.00000  Uiso   1.00
H612   H     0.15746   0.98086   0.04091   0.00000  Uiso   1.00
H613   H     0.14058   0.68977   0.00786   0.00000  Uiso   1.00
H614   H     0.09145   0.99485   0.03217   0.00000  Uiso   1.00
H615   H     0.21649   0.97338   0.27402   0.00000  Uiso   1.00
H616   H     0.28403   0.97718   0.20372   0.00000  Uiso   1.00
H617   H     0.27610   0.92774   0.22849   0.00000  Uiso   1.00
H618   H     0.29987   0.97369   0.26562   0.00000  Uiso   1.00
H619   H     0.05754   0.97466   0.10421   0.00000  Uiso   1.00
H620   H     0.29812   0.83426   0.07020   0.00000  Uiso   1.00
H621   H     0.05540   0.93192   0.04135   0.00000  Uiso   1.00
H622   H     0.06135   0.89462   0.08403   0.00000  Uiso   1.00
H623   H     0.11763   0.91881   0.06179   0.00000  Uiso   1.00
H624   H     0.26455   0.71160   0.24218   0.00000  Uiso   1.00
H625   H     0.23032   0.70546   0.30961   0.00000  Uiso   1.00
H626   H     0.16663   0.70688   0.27797   0.00000  Uiso   1.00
H627   H     0.20963   0.75361   0.29170   0.00000  Uiso   1.00
H628   H     0.09987   0.77916   0.07383   0.00000  Uiso   1.00
H629   H     0.03703   0.73329   0.04241   0.00000  Uiso   1.00
H630   H     0.06999   0.72353   0.32962   0.00000  Uiso   1.00
H631   H     0.28023   0.77732   0.00767   0.00000  Uiso   1.00
H632   H     0.03453   0.76867   0.32965   0.00000  Uiso   1.00
H633   H     0.26813   0.83651   0.29636   0.00000  Uiso   1.00
H634   H     0.31692   0.90380   0.29150   0.00000  Uiso   1.00
H635   H     0.31830   0.88575   0.01334   0.00000  Uiso   1.00
H636   H     0.27532   0.92465   0.32673   0.00000  Uiso   1.00
H637   H     0.08004   0.76839   0.21207   0.00000  Uiso   1.00
H638   H     0.04588   0.78906   0.25573   0.00000  Uiso   1.00
H639   H     0.01399   0.71767   0.26762   0.00000  Uiso   1.00
H640   H     0.01529   0.71848   0.20686   0.00000  Uiso   1.00
H641   H     0.06642   0.69878   0.24374   0.00000  Uiso   1.00
H642   H     0.28577   0.74103   0.05299   0.00000  Uiso   1.00
H643   H     0.28664   0.89802   0.07205   0.00000  Uiso   1.00
H644   H     0.24946   0.90110   0.11600   0.00000  Uiso   1.00
H645   H     0.23566   0.97229   0.09904   0.00000  Uiso   1.00
H646   H     0.30219   0.96572   0.11374   0.00000  Uiso   1.00
H647   H     0.27554   0.97128   0.05394   0.00000  Uiso   1.00
H648   H     0.23679   0.77487   0.05034   0.00000  Uiso   1.00
H649   H     0.00021   0.92325   0.18175   0.00000  Uiso   1.00
H650   H     0.05663   0.90331   0.17131   0.00000  Uiso   1.00
H651   H     0.04355   0.94581   0.26308   0.00000  Uiso   1.00
H652   H     0.09798   0.92087   0.25327   0.00000  Uiso   1.00
N653   N     0.16668   0.83334   0.28403   0.00000  Uiso   1.00
N654   N     0.16665   0.83332   0.04931   0.00000  Uiso   1.00
N655   N     0.14480   0.70019   0.07924   0.00000  Uiso   1.00
N656   N     0.22096   0.96393   0.24095   0.00000  Uiso   1.00
N657   N     0.08541   0.95522   0.10918   0.00000  Uiso   1.00
N658   N     0.22683   0.71665   0.23840   0.00000  Uiso   1.00
N659   N     0.10494   0.77249   0.04078   0.00000  Uiso   1.00
N660   N     0.25303   0.86374   0.29989   0.00000  Uiso   1.00
O661   O     0.16666   0.77322   0.20625   0.00000  Uiso   1.00
O662   O     0.01483   0.87059   0.21775   0.00000  Uiso   1.00
O663   O     0.11661   0.76636   0.27875   0.00000  Uiso   1.00
O664   O     0.20806   0.90233   0.04888   0.00000  Uiso   1.00
O665   O     0.16667   0.89345   0.12709   0.00000  Uiso   1.00
O666   O     0.16666   0.77321   0.12706   0.00000  Uiso   1.00
O667   O     0.16667   0.89346   0.20628   0.00000  Uiso   1.00
O668   O     0.09161   0.83334   0.19712   0.00000  Uiso   1.00
O669   O     0.24172   0.83333   0.13621   0.00000  Uiso   1.00
O670   O     0.09161   0.83333   0.11793   0.00000  Uiso   1.00
O671   O     0.24172   0.83334   0.21540   0.00000  Uiso   1.00
O672   O     0.31828   0.79330   0.12097   0.00000  Uiso   1.00
C673   C     0.50126   0.75416   0.16591   0.00000  Uiso   1.00
C674   C     0.52751   0.69130   0.20309   0.00000  Uiso   1.00
C675   C     0.49584   0.95669   0.16740   0.00000  Uiso   1.00
C676   C     0.50327   0.70923   0.16419   0.00000  Uiso   1.00
C677   C     0.46807   0.80414   0.01984   0.00000  Uiso   1.00
C678   C     0.53717   0.85732   0.31436   0.00000  Uiso   1.00
C679   C     0.46753   0.80401   0.30317   0.00000  Uiso   1.00
C680   C     0.53240   0.86212   0.02978   0.00000  Uiso   1.00
C681   C     0.64698   0.80468   0.07449   0.00000  Uiso   1.00
C682   C     0.61004   0.77235   0.04457   0.00000  Uiso   1.00
C683   C     0.36591   0.90793   0.19848   0.00000  Uiso   1.00
C684   C     0.49739   0.91211   0.16684   0.00000  Uiso   1.00
C685   C     0.39921   0.93645   0.23622   0.00000  Uiso   1.00
C686   C     0.46621   0.67265   0.03843   0.00000  Uiso   1.00
C687   C     0.60641   0.96066   0.23436   0.00000  Uiso   1.00
C688   C     0.41375   0.92349   0.07254   0.00000  Uiso   1.00
C689   C     0.54060   0.72064   0.28176   0.00000  Uiso   1.00
C690   C     0.39251   0.74874   0.01684   0.00000  Uiso   1.00
C691   C     0.62541   0.89667   0.31806   0.00000  Uiso   1.00
C692   C     0.40376   0.76553   0.24714   0.00000  Uiso   1.00
C693   C     0.37327   0.72259   0.24141   0.00000  Uiso   1.00
C694   C     0.58709   0.91154   0.08130   0.00000  Uiso   1.00
C695   C     0.40125   0.83078   0.15468   0.00000  Uiso   1.00
C696   C     0.60098   0.95803   0.08717   0.00000  Uiso   1.00
C697   C     0.59886   0.83533   0.17855   0.00000  Uiso   1.00
C698   C     0.34521   0.82548   0.14982   0.00000  Uiso   1.00
C699   C     0.65491   0.84302   0.18267   0.00000  Uiso   1.00
C700   C     0.48072   0.68382   0.12448   0.00000  Uiso   1.00
C701   C     0.52531   0.98184   0.20394   0.00000  Uiso   1.00
C702   C     0.46828   0.97472   0.12989   0.00000  Uiso   1.00
Cu703  Cu    0.50000   0.83334   0.21355   0.00000  Uiso   1.00
Cu704  Cu    0.50000   0.83333   0.11978   0.00000  Uiso   1.00
H705   H     0.35105   0.80725   0.06172   0.00000  Uiso   1.00
H706   H     0.41524   0.96456   0.22049   0.00000  Uiso   1.00
H707   H     0.50998   0.72063   0.07628   0.00000  Uiso   1.00
H708   H     0.49079   0.98086   0.04091   0.00000  Uiso   1.00
H709   H     0.47391   0.68977   0.00786   0.00000  Uiso   1.00
H710   H     0.42479   0.99485   0.03217   0.00000  Uiso   1.00
H711   H     0.54982   0.97338   0.27402   0.00000  Uiso   1.00
H712   H     0.61737   0.97718   0.20372   0.00000  Uiso   1.00
H713   H     0.60943   0.92774   0.22849   0.00000  Uiso   1.00
H714   H     0.63321   0.97369   0.26562   0.00000  Uiso   1.00
H715   H     0.39087   0.97466   0.10421   0.00000  Uiso   1.00
H716   H     0.63146   0.83426   0.07020   0.00000  Uiso   1.00
H717   H     0.38874   0.93192   0.04135   0.00000  Uiso   1.00
H718   H     0.39468   0.89462   0.08403   0.00000  Uiso   1.00
H719   H     0.45096   0.91881   0.06179   0.00000  Uiso   1.00
H720   H     0.59789   0.71160   0.24218   0.00000  Uiso   1.00
H721   H     0.56365   0.70546   0.30961   0.00000  Uiso   1.00
H722   H     0.49996   0.70688   0.27797   0.00000  Uiso   1.00
H723   H     0.54296   0.75361   0.29170   0.00000  Uiso   1.00
H724   H     0.43320   0.77916   0.07383   0.00000  Uiso   1.00
H725   H     0.37036   0.73329   0.04241   0.00000  Uiso   1.00
H726   H     0.40333   0.72353   0.32962   0.00000  Uiso   1.00
H727   H     0.61356   0.77732   0.00767   0.00000  Uiso   1.00
H728   H     0.36787   0.76867   0.32965   0.00000  Uiso   1.00
H729   H     0.60147   0.83651   0.29636   0.00000  Uiso   1.00
H730   H     0.65025   0.90380   0.29150   0.00000  Uiso   1.00
H731   H     0.65163   0.88575   0.01334   0.00000  Uiso   1.00
H732   H     0.60866   0.92465   0.32673   0.00000  Uiso   1.00
H733   H     0.41337   0.76839   0.21207   0.00000  Uiso   1.00
H734   H     0.37921   0.78906   0.25573   0.00000  Uiso   1.00
H735   H     0.34732   0.71767   0.26762   0.00000  Uiso   1.00
H736   H     0.34862   0.71848   0.20686   0.00000  Uiso   1.00
H737   H     0.39975   0.69878   0.24374   0.00000  Uiso   1.00
H738   H     0.61910   0.74103   0.05299   0.00000  Uiso   1.00
H739   H     0.61998   0.89802   0.07205   0.00000  Uiso   1.00
H740   H     0.58279   0.90110   0.11600   0.00000  Uiso   1.00
H741   H     0.56900   0.97229   0.09904   0.00000  Uiso   1.00
H742   H     0.63553   0.96572   0.11374   0.00000  Uiso   1.00
H743   H     0.60887   0.97128   0.05394   0.00000  Uiso   1.00
H744   H     0.57013   0.77487   0.05034   0.00000  Uiso   1.00
H745   H     0.33354   0.92325   0.18175   0.00000  Uiso   1.00
H746   H     0.38996   0.90331   0.17131   0.00000  Uiso   1.00
H747   H     0.37689   0.94581   0.26308   0.00000  Uiso   1.00
H748   H     0.43132   0.92087   0.25327   0.00000  Uiso   1.00
N749   N     0.50001   0.83334   0.28403   0.00000  Uiso   1.00
N750   N     0.49999   0.83332   0.04931   0.00000  Uiso   1.00
N751   N     0.47813   0.70019   0.07924   0.00000  Uiso   1.00
N752   N     0.55430   0.96393   0.24095   0.00000  Uiso   1.00
N753   N     0.41874   0.95522   0.10918   0.00000  Uiso   1.00
N754   N     0.56017   0.71665   0.23840   0.00000  Uiso   1.00
N755   N     0.43827   0.77249   0.04078   0.00000  Uiso   1.00
N756   N     0.58636   0.86374   0.29989   0.00000  Uiso   1.00
O757   O     0.50000   0.77322   0.20625   0.00000  Uiso   1.00
O758   O     0.34816   0.87059   0.21775   0.00000  Uiso   1.00
O759   O     0.44995   0.76636   0.27875   0.00000  Uiso   1.00
O760   O     0.54139   0.90233   0.04888   0.00000  Uiso   1.00
O761   O     0.50000   0.89345   0.12709   0.00000  Uiso   1.00
O762   O     0.50000   0.77321   0.12706   0.00000  Uiso   1.00
O763   O     0.50000   0.89346   0.20628   0.00000  Uiso   1.00
O764   O     0.42495   0.83334   0.19712   0.00000  Uiso   1.00
O765   O     0.57505   0.83333   0.13621   0.00000  Uiso   1.00
O766   O     0.42494   0.83333   0.11793   0.00000  Uiso   1.00
O767   O     0.57506   0.83334   0.21540   0.00000  Uiso   1.00
O768   O     0.65162   0.79330   0.12097   0.00000  Uiso   1.00
C769   C     0.83460   0.75416   0.16591   0.00000  Uiso   1.00
C770   C     0.86084   0.69130   0.20309   0.00000  Uiso   1.00
C771   C     0.82918   0.95669   0.16740   0.00000  Uiso   1.00
C772   C     0.83661   0.70923   0.16419   0.00000  Uiso   1.00
C773   C     0.80140   0.80414   0.01984   0.00000  Uiso   1.00
C774   C     0.87050   0.85732   0.31436   0.00000  Uiso   1.00
C775   C     0.80087   0.80401   0.30317   0.00000  Uiso   1.00
C776   C     0.86574   0.86212   0.02978   0.00000  Uiso   1.00
C777   C     0.98031   0.80468   0.07449   0.00000  Uiso   1.00
C778   C     0.94337   0.77235   0.04457   0.00000  Uiso   1.00
C779   C     0.69924   0.90793   0.19848   0.00000  Uiso   1.00
C780   C     0.83072   0.91211   0.16684   0.00000  Uiso   1.00
C781   C     0.73255   0.93645   0.23622   0.00000  Uiso   1.00
C782   C     0.79954   0.67265   0.03843   0.00000  Uiso   1.00
C783   C     0.93974   0.96066   0.23436   0.00000  Uiso   1.00
C784   C     0.74709   0.92349   0.07254   0.00000  Uiso   1.00
C785   C     0.87393   0.72064   0.28176   0.00000  Uiso   1.00
C786   C     0.72584   0.74874   0.01684   0.00000  Uiso   1.00
C787   C     0.95874   0.89667   0.31806   0.00000  Uiso   1.00
C788   C     0.73709   0.76553   0.24714   0.00000  Uiso   1.00
C789   C     0.70661   0.72259   0.24141   0.00000  Uiso   1.00
C790   C     0.92042   0.91154   0.08130   0.00000  Uiso   1.00
C791   C     0.73459   0.83078   0.15468   0.00000  Uiso   1.00
C792   C     0.93431   0.95803   0.08717   0.00000  Uiso   1.00
C793   C     0.93219   0.83533   0.17855   0.00000  Uiso   1.00
C794   C     0.67854   0.82548   0.14982   0.00000  Uiso   1.00
C795   C     0.98824   0.84302   0.18267   0.00000  Uiso   1.00
C796   C     0.81405   0.68382   0.12448   0.00000  Uiso   1.00
C797   C     0.85864   0.98184   0.20394   0.00000  Uiso   1.00
C798   C     0.80162   0.97472   0.12989   0.00000  Uiso   1.00
Cu799  Cu    0.83333   0.83334   0.21355   0.00000  Uiso   1.00
Cu800  Cu    0.83333   0.83333   0.11978   0.00000  Uiso   1.00
H801   H     0.68438   0.80725   0.06172   0.00000  Uiso   1.00
H802   H     0.74857   0.96456   0.22049   0.00000  Uiso   1.00
H803   H     0.84331   0.72063   0.07628   0.00000  Uiso   1.00
H804   H     0.82413   0.98086   0.04091   0.00000  Uiso   1.00
H805   H     0.80725   0.68977   0.00786   0.00000  Uiso   1.00
H806   H     0.75812   0.99485   0.03217   0.00000  Uiso   1.00
H807   H     0.88316   0.97338   0.27402   0.00000  Uiso   1.00
H808   H     0.95070   0.97718   0.20372   0.00000  Uiso   1.00
H809   H     0.94276   0.92774   0.22849   0.00000  Uiso   1.00
H810   H     0.96654   0.97369   0.26562   0.00000  Uiso   1.00
H811   H     0.72420   0.97466   0.10421   0.00000  Uiso   1.00
H812   H     0.96479   0.83426   0.07020   0.00000  Uiso   1.00
H813   H     0.72207   0.93192   0.04135   0.00000  Uiso   1.00
H814   H     0.72802   0.89462   0.08403   0.00000  Uiso   1.00
H815   H     0.78430   0.91881   0.06179   0.00000  Uiso   1.00
H816   H     0.93122   0.71160   0.24218   0.00000  Uiso   1.00
H817   H     0.89698   0.70546   0.30961   0.00000  Uiso   1.00
H818   H     0.83330   0.70688   0.27797   0.00000  Uiso   1.00
H819   H     0.87629   0.75361   0.29170   0.00000  Uiso   1.00
H820   H     0.76654   0.77916   0.07383   0.00000  Uiso   1.00
H821   H     0.70370   0.73329   0.04241   0.00000  Uiso   1.00
H822   H     0.73666   0.72353   0.32962   0.00000  Uiso   1.00
H823   H     0.94689   0.77732   0.00767   0.00000  Uiso   1.00
H824   H     0.70120   0.76867   0.32965   0.00000  Uiso   1.00
H825   H     0.93480   0.83651   0.29636   0.00000  Uiso   1.00
H826   H     0.98358   0.90380   0.29150   0.00000  Uiso   1.00
H827   H     0.98496   0.88575   0.01334   0.00000  Uiso   1.00
H828   H     0.94199   0.92465   0.32673   0.00000  Uiso   1.00
H829   H     0.74671   0.76839   0.21207   0.00000  Uiso   1.00
H830   H     0.71255   0.78906   0.25573   0.00000  Uiso   1.00
H831   H     0.68065   0.71767   0.26762   0.00000  Uiso   1.00
H832   H     0.68196   0.71848   0.20686   0.00000  Uiso   1.00
H833   H     0.73308   0.69878   0.24374   0.00000  Uiso   1.00
H834   H     0.95244   0.74103   0.05299   0.00000  Uiso   1.00
H835   H     0.95331   0.89802   0.07205   0.00000  Uiso   1.00
H836   H     0.91612   0.90110   0.11600   0.00000  Uiso   1.00
H837   H     0.90233   0.97229   0.09904   0.00000  Uiso   1.00
H838   H     0.96886   0.96572   0.11374   0.00000  Uiso   1.00
H839   H     0.94221   0.97128   0.05394   0.00000  Uiso   1.00
H840   H     0.90346   0.77487   0.05034   0.00000  Uiso   1.00
H841   H     0.66687   0.92325   0.18175   0.00000  Uiso   1.00
H842   H     0.72330   0.90331   0.17131   0.00000  Uiso   1.00
H843   H     0.71022   0.94581   0.26308   0.00000  Uiso   1.00
H844   H     0.76465   0.92087   0.25327   0.00000  Uiso   1.00
N845   N     0.83335   0.83334   0.28403   0.00000  Uiso   1.00
N846   N     0.83332   0.83332   0.04931   0.00000  Uiso   1.00
N847   N     0.81147   0.70019   0.07924   0.00000  Uiso   1.00
N848   N     0.88763   0.96393   0.24095   0.00000  Uiso   1.00
N849   N     0.75208   0.95522   0.10918   0.00000  Uiso   1.00
N850   N     0.89350   0.71665   0.23840   0.00000  Uiso   1.00
N851   N     0.77161   0.77249   0.04078   0.00000  Uiso   1.00
N852   N     0.91970   0.86374   0.29989   0.00000  Uiso   1.00
O853   O     0.83333   0.77322   0.20625   0.00000  Uiso   1.00
O854   O     0.68150   0.87059   0.21775   0.00000  Uiso   1.00
O855   O     0.78328   0.76636   0.27875   0.00000  Uiso   1.00
O856   O     0.87472   0.90233   0.04888   0.00000  Uiso   1.00
O857   O     0.83334   0.89345   0.12709   0.00000  Uiso   1.00
O858   O     0.83333   0.77321   0.12706   0.00000  Uiso   1.00
O859   O     0.83334   0.89346   0.20628   0.00000  Uiso   1.00
O860   O     0.75828   0.83334   0.19712   0.00000  Uiso   1.00
O861   O     0.90839   0.83333   0.13621   0.00000  Uiso   1.00
O862   O     0.75828   0.83333   0.11793   0.00000  Uiso   1.00
O863   O     0.90839   0.83334   0.21540   0.00000  Uiso   1.00
O864   O     0.98495   0.79330   0.12097   0.00000  Uiso   1.00
C865   C     0.16793   0.08749   0.49925   0.00000  Uiso   1.00
C866   C     0.19418   0.02463   0.53642   0.00000  Uiso   1.00
C867   C     0.16251   0.29002   0.50074   0.00000  Uiso   1.00
C868   C     0.16994   0.04256   0.49753   0.00000  Uiso   1.00
C869   C     0.13473   0.13747   0.35318   0.00000  Uiso   1.00
C870   C     0.20383   0.19066   0.64769   0.00000  Uiso   1.00
C871   C     0.13420   0.13734   0.63650   0.00000  Uiso   1.00
C872   C     0.19907   0.19545   0.36311   0.00000  Uiso   1.00
C873   C     0.31364   0.13802   0.40782   0.00000  Uiso   1.00
C874   C     0.27671   0.10568   0.37790   0.00000  Uiso   1.00
C875   C     0.03257   0.24126   0.53181   0.00000  Uiso   1.00
C876   C     0.16406   0.24545   0.50017   0.00000  Uiso   1.00
C877   C     0.06588   0.26978   0.56956   0.00000  Uiso   1.00
C878   C     0.13288   0.00599   0.37176   0.00000  Uiso   1.00
C879   C     0.27308   0.29399   0.56770   0.00000  Uiso   1.00
C880   C     0.08042   0.25682   0.40587   0.00000  Uiso   1.00
C881   C     0.20727   0.05397   0.61510   0.00000  Uiso   1.00
C882   C     0.05917   0.08207   0.35018   0.00000  Uiso   1.00
C883   C     0.29207   0.23000   0.65139   0.00000  Uiso   1.00
C884   C     0.07043   0.09886   0.58048   0.00000  Uiso   1.00
C885   C     0.03994   0.05592   0.57474   0.00000  Uiso   1.00
C886   C     0.25376   0.24488   0.41463   0.00000  Uiso   1.00
C887   C     0.06792   0.16411   0.48802   0.00000  Uiso   1.00
C888   C     0.26765   0.29136   0.42050   0.00000  Uiso   1.00
C889   C     0.26553   0.16866   0.51189   0.00000  Uiso   1.00
C890   C     0.01188   0.15882   0.48316   0.00000  Uiso   1.00
C891   C     0.32158   0.17635   0.51600   0.00000  Uiso   1.00
C892   C     0.14739   0.01715   0.45782   0.00000  Uiso   1.00
C893   C     0.19197   0.31517   0.53727   0.00000  Uiso   1.00
C894   C     0.13495   0.30806   0.46322   0.00000  Uiso   1.00
Cu895  Cu    0.16667   0.16667   0.54689   0.00000  Uiso   1.00
Cu896  Cu    0.16667   0.16666   0.45311   0.00000  Uiso   1.00
H897   H     0.01771   0.14058   0.39506   0.00000  Uiso   1.00
H898   H     0.08190   0.29789   0.55382   0.00000  Uiso   1.00
H899   H     0.17665   0.05397   0.40962   0.00000  Uiso   1.00
H900   H     0.15746   0.31419   0.37425   0.00000  Uiso   1.00
H901   H     0.14058   0.02310   0.34120   0.00000  Uiso   1.00
H902   H     0.09145   0.32818   0.36551   0.00000  Uiso   1.00
H903   H     0.21649   0.30672   0.60735   0.00000  Uiso   1.00
H904   H     0.28403   0.31052   0.53705   0.00000  Uiso   1.00
H905   H     0.27610   0.26107   0.56183   0.00000  Uiso   1.00
H906   H     0.29987   0.30702   0.59895   0.00000  Uiso   1.00
H907   H     0.05754   0.30799   0.43755   0.00000  Uiso   1.00
H908   H     0.29812   0.16760   0.40353   0.00000  Uiso   1.00
H909   H     0.05540   0.26526   0.37469   0.00000  Uiso   1.00
H910   H     0.06135   0.22795   0.41737   0.00000  Uiso   1.00
H911   H     0.11763   0.25214   0.39512   0.00000  Uiso   1.00
H912   H     0.26455   0.04493   0.57551   0.00000  Uiso   1.00
H913   H     0.23032   0.03879   0.64294   0.00000  Uiso   1.00
H914   H     0.16663   0.04021   0.61130   0.00000  Uiso   1.00
H915   H     0.20963   0.08694   0.62503   0.00000  Uiso   1.00
H916   H     0.09987   0.11249   0.40717   0.00000  Uiso   1.00
H917   H     0.03703   0.06663   0.37574   0.00000  Uiso   1.00
H918   H     0.06999   0.05687   0.66295   0.00000  Uiso   1.00
H919   H     0.28023   0.11066   0.34101   0.00000  Uiso   1.00
H920   H     0.03453   0.10200   0.66298   0.00000  Uiso   1.00
H921   H     0.26813   0.16984   0.62969   0.00000  Uiso   1.00
H922   H     0.31692   0.23713   0.62483   0.00000  Uiso   1.00
H923   H     0.31830   0.21908   0.34668   0.00000  Uiso   1.00
H924   H     0.27532   0.25799   0.66006   0.00000  Uiso   1.00
H925   H     0.08004   0.10173   0.54540   0.00000  Uiso   1.00
H926   H     0.04588   0.12240   0.58907   0.00000  Uiso   1.00
H927   H     0.01399   0.05100   0.60095   0.00000  Uiso   1.00
H928   H     0.01529   0.05181   0.54020   0.00000  Uiso   1.00
H929   H     0.06642   0.03211   0.57707   0.00000  Uiso   1.00
H930   H     0.28577   0.07437   0.38632   0.00000  Uiso   1.00
H931   H     0.28664   0.23135   0.40538   0.00000  Uiso   1.00
H932   H     0.24946   0.23443   0.44933   0.00000  Uiso   1.00
H933   H     0.23566   0.30562   0.43237   0.00000  Uiso   1.00
H934   H     0.30219   0.29905   0.44707   0.00000  Uiso   1.00
H935   H     0.27554   0.30461   0.38727   0.00000  Uiso   1.00
H936   H     0.23679   0.10820   0.38367   0.00000  Uiso   1.00
H937   H     0.00021   0.25658   0.51508   0.00000  Uiso   1.00
H938   H     0.05663   0.23664   0.50464   0.00000  Uiso   1.00
H939   H     0.04355   0.27914   0.59641   0.00000  Uiso   1.00
H940   H     0.09798   0.25420   0.58661   0.00000  Uiso   1.00
N941   N     0.16668   0.16668   0.61736   0.00000  Uiso   1.00
N942   N     0.16665   0.16666   0.38264   0.00000  Uiso   1.00
N943   N     0.14480   0.03353   0.41258   0.00000  Uiso   1.00
N944   N     0.22096   0.29727   0.57429   0.00000  Uiso   1.00
N945   N     0.08541   0.28855   0.44252   0.00000  Uiso   1.00
N946   N     0.22683   0.04999   0.57173   0.00000  Uiso   1.00
N947   N     0.10494   0.10582   0.37411   0.00000  Uiso   1.00
N948   N     0.25303   0.19707   0.63322   0.00000  Uiso   1.00
O949   O     0.16666   0.10655   0.53958   0.00000  Uiso   1.00
O950   O     0.01483   0.20393   0.55108   0.00000  Uiso   1.00
O951   O     0.11661   0.09970   0.61208   0.00000  Uiso   1.00
O952   O     0.20806   0.23566   0.38221   0.00000  Uiso   1.00
O953   O     0.16667   0.22678   0.46042   0.00000  Uiso   1.00
O954   O     0.16666   0.10654   0.46039   0.00000  Uiso   1.00
O955   O     0.16667   0.22679   0.53961   0.00000  Uiso   1.00
O956   O     0.09161   0.16667   0.53046   0.00000  Uiso   1.00
O957   O     0.24172   0.16666   0.46954   0.00000  Uiso   1.00
O958   O     0.09161   0.16666   0.45127   0.00000  Uiso   1.00
O959   O     0.24172   0.16667   0.54873   0.00000  Uiso   1.00
O960   O     0.31828   0.12664   0.45430   0.00000  Uiso   1.00
C961   C     0.50126   0.08749   0.49925   0.00000  Uiso   1.00
C962   C     0.52751   0.02463   0.53642   0.00000  Uiso   1.00
C963   C     0.49584   0.29002   0.50074   0.00000  Uiso   1.00
C964   C     0.50327   0.04256   0.49753   0.00000  Uiso   1.00
C965   C     0.46807   0.13747   0.35318   0.00000  Uiso   1.00
C966   C     0.53717   0.19066   0.64769   0.00000  Uiso   1.00
C967   C     0.46753   0.13734   0.63650   0.00000  Uiso   1.00
C968   C     0.53240   0.19545   0.36311   0.00000  Uiso   1.00
C969   C     0.64698   0.13802   0.40782   0.00000  Uiso   1.00
C970   C     0.61004   0.10568   0.37790   0.00000  Uiso   1.00
C971   C     0.36591   0.24126   0.53181   0.00000  Uiso   1.00
C972   C     0.49739   0.24545   0.50017   0.00000  Uiso   1.00
C973   C     0.39921   0.26978   0.56956   0.00000  Uiso   1.00
C974   C     0.46621   0.00599   0.37176   0.00000  Uiso   1.00
C975   C     0.60641   0.29399   0.56770   0.00000  Uiso   1.00
C976   C     0.41375   0.25682   0.40587   0.00000  Uiso   1.00
C977   C     0.54060   0.05397   0.61510   0.00000  Uiso   1.00
C978   C     0.39251   0.08207   0.35018   0.00000  Uiso   1.00
C979   C     0.62541   0.23000   0.65139   0.00000  Uiso   1.00
C980   C     0.40376   0.09886   0.58048   0.00000  Uiso   1.00
C981   C     0.37327   0.05592   0.57474   0.00000  Uiso   1.00
C982   C     0.58709   0.24488   0.41463   0.00000  Uiso   1.00
C983   C     0.40125   0.16411   0.48802   0.00000  Uiso   1.00
C984   C     0.60098   0.29136   0.42050   0.00000  Uiso   1.00
C985   C     0.59886   0.16866   0.51189   0.00000  Uiso   1.00
C986   C     0.34521   0.15882   0.48316   0.00000  Uiso   1.00
C987   C     0.65491   0.17635   0.51600   0.00000  Uiso   1.00
C988   C     0.48072   0.01715   0.45782   0.00000  Uiso   1.00
C989   C     0.52531   0.31517   0.53727   0.00000  Uiso   1.00
C990   C     0.46828   0.30806   0.46322   0.00000  Uiso   1.00
Cu991  Cu    0.50000   0.16667   0.54689   0.00000  Uiso   1.00
Cu992  Cu    0.50000   0.16666   0.45311   0.00000  Uiso   1.00
H993   H     0.35105   0.14058   0.39506   0.00000  Uiso   1.00
H994   H     0.41524   0.29789   0.55382   0.00000  Uiso   1.00
H995   H     0.50998   0.05397   0.40962   0.00000  Uiso   1.00
H996   H     0.49079   0.31419   0.37425   0.00000  Uiso   1.00
H997   H     0.47391   0.02310   0.34120   0.00000  Uiso   1.00
H998   H     0.42479   0.32818   0.36551   0.00000  Uiso   1.00
H999   H     0.54982   0.30672   0.60735   0.00000  Uiso   1.00
H1000  H     0.61737   0.31052   0.53705   0.00000  Uiso   1.00
H1001  H     0.60943   0.26107   0.56183   0.00000  Uiso   1.00
H1002  H     0.63321   0.30702   0.59895   0.00000  Uiso   1.00
H1003  H     0.39087   0.30799   0.43755   0.00000  Uiso   1.00
H1004  H     0.63146   0.16760   0.40353   0.00000  Uiso   1.00
H1005  H     0.38874   0.26526   0.37469   0.00000  Uiso   1.00
H1006  H     0.39468   0.22795   0.41737   0.00000  Uiso   1.00
H1007  H     0.45096   0.25214   0.39512   0.00000  Uiso   1.00
H1008  H     0.59789   0.04493   0.57551   0.00000  Uiso   1.00
H1009  H     0.56365   0.03879   0.64294   0.00000  Uiso   1.00
H1010  H     0.49996   0.04021   0.61130   0.00000  Uiso   1.00
H1011  H     0.54296   0.08694   0.62503   0.00000  Uiso   1.00
H1012  H     0.43320   0.11249   0.40717   0.00000  Uiso   1.00
H1013  H     0.37036   0.06663   0.37574   0.00000  Uiso   1.00
H1014  H     0.40333   0.05687   0.66295   0.00000  Uiso   1.00
H1015  H     0.61356   0.11066   0.34101   0.00000  Uiso   1.00
H1016  H     0.36787   0.10200   0.66298   0.00000  Uiso   1.00
H1017  H     0.60147   0.16984   0.62969   0.00000  Uiso   1.00
H1018  H     0.65025   0.23713   0.62483   0.00000  Uiso   1.00
H1019  H     0.65163   0.21908   0.34668   0.00000  Uiso   1.00
H1020  H     0.60866   0.25799   0.66006   0.00000  Uiso   1.00
H1021  H     0.41337   0.10173   0.54540   0.00000  Uiso   1.00
H1022  H     0.37921   0.12240   0.58907   0.00000  Uiso   1.00
H1023  H     0.34732   0.05100   0.60095   0.00000  Uiso   1.00
H1024  H     0.34862   0.05181   0.54020   0.00000  Uiso   1.00
H1025  H     0.39975   0.03211   0.57707   0.00000  Uiso   1.00
H1026  H     0.61910   0.07437   0.38632   0.00000  Uiso   1.00
H1027  H     0.61998   0.23135   0.40538   0.00000  Uiso   1.00
H1028  H     0.58279   0.23443   0.44933   0.00000  Uiso   1.00
H1029  H     0.56900   0.30562   0.43237   0.00000  Uiso   1.00
H1030  H     0.63553   0.29905   0.44707   0.00000  Uiso   1.00
H1031  H     0.60887   0.30461   0.38727   0.00000  Uiso   1.00
H1032  H     0.57013   0.10820   0.38367   0.00000  Uiso   1.00
H1033  H     0.33354   0.25658   0.51508   0.00000  Uiso   1.00
H1034  H     0.38996   0.23664   0.50464   0.00000  Uiso   1.00
H1035  H     0.37689   0.27914   0.59641   0.00000  Uiso   1.00
H1036  H     0.43132   0.25420   0.58661   0.00000  Uiso   1.00
N1037  N     0.50001   0.16668   0.61736   0.00000  Uiso   1.00
N1038  N     0.49999   0.16666   0.38264   0.00000  Uiso   1.00
N1039  N     0.47813   0.03353   0.41258   0.00000  Uiso   1.00
N1040  N     0.55430   0.29727   0.57429   0.00000  Uiso   1.00
N1041  N     0.41874   0.28855   0.44252   0.00000  Uiso   1.00
N1042  N     0.56017   0.04999   0.57173   0.00000  Uiso   1.00
N1043  N     0.43827   0.10582   0.37411   0.00000  Uiso   1.00
N1044  N     0.58636   0.19707   0.63322   0.00000  Uiso   1.00
O1045  O     0.50000   0.10655   0.53958   0.00000  Uiso   1.00
O1046  O     0.34816   0.20393   0.55108   0.00000  Uiso   1.00
O1047  O     0.44995   0.09970   0.61208   0.00000  Uiso   1.00
O1048  O     0.54139   0.23566   0.38221   0.00000  Uiso   1.00
O1049  O     0.50000   0.22678   0.46042   0.00000  Uiso   1.00
O1050  O     0.50000   0.10654   0.46039   0.00000  Uiso   1.00
O1051  O     0.50000   0.22679   0.53961   0.00000  Uiso   1.00
O1052  O     0.42495   0.16667   0.53046   0.00000  Uiso   1.00
O1053  O     0.57505   0.16666   0.46954   0.00000  Uiso   1.00
O1054  O     0.42494   0.16666   0.45127   0.00000  Uiso   1.00
O1055  O     0.57506   0.16667   0.54873   0.00000  Uiso   1.00
O1056  O     0.65162   0.12664   0.45430   0.00000  Uiso   1.00
C1057  C     0.83460   0.08749   0.49925   0.00000  Uiso   1.00
C1058  C     0.86084   0.02463   0.53642   0.00000  Uiso   1.00
C1059  C     0.82918   0.29002   0.50074   0.00000  Uiso   1.00
C1060  C     0.83661   0.04256   0.49753   0.00000  Uiso   1.00
C1061  C     0.80140   0.13747   0.35318   0.00000  Uiso   1.00
C1062  C     0.87050   0.19066   0.64769   0.00000  Uiso   1.00
C1063  C     0.80087   0.13734   0.63650   0.00000  Uiso   1.00
C1064  C     0.86574   0.19545   0.36311   0.00000  Uiso   1.00
C1065  C     0.98031   0.13802   0.40782   0.00000  Uiso   1.00
C1066  C     0.94337   0.10568   0.37790   0.00000  Uiso   1.00
C1067  C     0.69924   0.24126   0.53181   0.00000  Uiso   1.00
C1068  C     0.83072   0.24545   0.50017   0.00000  Uiso   1.00
C1069  C     0.73255   0.26978   0.56956   0.00000  Uiso   1.00
C1070  C     0.79954   0.00599   0.37176   0.00000  Uiso   1.00
C1071  C     0.93974   0.29399   0.56770   0.00000  Uiso   1.00
C1072  C     0.74709   0.25682   0.40587   0.00000  Uiso   1.00
C1073  C     0.87393   0.05397   0.61510   0.00000  Uiso   1.00
C1074  C     0.72584   0.08207   0.35018   0.00000  Uiso   1.00
C1075  C     0.95874   0.23000   0.65139   0.00000  Uiso   1.00
C1076  C     0.73709   0.09886   0.58048   0.00000  Uiso   1.00
C1077  C     0.70661   0.05592   0.57474   0.00000  Uiso   1.00
C1078  C     0.92042   0.24488   0.41463   0.00000  Uiso   1.00
C1079  C     0.73459   0.16411   0.48802   0.00000  Uiso   1.00
C1080  C     0.93431   0.29136   0.42050   0.00000  Uiso   1.00
C1081  C     0.93219   0.16866   0.51189   0.00000  Uiso   1.00
C1082  C     0.67854   0.15882   0.48316   0.00000  Uiso   1.00
C1083  C     0.98824   0.17635   0.51600   0.00000  Uiso   1.00
C1084  C     0.81405   0.01715   0.45782   0.00000  Uiso   1.00
C1085  C     0.85864   0.31517   0.53727   0.00000  Uiso   1.00
C1086  C     0.80162   0.30806   0.46322   0.00000  Uiso   1.00
Cu1087 Cu    0.83333   0.16667   0.54689   0.00000  Uiso   1.00
Cu1088 Cu    0.83333   0.16666   0.45311   0.00000  Uiso   1.00
H1089  H     0.68438   0.14058   0.39506   0.00000  Uiso   1.00
H1090  H     0.74857   0.29789   0.55382   0.00000  Uiso   1.00
H1091  H     0.84331   0.05397   0.40962   0.00000  Uiso   1.00
H1092  H     0.82413   0.31419   0.37425   0.00000  Uiso   1.00
H1093  H     0.80725   0.02310   0.34120   0.00000  Uiso   1.00
H1094  H     0.75812   0.32818   0.36551   0.00000  Uiso   1.00
H1095  H     0.88316   0.30672   0.60735   0.00000  Uiso   1.00
H1096  H     0.95070   0.31052   0.53705   0.00000  Uiso   1.00
H1097  H     0.94276   0.26107   0.56183   0.00000  Uiso   1.00
H1098  H     0.96654   0.30702   0.59895   0.00000  Uiso   1.00
H1099  H     0.72420   0.30799   0.43755   0.00000  Uiso   1.00
H1100  H     0.96479   0.16760   0.40353   0.00000  Uiso   1.00
H1101  H     0.72207   0.26526   0.37469   0.00000  Uiso   1.00
H1102  H     0.72802   0.22795   0.41737   0.00000  Uiso   1.00
H1103  H     0.78430   0.25214   0.39512   0.00000  Uiso   1.00
H1104  H     0.93122   0.04493   0.57551   0.00000  Uiso   1.00
H1105  H     0.89698   0.03879   0.64294   0.00000  Uiso   1.00
H1106  H     0.83330   0.04021   0.61130   0.00000  Uiso   1.00
H1107  H     0.87629   0.08694   0.62503   0.00000  Uiso   1.00
H1108  H     0.76654   0.11249   0.40717   0.00000  Uiso   1.00
H1109  H     0.70370   0.06663   0.37574   0.00000  Uiso   1.00
H1110  H     0.73666   0.05687   0.66295   0.00000  Uiso   1.00
H1111  H     0.94689   0.11066   0.34101   0.00000  Uiso   1.00
H1112  H     0.70120   0.10200   0.66298   0.00000  Uiso   1.00
H1113  H     0.93480   0.16984   0.62969   0.00000  Uiso   1.00
H1114  H     0.98358   0.23713   0.62483   0.00000  Uiso   1.00
H1115  H     0.98496   0.21908   0.34668   0.00000  Uiso   1.00
H1116  H     0.94199   0.25799   0.66006   0.00000  Uiso   1.00
H1117  H     0.74671   0.10173   0.54540   0.00000  Uiso   1.00
H1118  H     0.71255   0.12240   0.58907   0.00000  Uiso   1.00
H1119  H     0.68065   0.05100   0.60095   0.00000  Uiso   1.00
H1120  H     0.68196   0.05181   0.54020   0.00000  Uiso   1.00
H1121  H     0.73308   0.03211   0.57707   0.00000  Uiso   1.00
H1122  H     0.95244   0.07437   0.38632   0.00000  Uiso   1.00
H1123  H     0.95331   0.23135   0.40538   0.00000  Uiso   1.00
H1124  H     0.91612   0.23443   0.44933   0.00000  Uiso   1.00
H1125  H     0.90233   0.30562   0.43237   0.00000  Uiso   1.00
H1126  H     0.96886   0.29905   0.44707   0.00000  Uiso   1.00
H1127  H     0.94221   0.30461   0.38727   0.00000  Uiso   1.00
H1128  H     0.90346   0.10820   0.38367   0.00000  Uiso   1.00
H1129  H     0.66687   0.25658   0.51508   0.00000  Uiso   1.00
H1130  H     0.72330   0.23664   0.50464   0.00000  Uiso   1.00
H1131  H     0.71022   0.27914   0.59641   0.00000  Uiso   1.00
H1132  H     0.76465   0.25420   0.58661   0.00000  Uiso   1.00
N1133  N     0.83335   0.16668   0.61736   0.00000  Uiso   1.00
N1134  N     0.83332   0.16666   0.38264   0.00000  Uiso   1.00
N1135  N     0.81147   0.03353   0.41258   0.00000  Uiso   1.00
N1136  N     0.88763   0.29727   0.57429   0.00000  Uiso   1.00
N1137  N     0.75208   0.28855   0.44252   0.00000  Uiso   1.00
N1138  N     0.89350   0.04999   0.57173   0.00000  Uiso   1.00
N1139  N     0.77161   0.10582   0.37411   0.00000  Uiso   1.00
N1140  N     0.91970   0.19707   0.63322   0.00000  Uiso   1.00
O1141  O     0.83333   0.10655   0.53958   0.00000  Uiso   1.00
O1142  O     0.68150   0.20393   0.55108   0.00000  Uiso   1.00
O1143  O     0.78328   0.09970   0.61208   0.00000  Uiso   1.00
O1144  O     0.87472   0.23566   0.38221   0.00000  Uiso   1.00
O1145  O     0.83334   0.22678   0.46042   0.00000  Uiso   1.00
O1146  O     0.83333   0.10654   0.46039   0.00000  Uiso   1.00
O1147  O     0.83334   0.22679   0.53961   0.00000  Uiso   1.00
O1148  O     0.75828   0.16667   0.53046   0.00000  Uiso   1.00
O1149  O     0.90839   0.16666   0.46954   0.00000  Uiso   1.00
O1150  O     0.75828   0.16666   0.45127   0.00000  Uiso   1.00
O1151  O     0.90839   0.16667   0.54873   0.00000  Uiso   1.00
O1152  O     0.98495   0.12664   0.45430   0.00000  Uiso   1.00
C1153  C     0.16793   0.42083   0.49925   0.00000  Uiso   1.00
C1154  C     0.19418   0.35797   0.53642   0.00000  Uiso   1.00
C1155  C     0.16251   0.62336   0.50074   0.00000  Uiso   1.00
C1156  C     0.16994   0.37590   0.49753   0.00000  Uiso   1.00
C1157  C     0.13473   0.47081   0.35318   0.00000  Uiso   1.00
C1158  C     0.20383   0.52399   0.64769   0.00000  Uiso   1.00
C1159  C     0.13420   0.47067   0.63650   0.00000  Uiso   1.00
C1160  C     0.19907   0.52879   0.36311   0.00000  Uiso   1.00
C1161  C     0.31364   0.47135   0.40782   0.00000  Uiso   1.00
C1162  C     0.27671   0.43901   0.37790   0.00000  Uiso   1.00
C1163  C     0.03257   0.57459   0.53181   0.00000  Uiso   1.00
C1164  C     0.16406   0.57878   0.50017   0.00000  Uiso   1.00
C1165  C     0.06588   0.60311   0.56956   0.00000  Uiso   1.00
C1166  C     0.13288   0.33932   0.37176   0.00000  Uiso   1.00
C1167  C     0.27308   0.62732   0.56770   0.00000  Uiso   1.00
C1168  C     0.08042   0.59015   0.40587   0.00000  Uiso   1.00
C1169  C     0.20727   0.38730   0.61510   0.00000  Uiso   1.00
C1170  C     0.05917   0.41541   0.35018   0.00000  Uiso   1.00
C1171  C     0.29207   0.56333   0.65139   0.00000  Uiso   1.00
C1172  C     0.07043   0.43220   0.58048   0.00000  Uiso   1.00
C1173  C     0.03994   0.38925   0.57474   0.00000  Uiso   1.00
C1174  C     0.25376   0.57821   0.41463   0.00000  Uiso   1.00
C1175  C     0.06792   0.49744   0.48802   0.00000  Uiso   1.00
C1176  C     0.26765   0.62470   0.42050   0.00000  Uiso   1.00
C1177  C     0.26553   0.50200   0.51189   0.00000  Uiso   1.00
C1178  C     0.01188   0.49215   0.48316   0.00000  Uiso   1.00
C1179  C     0.32158   0.50968   0.51600   0.00000  Uiso   1.00
C1180  C     0.14739   0.35049   0.45782   0.00000  Uiso   1.00
C1181  C     0.19197   0.64851   0.53727   0.00000  Uiso   1.00
C1182  C     0.13495   0.64139   0.46322   0.00000  Uiso   1.00
Cu1183 Cu    0.16667   0.50001   0.54689   0.00000  Uiso   1.00
Cu1184 Cu    0.16667   0.49999   0.45311   0.00000  Uiso   1.00
H1185  H     0.01771   0.47391   0.39506   0.00000  Uiso   1.00
H1186  H     0.08190   0.63122   0.55382   0.00000  Uiso   1.00
H1187  H     0.17665   0.38730   0.40962   0.00000  Uiso   1.00
H1188  H     0.15746   0.64753   0.37425   0.00000  Uiso   1.00
H1189  H     0.14058   0.35643   0.34120   0.00000  Uiso   1.00
H1190  H     0.09145   0.66152   0.36551   0.00000  Uiso   1.00
H1191  H     0.21649   0.64005   0.60735   0.00000  Uiso   1.00
H1192  H     0.28403   0.64385   0.53705   0.00000  Uiso   1.00
H1193  H     0.27610   0.59441   0.56183   0.00000  Uiso   1.00
H1194  H     0.29987   0.64036   0.59895   0.00000  Uiso   1.00
H1195  H     0.05754   0.64133   0.43755   0.00000  Uiso   1.00
H1196  H     0.29812   0.50093   0.40353   0.00000  Uiso   1.00
H1197  H     0.05540   0.59859   0.37469   0.00000  Uiso   1.00
H1198  H     0.06135   0.56129   0.41737   0.00000  Uiso   1.00
H1199  H     0.11763   0.58548   0.39512   0.00000  Uiso   1.00
H1200  H     0.26455   0.37827   0.57551   0.00000  Uiso   1.00
H1201  H     0.23032   0.37213   0.64294   0.00000  Uiso   1.00
H1202  H     0.16663   0.37354   0.61130   0.00000  Uiso   1.00
H1203  H     0.20963   0.42028   0.62503   0.00000  Uiso   1.00
H1204  H     0.09987   0.44583   0.40717   0.00000  Uiso   1.00
H1205  H     0.03703   0.39996   0.37574   0.00000  Uiso   1.00
H1206  H     0.06999   0.39020   0.66295   0.00000  Uiso   1.00
H1207  H     0.28023   0.44399   0.34101   0.00000  Uiso   1.00
H1208  H     0.03453   0.43533   0.66298   0.00000  Uiso   1.00
H1209  H     0.26813   0.50317   0.62969   0.00000  Uiso   1.00
H1210  H     0.31692   0.57047   0.62483   0.00000  Uiso   1.00
H1211  H     0.31830   0.55242   0.34668   0.00000  Uiso   1.00
H1212  H     0.27532   0.59132   0.66006   0.00000  Uiso   1.00
H1213  H     0.08004   0.43506   0.54540   0.00000  Uiso   1.00
H1214  H     0.04588   0.45573   0.58907   0.00000  Uiso   1.00
H1215  H     0.01399   0.38434   0.60095   0.00000  Uiso   1.00
H1216  H     0.01529   0.38514   0.54020   0.00000  Uiso   1.00
H1217  H     0.06642   0.36544   0.57707   0.00000  Uiso   1.00
H1218  H     0.28577   0.40770   0.38632   0.00000  Uiso   1.00
H1219  H     0.28664   0.56468   0.40538   0.00000  Uiso   1.00
H1220  H     0.24946   0.56777   0.44933   0.00000  Uiso   1.00
H1221  H     0.23566   0.63896   0.43237   0.00000  Uiso   1.00
H1222  H     0.30219   0.63238   0.44707   0.00000  Uiso   1.00
H1223  H     0.27554   0.63794   0.38727   0.00000  Uiso   1.00
H1224  H     0.23679   0.44153   0.38367   0.00000  Uiso   1.00
H1225  H     0.00021   0.58992   0.51508   0.00000  Uiso   1.00
H1226  H     0.05663   0.56998   0.50464   0.00000  Uiso   1.00
H1227  H     0.04355   0.61247   0.59641   0.00000  Uiso   1.00
H1228  H     0.09798   0.58754   0.58661   0.00000  Uiso   1.00
N1229  N     0.16668   0.50001   0.61736   0.00000  Uiso   1.00
N1230  N     0.16665   0.49999   0.38264   0.00000  Uiso   1.00
N1231  N     0.14480   0.36686   0.41258   0.00000  Uiso   1.00
N1232  N     0.22096   0.63060   0.57429   0.00000  Uiso   1.00
N1233  N     0.08541   0.62189   0.44252   0.00000  Uiso   1.00
N1234  N     0.22683   0.38332   0.57173   0.00000  Uiso   1.00
N1235  N     0.10494   0.43915   0.37411   0.00000  Uiso   1.00
N1236  N     0.25303   0.53041   0.63322   0.00000  Uiso   1.00
O1237  O     0.16666   0.43989   0.53958   0.00000  Uiso   1.00
O1238  O     0.01483   0.53726   0.55108   0.00000  Uiso   1.00
O1239  O     0.11661   0.43303   0.61208   0.00000  Uiso   1.00
O1240  O     0.20806   0.56899   0.38221   0.00000  Uiso   1.00
O1241  O     0.16667   0.56011   0.46042   0.00000  Uiso   1.00
O1242  O     0.16666   0.43988   0.46039   0.00000  Uiso   1.00
O1243  O     0.16667   0.56012   0.53961   0.00000  Uiso   1.00
O1244  O     0.09161   0.50000   0.53046   0.00000  Uiso   1.00
O1245  O     0.24172   0.50000   0.46954   0.00000  Uiso   1.00
O1246  O     0.09161   0.49999   0.45127   0.00000  Uiso   1.00
O1247  O     0.24172   0.50001   0.54873   0.00000  Uiso   1.00
O1248  O     0.31828   0.45997   0.45430   0.00000  Uiso   1.00
C1249  C     0.50126   0.42083   0.49925   0.00000  Uiso   1.00
C1250  C     0.52751   0.35797   0.53642   0.00000  Uiso   1.00
C1251  C     0.49584   0.62336   0.50074   0.00000  Uiso   1.00
C1252  C     0.50327   0.37590   0.49753   0.00000  Uiso   1.00
C1253  C     0.46807   0.47081   0.35318   0.00000  Uiso   1.00
C1254  C     0.53717   0.52399   0.64769   0.00000  Uiso   1.00
C1255  C     0.46753   0.47067   0.63650   0.00000  Uiso   1.00
C1256  C     0.53240   0.52879   0.36311   0.00000  Uiso   1.00
C1257  C     0.64698   0.47135   0.40782   0.00000  Uiso   1.00
C1258  C     0.61004   0.43901   0.37790   0.00000  Uiso   1.00
C1259  C     0.36591   0.57459   0.53181   0.00000  Uiso   1.00
C1260  C     0.49739   0.57878   0.50017   0.00000  Uiso   1.00
C1261  C     0.39921   0.60311   0.56956   0.00000  Uiso   1.00
C1262  C     0.46621   0.33932   0.37176   0.00000  Uiso   1.00
C1263  C     0.60641   0.62732   0.56770   0.00000  Uiso   1.00
C1264  C     0.41375   0.59015   0.40587   0.00000  Uiso   1.00
C1265  C     0.54060   0.38730   0.61510   0.00000  Uiso   1.00
C1266  C     0.39251   0.41541   0.35018   0.00000  Uiso   1.00
C1267  C     0.62541   0.56333   0.65139   0.00000  Uiso   1.00
C1268  C     0.40376   0.43220   0.58048   0.00000  Uiso   1.00
C1269  C     0.37327   0.38925   0.57474   0.00000  Uiso   1.00
C1270  C     0.58709   0.57821   0.41463   0.00000  Uiso   1.00
C1271  C     0.40125   0.49744   0.48802   0.00000  Uiso   1.00
C1272  C     0.60098   0.62470   0.42050   0.00000  Uiso   1.00
C1273  C     0.59886   0.50200   0.51189   0.00000  Uiso   1.00
C1274  C     0.34521   0.49215   0.48316   0.00000  Uiso   1.00
C1275  C     0.65491   0.50968   0.51600   0.00000  Uiso   1.00
C1276  C     0.48072   0.35049   0.45782   0.00000  Uiso   1.00
C1277  C     0.52531   0.64851   0.53727   0.00000  Uiso   1.00
C1278  C     0.46828   0.64139   0.46322   0.00000  Uiso   1.00
Cu1279 Cu    0.50000   0.50001   0.54689   0.00000  Uiso   1.00
Cu1280 Cu    0.50000   0.49999   0.45311   0.00000  Uiso   1.00
H1281  H     0.35105   0.47391   0.39506   0.00000  Uiso   1.00
H1282  H     0.41524   0.63122   0.55382   0.00000  Uiso   1.00
H1283  H     0.50998   0.38730   0.40962   0.00000  Uiso   1.00
H1284  H     0.49079   0.64753   0.37425   0.00000  Uiso   1.00
H1285  H     0.47391   0.35643   0.34120   0.00000  Uiso   1.00
H1286  H     0.42479   0.66152   0.36551   0.00000  Uiso   1.00
H1287  H     0.54982   0.64005   0.60735   0.00000  Uiso   1.00
H1288  H     0.61737   0.64385   0.53705   0.00000  Uiso   1.00
H1289  H     0.60943   0.59441   0.56183   0.00000  Uiso   1.00
H1290  H     0.63321   0.64036   0.59895   0.00000  Uiso   1.00
H1291  H     0.39087   0.64133   0.43755   0.00000  Uiso   1.00
H1292  H     0.63146   0.50093   0.40353   0.00000  Uiso   1.00
H1293  H     0.38874   0.59859   0.37469   0.00000  Uiso   1.00
H1294  H     0.39468   0.56129   0.41737   0.00000  Uiso   1.00
H1295  H     0.45096   0.58548   0.39512   0.00000  Uiso   1.00
H1296  H     0.59789   0.37827   0.57551   0.00000  Uiso   1.00
H1297  H     0.56365   0.37213   0.64294   0.00000  Uiso   1.00
H1298  H     0.49996   0.37354   0.61130   0.00000  Uiso   1.00
H1299  H     0.54296   0.42028   0.62503   0.00000  Uiso   1.00
H1300  H     0.43320   0.44583   0.40717   0.00000  Uiso   1.00
H1301  H     0.37036   0.39996   0.37574   0.00000  Uiso   1.00
H1302  H     0.40333   0.39020   0.66295   0.00000  Uiso   1.00
H1303  H     0.61356   0.44399   0.34101   0.00000  Uiso   1.00
H1304  H     0.36787   0.43533   0.66298   0.00000  Uiso   1.00
H1305  H     0.60147   0.50317   0.62969   0.00000  Uiso   1.00
H1306  H     0.65025   0.57047   0.62483   0.00000  Uiso   1.00
H1307  H     0.65163   0.55242   0.34668   0.00000  Uiso   1.00
H1308  H     0.60866   0.59132   0.66006   0.00000  Uiso   1.00
H1309  H     0.41337   0.43506   0.54540   0.00000  Uiso   1.00
H1310  H     0.37921   0.45573   0.58907   0.00000  Uiso   1.00
H1311  H     0.34732   0.38434   0.60095   0.00000  Uiso   1.00
H1312  H     0.34862   0.38514   0.54020   0.00000  Uiso   1.00
H1313  H     0.39975   0.36544   0.57707   0.00000  Uiso   1.00
H1314  H     0.61910   0.40770   0.38632   0.00000  Uiso   1.00
H1315  H     0.61998   0.56468   0.40538   0.00000  Uiso   1.00
H1316  H     0.58279   0.56777   0.44933   0.00000  Uiso   1.00
H1317  H     0.56900   0.63896   0.43237   0.00000  Uiso   1.00
H1318  H     0.63553   0.63238   0.44707   0.00000  Uiso   1.00
H1319  H     0.60887   0.63794   0.38727   0.00000  Uiso   1.00
H1320  H     0.57013   0.44153   0.38367   0.00000  Uiso   1.00
H1321  H     0.33354   0.58992   0.51508   0.00000  Uiso   1.00
H1322  H     0.38996   0.56998   0.50464   0.00000  Uiso   1.00
H1323  H     0.37689   0.61247   0.59641   0.00000  Uiso   1.00
H1324  H     0.43132   0.58754   0.58661   0.00000  Uiso   1.00
N1325  N     0.50001   0.50001   0.61736   0.00000  Uiso   1.00
N1326  N     0.49999   0.49999   0.38264   0.00000  Uiso   1.00
N1327  N     0.47813   0.36686   0.41258   0.00000  Uiso   1.00
N1328  N     0.55430   0.63060   0.57429   0.00000  Uiso   1.00
N1329  N     0.41874   0.62189   0.44252   0.00000  Uiso   1.00
N1330  N     0.56017   0.38332   0.57173   0.00000  Uiso   1.00
N1331  N     0.43827   0.43915   0.37411   0.00000  Uiso   1.00
N1332  N     0.58636   0.53041   0.63322   0.00000  Uiso   1.00
O1333  O     0.50000   0.43989   0.53958   0.00000  Uiso   1.00
O1334  O     0.34816   0.53726   0.55108   0.00000  Uiso   1.00
O1335  O     0.44995   0.43303   0.61208   0.00000  Uiso   1.00
O1336  O     0.54139   0.56899   0.38221   0.00000  Uiso   1.00
O1337  O     0.50000   0.56011   0.46042   0.00000  Uiso   1.00
O1338  O     0.50000   0.43988   0.46039   0.00000  Uiso   1.00
O1339  O     0.50000   0.56012   0.53961   0.00000  Uiso   1.00
O1340  O     0.42495   0.50000   0.53046   0.00000  Uiso   1.00
O1341  O     0.57505   0.50000   0.46954   0.00000  Uiso   1.00
O1342  O     0.42494   0.49999   0.45127   0.00000  Uiso   1.00
O1343  O     0.57506   0.50001   0.54873   0.00000  Uiso   1.00
O1344  O     0.65162   0.45997   0.45430   0.00000  Uiso   1.00
C1345  C     0.83460   0.42083   0.49925   0.00000  Uiso   1.00
C1346  C     0.86084   0.35797   0.53642   0.00000  Uiso   1.00
C1347  C     0.82918   0.62336   0.50074   0.00000  Uiso   1.00
C1348  C     0.83661   0.37590   0.49753   0.00000  Uiso   1.00
C1349  C     0.80140   0.47081   0.35318   0.00000  Uiso   1.00
C1350  C     0.87050   0.52399   0.64769   0.00000  Uiso   1.00
C1351  C     0.80087   0.47067   0.63650   0.00000  Uiso   1.00
C1352  C     0.86574   0.52879   0.36311   0.00000  Uiso   1.00
C1353  C     0.98031   0.47135   0.40782   0.00000  Uiso   1.00
C1354  C     0.94337   0.43901   0.37790   0.00000  Uiso   1.00
C1355  C     0.69924   0.57459   0.53181   0.00000  Uiso   1.00
C1356  C     0.83072   0.57878   0.50017   0.00000  Uiso   1.00
C1357  C     0.73255   0.60311   0.56956   0.00000  Uiso   1.00
C1358  C     0.79954   0.33932   0.37176   0.00000  Uiso   1.00
C1359  C     0.93974   0.62732   0.56770   0.00000  Uiso   1.00
C1360  C     0.74709   0.59015   0.40587   0.00000  Uiso   1.00
C1361  C     0.87393   0.38730   0.61510   0.00000  Uiso   1.00
C1362  C     0.72584   0.41541   0.35018   0.00000  Uiso   1.00
C1363  C     0.95874   0.56333   0.65139   0.00000  Uiso   1.00
C1364  C     0.73709   0.43220   0.58048   0.00000  Uiso   1.00
C1365  C     0.70661   0.38925   0.57474   0.00000  Uiso   1.00
C1366  C     0.92042   0.57821   0.41463   0.00000  Uiso   1.00
C1367  C     0.73459   0.49744   0.48802   0.00000  Uiso   1.00
C1368  C     0.93431   0.62470   0.42050   0.00000  Uiso   1.00
C1369  C     0.93219   0.50200   0.51189   0.00000  Uiso   1.00
C1370  C     0.67854   0.49215   0.48316   0.00000  Uiso   1.00
C1371  C     0.98824   0.50968   0.51600   0.00000  Uiso   1.00
C1372  C     0.81405   0.35049   0.45782   0.00000  Uiso   1.00
C1373  C     0.85864   0.64851   0.53727   0.00000  Uiso   1.00
C1374  C     0.80162   0.64139   0.46322   0.00000  Uiso   1.00
Cu1375 Cu    0.83333   0.50001   0.54689   0.00000  Uiso   1.00
Cu1376 Cu    0.83333   0.49999   0.45311   0.00000  Uiso   1.00
H1377  H     0.68438   0.47391   0.39506   0.00000  Uiso   1.00
H1378  H     0.74857   0.63122   0.55382   0.00000  Uiso   1.00
H1379  H     0.84331   0.38730   0.40962   0.00000  Uiso   1.00
H1380  H     0.82413   0.64753   0.37425   0.00000  Uiso   1.00
H1381  H     0.80725   0.35643   0.34120   0.00000  Uiso   1.00
H1382  H     0.75812   0.66152   0.36551   0.00000  Uiso   1.00
H1383  H     0.88316   0.64005   0.60735   0.00000  Uiso   1.00
H1384  H     0.95070   0.64385   0.53705   0.00000  Uiso   1.00
H1385  H     0.94276   0.59441   0.56183   0.00000  Uiso   1.00
H1386  H     0.96654   0.64036   0.59895   0.00000  Uiso   1.00
H1387  H     0.72420   0.64133   0.43755   0.00000  Uiso   1.00
H1388  H     0.96479   0.50093   0.40353   0.00000  Uiso   1.00
H1389  H     0.72207   0.59859   0.37469   0.00000  Uiso   1.00
H1390  H     0.72802   0.56129   0.41737   0.00000  Uiso   1.00
H1391  H     0.78430   0.58548   0.39512   0.00000  Uiso   1.00
H1392  H     0.93122   0.37827   0.57551   0.00000  Uiso   1.00
H1393  H     0.89698   0.37213   0.64294   0.00000  Uiso   1.00
H1394  H     0.83330   0.37354   0.61130   0.00000  Uiso   1.00
H1395  H     0.87629   0.42028   0.62503   0.00000  Uiso   1.00
H1396  H     0.76654   0.44583   0.40717   0.00000  Uiso   1.00
H1397  H     0.70370   0.39996   0.37574   0.00000  Uiso   1.00
H1398  H     0.73666   0.39020   0.66295   0.00000  Uiso   1.00
H1399  H     0.94689   0.44399   0.34101   0.00000  Uiso   1.00
H1400  H     0.70120   0.43533   0.66298   0.00000  Uiso   1.00
H1401  H     0.93480   0.50317   0.62969   0.00000  Uiso   1.00
H1402  H     0.98358   0.57047   0.62483   0.00000  Uiso   1.00
H1403  H     0.98496   0.55242   0.34668   0.00000  Uiso   1.00
H1404  H     0.94199   0.59132   0.66006   0.00000  Uiso   1.00
H1405  H     0.74671   0.43506   0.54540   0.00000  Uiso   1.00
H1406  H     0.71255   0.45573   0.58907   0.00000  Uiso   1.00
H1407  H     0.68065   0.38434   0.60095   0.00000  Uiso   1.00
H1408  H     0.68196   0.38514   0.54020   0.00000  Uiso   1.00
H1409  H     0.73308   0.36544   0.57707   0.00000  Uiso   1.00
H1410  H     0.95244   0.40770   0.38632   0.00000  Uiso   1.00
H1411  H     0.95331   0.56468   0.40538   0.00000  Uiso   1.00
H1412  H     0.91612   0.56777   0.44933   0.00000  Uiso   1.00
H1413  H     0.90233   0.63896   0.43237   0.00000  Uiso   1.00
H1414  H     0.96886   0.63238   0.44707   0.00000  Uiso   1.00
H1415  H     0.94221   0.63794   0.38727   0.00000  Uiso   1.00
H1416  H     0.90346   0.44153   0.38367   0.00000  Uiso   1.00
H1417  H     0.66687   0.58992   0.51508   0.00000  Uiso   1.00
H1418  H     0.72330   0.56998   0.50464   0.00000  Uiso   1.00
H1419  H     0.71022   0.61247   0.59641   0.00000  Uiso   1.00
H1420  H     0.76465   0.58754   0.58661   0.00000  Uiso   1.00
N1421  N     0.83335   0.50001   0.61736   0.00000  Uiso   1.00
N1422  N     0.83332   0.49999   0.38264   0.00000  Uiso   1.00
N1423  N     0.81147   0.36686   0.41258   0.00000  Uiso   1.00
N1424  N     0.88763   0.63060   0.57429   0.00000  Uiso   1.00
N1425  N     0.75208   0.62189   0.44252   0.00000  Uiso   1.00
N1426  N     0.89350   0.38332   0.57173   0.00000  Uiso   1.00
N1427  N     0.77161   0.43915   0.37411   0.00000  Uiso   1.00
N1428  N     0.91970   0.53041   0.63322   0.00000  Uiso   1.00
O1429  O     0.83333   0.43989   0.53958   0.00000  Uiso   1.00
O1430  O     0.68150   0.53726   0.55108   0.00000  Uiso   1.00
O1431  O     0.78328   0.43303   0.61208   0.00000  Uiso   1.00
O1432  O     0.87472   0.56899   0.38221   0.00000  Uiso   1.00
O1433  O     0.83334   0.56011   0.46042   0.00000  Uiso   1.00
O1434  O     0.83333   0.43988   0.46039   0.00000  Uiso   1.00
O1435  O     0.83334   0.56012   0.53961   0.00000  Uiso   1.00
O1436  O     0.75828   0.50000   0.53046   0.00000  Uiso   1.00
O1437  O     0.90839   0.50000   0.46954   0.00000  Uiso   1.00
O1438  O     0.75828   0.49999   0.45127   0.00000  Uiso   1.00
O1439  O     0.90839   0.50001   0.54873   0.00000  Uiso   1.00
O1440  O     0.98495   0.45997   0.45430   0.00000  Uiso   1.00
C1441  C     0.16793   0.75416   0.49925   0.00000  Uiso   1.00
C1442  C     0.19418   0.69130   0.53642   0.00000  Uiso   1.00
C1443  C     0.16251   0.95669   0.50074   0.00000  Uiso   1.00
C1444  C     0.16994   0.70923   0.49753   0.00000  Uiso   1.00
C1445  C     0.13473   0.80414   0.35318   0.00000  Uiso   1.00
C1446  C     0.20383   0.85732   0.64769   0.00000  Uiso   1.00
C1447  C     0.13420   0.80401   0.63650   0.00000  Uiso   1.00
C1448  C     0.19907   0.86212   0.36311   0.00000  Uiso   1.00
C1449  C     0.31364   0.80468   0.40782   0.00000  Uiso   1.00
C1450  C     0.27671   0.77235   0.37790   0.00000  Uiso   1.00
C1451  C     0.03257   0.90793   0.53181   0.00000  Uiso   1.00
C1452  C     0.16406   0.91211   0.50017   0.00000  Uiso   1.00
C1453  C     0.06588   0.93645   0.56956   0.00000  Uiso   1.00
C1454  C     0.13288   0.67265   0.37176   0.00000  Uiso   1.00
C1455  C     0.27308   0.96066   0.56770   0.00000  Uiso   1.00
C1456  C     0.08042   0.92349   0.40587   0.00000  Uiso   1.00
C1457  C     0.20727   0.72064   0.61510   0.00000  Uiso   1.00
C1458  C     0.05917   0.74874   0.35018   0.00000  Uiso   1.00
C1459  C     0.29207   0.89667   0.65139   0.00000  Uiso   1.00
C1460  C     0.07043   0.76553   0.58048   0.00000  Uiso   1.00
C1461  C     0.03994   0.72259   0.57474   0.00000  Uiso   1.00
C1462  C     0.25376   0.91154   0.41463   0.00000  Uiso   1.00
C1463  C     0.06792   0.83078   0.48802   0.00000  Uiso   1.00
C1464  C     0.26765   0.95803   0.42050   0.00000  Uiso   1.00
C1465  C     0.26553   0.83533   0.51189   0.00000  Uiso   1.00
C1466  C     0.01188   0.82548   0.48316   0.00000  Uiso   1.00
C1467  C     0.32158   0.84302   0.51600   0.00000  Uiso   1.00
C1468  C     0.14739   0.68382   0.45782   0.00000  Uiso   1.00
C1469  C     0.19197   0.98184   0.53727   0.00000  Uiso   1.00
C1470  C     0.13495   0.97472   0.46322   0.00000  Uiso   1.00
Cu1471 Cu    0.16667   0.83334   0.54689   0.00000  Uiso   1.00
Cu1472 Cu    0.16667   0.83333   0.45311   0.00000  Uiso   1.00
H1473  H     0.01771   0.80725   0.39506   0.00000  Uiso   1.00
H1474  H     0.08190   0.96456   0.55382   0.00000  Uiso   1.00
H1475  H     0.17665   0.72063   0.40962   0.00000  Uiso   1.00
H1476  H     0.15746   0.98086   0.37425   0.00000  Uiso   1.00
H1477  H     0.14058   0.68977   0.34120   0.00000  Uiso   1.00
H1478  H     0.09145   0.99485   0.36551   0.00000  Uiso   1.00
H1479  H     0.21649   0.97338   0.60735   0.00000  Uiso   1.00
H1480  H     0.28403   0.97718   0.53705   0.00000  Uiso   1.00
H1481  H     0.27610   0.92774   0.56183   0.00000  Uiso   1.00
H1482  H     0.29987   0.97369   0.59895   0.00000  Uiso   1.00
H1483  H     0.05754   0.97466   0.43755   0.00000  Uiso   1.00
H1484  H     0.29812   0.83426   0.40353   0.00000  Uiso   1.00
H1485  H     0.05540   0.93192   0.37469   0.00000  Uiso   1.00
H1486  H     0.06135   0.89462   0.41737   0.00000  Uiso   1.00
H1487  H     0.11763   0.91881   0.39512   0.00000  Uiso   1.00
H1488  H     0.26455   0.71160   0.57551   0.00000  Uiso   1.00
H1489  H     0.23032   0.70546   0.64294   0.00000  Uiso   1.00
H1490  H     0.16663   0.70688   0.61130   0.00000  Uiso   1.00
H1491  H     0.20963   0.75361   0.62503   0.00000  Uiso   1.00
H1492  H     0.09987   0.77916   0.40717   0.00000  Uiso   1.00
H1493  H     0.03703   0.73329   0.37574   0.00000  Uiso   1.00
H1494  H     0.06999   0.72353   0.66295   0.00000  Uiso   1.00
H1495  H     0.28023   0.77732   0.34101   0.00000  Uiso   1.00
H1496  H     0.03453   0.76867   0.66298   0.00000  Uiso   1.00
H1497  H     0.26813   0.83651   0.62969   0.00000  Uiso   1.00
H1498  H     0.31692   0.90380   0.62483   0.00000  Uiso   1.00
H1499  H     0.31830   0.88575   0.34668   0.00000  Uiso   1.00
H1500  H     0.27532   0.92465   0.66006   0.00000  Uiso   1.00
H1501  H     0.08004   0.76839   0.54540   0.00000  Uiso   1.00
H1502  H     0.04588   0.78906   0.58907   0.00000  Uiso   1.00
H1503  H     0.01399   0.71767   0.60095   0.00000  Uiso   1.00
H1504  H     0.01529   0.71848   0.54020   0.00000  Uiso   1.00
H1505  H     0.06642   0.69878   0.57707   0.00000  Uiso   1.00
H1506  H     0.28577   0.74103   0.38632   0.00000  Uiso   1.00
H1507  H     0.28664   0.89802   0.40538   0.00000  Uiso   1.00
H1508  H     0.24946   0.90110   0.44933   0.00000  Uiso   1.00
H1509  H     0.23566   0.97229   0.43237   0.00000  Uiso   1.00
H1510  H     0.30219   0.96572   0.44707   0.00000  Uiso   1.00
H1511  H     0.27554   0.97128   0.38727   0.00000  Uiso   1.00
H1512  H     0.23679   0.77487   0.38367   0.00000  Uiso   1.00
H1513  H     0.00021   0.92325   0.51508   0.00000  Uiso   1.00
H1514  H     0.05663   0.90331   0.50464   0.00000  Uiso   1.00
H1515  H     0.04355   0.94581   0.59641   0.00000  Uiso   1.00
H1516  H     0.09798   0.92087   0.58661   0.00000  Uiso   1.00
N1517  N     0.16668   0.83334   0.61736   0.00000  Uiso   1.00
N1518  N     0.16665   0.83332   0.38264   0.00000  Uiso   1.00
N1519  N     0.14480   0.70019   0.41258   0.00000  Uiso   1.00
N1520  N     0.22096   0.96393   0.57429   0.00000  Uiso   1.00
N1521  N     0.08541   0.95522   0.44252   0.00000  Uiso   1.00
N1522  N     0.22683   0.71665   0.57173   0.00000  Uiso   1.00
N1523  N     0.10494   0.77249   0.37411   0.00000  Uiso   1.00
N1524  N     0.25303   0.86374   0.63322   0.00000  Uiso   1.00
O1525  O     0.16666   0.77322   0.53958   0.00000  Uiso   1.00
O1526  O     0.01483   0.87059   0.55108   0.00000  Uiso   1.00
O1527  O     0.11661   0.76636   0.61208   0.00000  Uiso   1.00
O1528  O     0.20806   0.90233   0.38221   0.00000  Uiso   1.00
O1529  O     0.16667   0.89345   0.46042   0.00000  Uiso   1.00
O1530  O     0.16666   0.77321   0.46039   0.00000  Uiso   1.00
O1531  O     0.16667   0.89346   0.53961   0.00000  Uiso   1.00
O1532  O     0.09161   0.83334   0.53046   0.00000  Uiso   1.00
O1533  O     0.24172   0.83333   0.46954   0.00000  Uiso   1.00
O1534  O     0.09161   0.83333   0.45127   0.00000  Uiso   1.00
O1535  O     0.24172   0.83334   0.54873   0.00000  Uiso   1.00
O1536  O     0.31828   0.79330   0.45430   0.00000  Uiso   1.00
C1537  C     0.50126   0.75416   0.49925   0.00000  Uiso   1.00
C1538  C     0.52751   0.69130   0.53642   0.00000  Uiso   1.00
C1539  C     0.49584   0.95669   0.50074   0.00000  Uiso   1.00
C1540  C     0.50327   0.70923   0.49753   0.00000  Uiso   1.00
C1541  C     0.46807   0.80414   0.35318   0.00000  Uiso   1.00
C1542  C     0.53717   0.85732   0.64769   0.00000  Uiso   1.00
C1543  C     0.46753   0.80401   0.63650   0.00000  Uiso   1.00
C1544  C     0.53240   0.86212   0.36311   0.00000  Uiso   1.00
C1545  C     0.64698   0.80468   0.40782   0.00000  Uiso   1.00
C1546  C     0.61004   0.77235   0.37790   0.00000  Uiso   1.00
C1547  C     0.36591   0.90793   0.53181   0.00000  Uiso   1.00
C1548  C     0.49739   0.91211   0.50017   0.00000  Uiso   1.00
C1549  C     0.39921   0.93645   0.56956   0.00000  Uiso   1.00
C1550  C     0.46621   0.67265   0.37176   0.00000  Uiso   1.00
C1551  C     0.60641   0.96066   0.56770   0.00000  Uiso   1.00
C1552  C     0.41375   0.92349   0.40587   0.00000  Uiso   1.00
C1553  C     0.54060   0.72064   0.61510   0.00000  Uiso   1.00
C1554  C     0.39251   0.74874   0.35018   0.00000  Uiso   1.00
C1555  C     0.62541   0.89667   0.65139   0.00000  Uiso   1.00
C1556  C     0.40376   0.76553   0.58048   0.00000  Uiso   1.00
C1557  C     0.37327   0.72259   0.57474   0.00000  Uiso   1.00
C1558  C     0.58709   0.91154   0.41463   0.00000  Uiso   1.00
C1559  C     0.40125   0.83078   0.48802   0.00000  Uiso   1.00
C1560  C     0.60098   0.95803   0.42050   0.00000  Uiso   1.00
C1561  C     0.59886   0.83533   0.51189   0.00000  Uiso   1.00
C1562  C     0.34521   0.82548   0.48316   0.00000  Uiso   1.00
C1563  C     0.65491   0.84302   0.51600   0.00000  Uiso   1.00
C1564  C     0.48072   0.68382   0.45782   0.00000  Uiso   1.00
C1565  C     0.52531   0.98184   0.53727   0.00000  Uiso   1.00
C1566  C     0.46828   0.97472   0.46322   0.00000  Uiso   1.00
Cu1567 Cu    0.50000   0.83334   0.54689   0.00000  Uiso   1.00
Cu1568 Cu    0.50000   0.83333   0.45311   0.00000  Uiso   1.00
H1569  H     0.35105   0.80725   0.39506   0.00000  Uiso   1.00
H1570  H     0.41524   0.96456   0.55382   0.00000  Uiso   1.00
H1571  H     0.50998   0.72063   0.40962   0.00000  Uiso   1.00
H1572  H     0.49079   0.98086   0.37425   0.00000  Uiso   1.00
H1573  H     0.47391   0.68977   0.34120   0.00000  Uiso   1.00
H1574  H     0.42479   0.99485   0.36551   0.00000  Uiso   1.00
H1575  H     0.54982   0.97338   0.60735   0.00000  Uiso   1.00
H1576  H     0.61737   0.97718   0.53705   0.00000  Uiso   1.00
H1577  H     0.60943   0.92774   0.56183   0.00000  Uiso   1.00
H1578  H     0.63321   0.97369   0.59895   0.00000  Uiso   1.00
H1579  H     0.39087   0.97466   0.43755   0.00000  Uiso   1.00
H1580  H     0.63146   0.83426   0.40353   0.00000  Uiso   1.00
H1581  H     0.38874   0.93192   0.37469   0.00000  Uiso   1.00
H1582  H     0.39468   0.89462   0.41737   0.00000  Uiso   1.00
H1583  H     0.45096   0.91881   0.39512   0.00000  Uiso   1.00
H1584  H     0.59789   0.71160   0.57551   0.00000  Uiso   1.00
H1585  H     0.56365   0.70546   0.64294   0.00000  Uiso   1.00
H1586  H     0.49996   0.70688   0.61130   0.00000  Uiso   1.00
H1587  H     0.54296   0.75361   0.62503   0.00000  Uiso   1.00
H1588  H     0.43320   0.77916   0.40717   0.00000  Uiso   1.00
H1589  H     0.37036   0.73329   0.37574   0.00000  Uiso   1.00
H1590  H     0.40333   0.72353   0.66295   0.00000  Uiso   1.00
H1591  H     0.61356   0.77732   0.34101   0.00000  Uiso   1.00
H1592  H     0.36787   0.76867   0.66298   0.00000  Uiso   1.00
H1593  H     0.60147   0.83651   0.62969   0.00000  Uiso   1.00
H1594  H     0.65025   0.90380   0.62483   0.00000  Uiso   1.00
H1595  H     0.65163   0.88575   0.34668   0.00000  Uiso   1.00
H1596  H     0.60866   0.92465   0.66006   0.00000  Uiso   1.00
H1597  H     0.41337   0.76839   0.54540   0.00000  Uiso   1.00
H1598  H     0.37921   0.78906   0.58907   0.00000  Uiso   1.00
H1599  H     0.34732   0.71767   0.60095   0.00000  Uiso   1.00
H1600  H     0.34862   0.71848   0.54020   0.00000  Uiso   1.00
H1601  H     0.39975   0.69878   0.57707   0.00000  Uiso   1.00
H1602  H     0.61910   0.74103   0.38632   0.00000  Uiso   1.00
H1603  H     0.61998   0.89802   0.40538   0.00000  Uiso   1.00
H1604  H     0.58279   0.90110   0.44933   0.00000  Uiso   1.00
H1605  H     0.56900   0.97229   0.43237   0.00000  Uiso   1.00
H1606  H     0.63553   0.96572   0.44707   0.00000  Uiso   1.00
H1607  H     0.60887   0.97128   0.38727   0.00000  Uiso   1.00
H1608  H     0.57013   0.77487   0.38367   0.00000  Uiso   1.00
H1609  H     0.33354   0.92325   0.51508   0.00000  Uiso   1.00
H1610  H     0.38996   0.90331   0.50464   0.00000  Uiso   1.00
H1611  H     0.37689   0.94581   0.59641   0.00000  Uiso   1.00
H1612  H     0.43132   0.92087   0.58661   0.00000  Uiso   1.00
N1613  N     0.50001   0.83334   0.61736   0.00000  Uiso   1.00
N1614  N     0.49999   0.83332   0.38264   0.00000  Uiso   1.00
N1615  N     0.47813   0.70019   0.41258   0.00000  Uiso   1.00
N1616  N     0.55430   0.96393   0.57429   0.00000  Uiso   1.00
N1617  N     0.41874   0.95522   0.44252   0.00000  Uiso   1.00
N1618  N     0.56017   0.71665   0.57173   0.00000  Uiso   1.00
N1619  N     0.43827   0.77249   0.37411   0.00000  Uiso   1.00
N1620  N     0.58636   0.86374   0.63322   0.00000  Uiso   1.00
O1621  O     0.50000   0.77322   0.53958   0.00000  Uiso   1.00
O1622  O     0.34816   0.87059   0.55108   0.00000  Uiso   1.00
O1623  O     0.44995   0.76636   0.61208   0.00000  Uiso   1.00
O1624  O     0.54139   0.90233   0.38221   0.00000  Uiso   1.00
O1625  O     0.50000   0.89345   0.46042   0.00000  Uiso   1.00
O1626  O     0.50000   0.77321   0.46039   0.00000  Uiso   1.00
O1627  O     0.50000   0.89346   0.53961   0.00000  Uiso   1.00
O1628  O     0.42495   0.83334   0.53046   0.00000  Uiso   1.00
O1629  O     0.57505   0.83333   0.46954   0.00000  Uiso   1.00
O1630  O     0.42494   0.83333   0.45127   0.00000  Uiso   1.00
O1631  O     0.57506   0.83334   0.54873   0.00000  Uiso   1.00
O1632  O     0.65162   0.79330   0.45430   0.00000  Uiso   1.00
C1633  C     0.83460   0.75416   0.49925   0.00000  Uiso   1.00
C1634  C     0.86084   0.69130   0.53642   0.00000  Uiso   1.00
C1635  C     0.82918   0.95669   0.50074   0.00000  Uiso   1.00
C1636  C     0.83661   0.70923   0.49753   0.00000  Uiso   1.00
C1637  C     0.80140   0.80414   0.35318   0.00000  Uiso   1.00
C1638  C     0.87050   0.85732   0.64769   0.00000  Uiso   1.00
C1639  C     0.80087   0.80401   0.63650   0.00000  Uiso   1.00
C1640  C     0.86574   0.86212   0.36311   0.00000  Uiso   1.00
C1641  C     0.98031   0.80468   0.40782   0.00000  Uiso   1.00
C1642  C     0.94337   0.77235   0.37790   0.00000  Uiso   1.00
C1643  C     0.69924   0.90793   0.53181   0.00000  Uiso   1.00
C1644  C     0.83072   0.91211   0.50017   0.00000  Uiso   1.00
C1645  C     0.73255   0.93645   0.56956   0.00000  Uiso   1.00
C1646  C     0.79954   0.67265   0.37176   0.00000  Uiso   1.00
C1647  C     0.93974   0.96066   0.56770   0.00000  Uiso   1.00
C1648  C     0.74709   0.92349   0.40587   0.00000  Uiso   1.00
C1649  C     0.87393   0.72064   0.61510   0.00000  Uiso   1.00
C1650  C     0.72584   0.74874   0.35018   0.00000  Uiso   1.00
C1651  C     0.95874   0.89667   0.65139   0.00000  Uiso   1.00
C1652  C     0.73709   0.76553   0.58048   0.00000  Uiso   1.00
C1653  C     0.70661   0.72259   0.57474   0.00000  Uiso   1.00
C1654  C     0.92042   0.91154   0.41463   0.00000  Uiso   1.00
C1655  C     0.73459   0.83078   0.48802   0.00000  Uiso   1.00
C1656  C     0.93431   0.95803   0.42050   0.00000  Uiso   1.00
C1657  C     0.93219   0.83533   0.51189   0.00000  Uiso   1.00
C1658  C     0.67854   0.82548   0.48316   0.00000  Uiso   1.00
C1659  C     0.98824   0.84302   0.51600   0.00000  Uiso   1.00
C1660  C     0.81405   0.68382   0.45782   0.00000  Uiso   1.00
C1661  C     0.85864   0.98184   0.53727   0.00000  Uiso   1.00
C1662  C     0.80162   0.97472   0.46322   0.00000  Uiso   1.00
Cu1663 Cu    0.83333   0.83334   0.54689   0.00000  Uiso   1.00
Cu1664 Cu    0.83333   0.83333   0.45311   0.00000  Uiso   1.00
H1665  H     0.68438   0.80725   0.39506   0.00000  Uiso   1.00
H1666  H     0.74857   0.96456   0.55382   0.00000  Uiso   1.00
H1667  H     0.84331   0.72063   0.40962   0.00000  Uiso   1.00
H1668  H     0.82413   0.98086   0.37425   0.00000  Uiso   1.00
H1669  H     0.80725   0.68977   0.34120   0.00000  Uiso   1.00
H1670  H     0.75812   0.99485   0.36551   0.00000  Uiso   1.00
H1671  H     0.88316   0.97338   0.60735   0.00000  Uiso   1.00
H1672  H     0.95070   0.97718   0.53705   0.00000  Uiso   1.00
H1673  H     0.94276   0.92774   0.56183   0.00000  Uiso   1.00
H1674  H     0.96654   0.97369   0.59895   0.00000  Uiso   1.00
H1675  H     0.72420   0.97466   0.43755   0.00000  Uiso   1.00
H1676  H     0.96479   0.83426   0.40353   0.00000  Uiso   1.00
H1677  H     0.72207   0.93192   0.37469   0.00000  Uiso   1.00
H1678  H     0.72802   0.89462   0.41737   0.00000  Uiso   1.00
H1679  H     0.78430   0.91881   0.39512   0.00000  Uiso   1.00
H1680  H     0.93122   0.71160   0.57551   0.00000  Uiso   1.00
H1681  H     0.89698   0.70546   0.64294   0.00000  Uiso   1.00
H1682  H     0.83330   0.70688   0.61130   0.00000  Uiso   1.00
H1683  H     0.87629   0.75361   0.62503   0.00000  Uiso   1.00
H1684  H     0.76654   0.77916   0.40717   0.00000  Uiso   1.00
H1685  H     0.70370   0.73329   0.37574   0.00000  Uiso   1.00
H1686  H     0.73666   0.72353   0.66295   0.00000  Uiso   1.00
H1687  H     0.94689   0.77732   0.34101   0.00000  Uiso   1.00
H1688  H     0.70120   0.76867   0.66298   0.00000  Uiso   1.00
H1689  H     0.93480   0.83651   0.62969   0.00000  Uiso   1.00
H1690  H     0.98358   0.90380   0.62483   0.00000  Uiso   1.00
H1691  H     0.98496   0.88575   0.34668   0.00000  Uiso   1.00
H1692  H     0.94199   0.92465   0.66006   0.00000  Uiso   1.00
H1693  H     0.74671   0.76839   0.54540   0.00000  Uiso   1.00
H1694  H     0.71255   0.78906   0.58907   0.00000  Uiso   1.00
H1695  H     0.68065   0.71767   0.60095   0.00000  Uiso   1.00
H1696  H     0.68196   0.71848   0.54020   0.00000  Uiso   1.00
H1697  H     0.73308   0.69878   0.57707   0.00000  Uiso   1.00
H1698  H     0.95244   0.74103   0.38632   0.00000  Uiso   1.00
H1699  H     0.95331   0.89802   0.40538   0.00000  Uiso   1.00
H1700  H     0.91612   0.90110   0.44933   0.00000  Uiso   1.00
H1701  H     0.90233   0.97229   0.43237   0.00000  Uiso   1.00
H1702  H     0.96886   0.96572   0.44707   0.00000  Uiso   1.00
H1703  H     0.94221   0.97128   0.38727   0.00000  Uiso   1.00
H1704  H     0.90346   0.77487   0.38367   0.00000  Uiso   1.00
H1705  H     0.66687   0.92325   0.51508   0.00000  Uiso   1.00
H1706  H     0.72330   0.90331   0.50464   0.00000  Uiso   1.00
H1707  H     0.71022   0.94581   0.59641   0.00000  Uiso   1.00
H1708  H     0.76465   0.92087   0.58661   0.00000  Uiso   1.00
N1709  N     0.83335   0.83334   0.61736   0.00000  Uiso   1.00
N1710  N     0.83332   0.83332   0.38264   0.00000  Uiso   1.00
N1711  N     0.81147   0.70019   0.41258   0.00000  Uiso   1.00
N1712  N     0.88763   0.96393   0.57429   0.00000  Uiso   1.00
N1713  N     0.75208   0.95522   0.44252   0.00000  Uiso   1.00
N1714  N     0.89350   0.71665   0.57173   0.00000  Uiso   1.00
N1715  N     0.77161   0.77249   0.37411   0.00000  Uiso   1.00
N1716  N     0.91970   0.86374   0.63322   0.00000  Uiso   1.00
O1717  O     0.83333   0.77322   0.53958   0.00000  Uiso   1.00
O1718  O     0.68150   0.87059   0.55108   0.00000  Uiso   1.00
O1719  O     0.78328   0.76636   0.61208   0.00000  Uiso   1.00
O1720  O     0.87472   0.90233   0.38221   0.00000  Uiso   1.00
O1721  O     0.83334   0.89345   0.46042   0.00000  Uiso   1.00
O1722  O     0.83333   0.77321   0.46039   0.00000  Uiso   1.00
O1723  O     0.83334   0.89346   0.53961   0.00000  Uiso   1.00
O1724  O     0.75828   0.83334   0.53046   0.00000  Uiso   1.00
O1725  O     0.90839   0.83333   0.46954   0.00000  Uiso   1.00
O1726  O     0.75828   0.83333   0.45127   0.00000  Uiso   1.00
O1727  O     0.90839   0.83334   0.54873   0.00000  Uiso   1.00
O1728  O     0.98495   0.79330   0.45430   0.00000  Uiso   1.00
C1729  C     0.16793   0.08749   0.83258   0.00000  Uiso   1.00
C1730  C     0.19418   0.02463   0.86975   0.00000  Uiso   1.00
C1731  C     0.16251   0.29002   0.83407   0.00000  Uiso   1.00
C1732  C     0.16994   0.04256   0.83086   0.00000  Uiso   1.00
C1733  C     0.13473   0.13747   0.68651   0.00000  Uiso   1.00
C1734  C     0.20383   0.19066   0.98102   0.00000  Uiso   1.00
C1735  C     0.13420   0.13734   0.96983   0.00000  Uiso   1.00
C1736  C     0.19907   0.19545   0.69645   0.00000  Uiso   1.00
C1737  C     0.31364   0.13802   0.74115   0.00000  Uiso   1.00
C1738  C     0.27671   0.10568   0.71124   0.00000  Uiso   1.00
C1739  C     0.03257   0.24126   0.86514   0.00000  Uiso   1.00
C1740  C     0.16406   0.24545   0.83350   0.00000  Uiso   1.00
C1741  C     0.06588   0.26978   0.90289   0.00000  Uiso   1.00
C1742  C     0.13288   0.00599   0.70509   0.00000  Uiso   1.00
C1743  C     0.27308   0.29399   0.90103   0.00000  Uiso   1.00
C1744  C     0.08042   0.25682   0.73920   0.00000  Uiso   1.00
C1745  C     0.20727   0.05397   0.94843   0.00000  Uiso   1.00
C1746  C     0.05917   0.08207   0.68351   0.00000  Uiso   1.00
C1747  C     0.29207   0.23000   0.98472   0.00000  Uiso   1.00
C1748  C     0.07043   0.09886   0.91381   0.00000  Uiso   1.00
C1749  C     0.03994   0.05592   0.90808   0.00000  Uiso   1.00
C1750  C     0.25376   0.24488   0.74797   0.00000  Uiso   1.00
C1751  C     0.06792   0.16411   0.82135   0.00000  Uiso   1.00
C1752  C     0.26765   0.29136   0.75384   0.00000  Uiso   1.00
C1753  C     0.26553   0.16866   0.84522   0.00000  Uiso   1.00
C1754  C     0.01188   0.15882   0.81649   0.00000  Uiso   1.00
C1755  C     0.32158   0.17635   0.84933   0.00000  Uiso   1.00
C1756  C     0.14739   0.01715   0.79115   0.00000  Uiso   1.00
C1757  C     0.19197   0.31517   0.87060   0.00000  Uiso   1.00
C1758  C     0.13495   0.30806   0.79656   0.00000  Uiso   1.00
Cu1759 Cu    0.16667   0.16667   0.88022   0.00000  Uiso   1.00
Cu1760 Cu    0.16667   0.16666   0.78645   0.00000  Uiso   1.00
H1761  H     0.01771   0.14058   0.72839   0.00000  Uiso   1.00
H1762  H     0.08190   0.29789   0.88716   0.00000  Uiso   1.00
H1763  H     0.17665   0.05397   0.74295   0.00000  Uiso   1.00
H1764  H     0.15746   0.31419   0.70758   0.00000  Uiso   1.00
H1765  H     0.14058   0.02310   0.67453   0.00000  Uiso   1.00
H1766  H     0.09145   0.32818   0.69884   0.00000  Uiso   1.00
H1767  H     0.21649   0.30672   0.94068   0.00000  Uiso   1.00
H1768  H     0.28403   0.31052   0.87038   0.00000  Uiso   1.00
H1769  H     0.27610   0.26107   0.89516   0.00000  Uiso   1.00
H1770  H     0.29987   0.30702   0.93228   0.00000  Uiso   1.00
H1771  H     0.05754   0.30799   0.77088   0.00000  Uiso   1.00
H1772  H     0.29812   0.16760   0.73687   0.00000  Uiso   1.00
H1773  H     0.05540   0.26526   0.70802   0.00000  Uiso   1.00
H1774  H     0.06135   0.22795   0.75070   0.00000  Uiso   1.00
H1775  H     0.11763   0.25214   0.72845   0.00000  Uiso   1.00
H1776  H     0.26455   0.04493   0.90885   0.00000  Uiso   1.00
H1777  H     0.23032   0.03879   0.97628   0.00000  Uiso   1.00
H1778  H     0.16663   0.04021   0.94464   0.00000  Uiso   1.00
H1779  H     0.20963   0.08694   0.95837   0.00000  Uiso   1.00
H1780  H     0.09987   0.11249   0.74050   0.00000  Uiso   1.00
H1781  H     0.03703   0.06663   0.70908   0.00000  Uiso   1.00
H1782  H     0.06999   0.05687   0.99628   0.00000  Uiso   1.00
H1783  H     0.28023   0.11066   0.67434   0.00000  Uiso   1.00
H1784  H     0.03453   0.10200   0.99631   0.00000  Uiso   1.00
H1785  H     0.26813   0.16984   0.96302   0.00000  Uiso   1.00
H1786  H     0.31692   0.23713   0.95817   0.00000  Uiso   1.00
H1787  H     0.31830   0.21908   0.68001   0.00000  Uiso   1.00
H1788  H     0.27532   0.25799   0.99339   0.00000  Uiso   1.00
H1789  H     0.08004   0.10173   0.87874   0.00000  Uiso   1.00
H1790  H     0.04588   0.12240   0.92240   0.00000  Uiso   1.00
H1791  H     0.01399   0.05100   0.93429   0.00000  Uiso   1.00
H1792  H     0.01529   0.05181   0.87353   0.00000  Uiso   1.00
H1793  H     0.06642   0.03211   0.91041   0.00000  Uiso   1.00
H1794  H     0.28577   0.07437   0.71965   0.00000  Uiso   1.00
H1795  H     0.28664   0.23135   0.73871   0.00000  Uiso   1.00
H1796  H     0.24946   0.23443   0.78267   0.00000  Uiso   1.00
H1797  H     0.23566   0.30562   0.76570   0.00000  Uiso   1.00
H1798  H     0.30219   0.29905   0.78041   0.00000  Uiso   1.00
H1799  H     0.27554   0.30461   0.72061   0.00000  Uiso   1.00
H1800  H     0.23679   0.10820   0.71700   0.00000  Uiso   1.00
H1801  H     0.00021   0.25658   0.84841   0.00000  Uiso   1.00
H1802  H     0.05663   0.23664   0.83798   0.00000  Uiso   1.00
H1803  H     0.04355   0.27914   0.92974   0.00000  Uiso   1.00
H1804  H     0.09798   0.25420   0.91994   0.00000  Uiso   1.00
N1805  N     0.16668   0.16668   0.95069   0.00000  Uiso   1.00
N1806  N     0.16665   0.16666   0.71597   0.00000  Uiso   1.00
N1807  N     0.14480   0.03353   0.74591   0.00000  Uiso   1.00
N1808  N     0.22096   0.29727   0.90762   0.00000  Uiso   1.00
N1809  N     0.08541   0.28855   0.77585   0.00000  Uiso   1.00
N1810  N     0.22683   0.04999   0.90506   0.00000  Uiso   1.00
N1811  N     0.10494   0.10582   0.70744   0.00000  Uiso   1.00
N1812  N     0.25303   0.19707   0.96656   0.00000  Uiso   1.00
O1813  O     0.16666   0.10655   0.87291   0.00000  Uiso   1.00
O1814  O     0.01483   0.20393   0.88441   0.00000  Uiso   1.00
O1815  O     0.11661   0.09970   0.94542   0.00000  Uiso   1.00
O1816  O     0.20806   0.23566   0.71555   0.00000  Uiso   1.00
O1817  O     0.16667   0.22678   0.79375   0.00000  Uiso   1.00
O1818  O     0.16666   0.10654   0.79372   0.00000  Uiso   1.00
O1819  O     0.16667   0.22679   0.87294   0.00000  Uiso   1.00
O1820  O     0.09161   0.16667   0.86379   0.00000  Uiso   1.00
O1821  O     0.24172   0.16666   0.80288   0.00000  Uiso   1.00
O1822  O     0.09161   0.16666   0.78460   0.00000  Uiso   1.00
O1823  O     0.24172   0.16667   0.88207   0.00000  Uiso   1.00
O1824  O     0.31828   0.12664   0.78764   0.00000  Uiso   1.00
C1825  C     0.50126   0.08749   0.83258   0.00000  Uiso   1.00
C1826  C     0.52751   0.02463   0.86975   0.00000  Uiso   1.00
C1827  C     0.49584   0.29002   0.83407   0.00000  Uiso   1.00
C1828  C     0.50327   0.04256   0.83086   0.00000  Uiso   1.00
C1829  C     0.46807   0.13747   0.68651   0.00000  Uiso   1.00
C1830  C     0.53717   0.19066   0.98102   0.00000  Uiso   1.00
C1831  C     0.46753   0.13734   0.96983   0.00000  Uiso   1.00
C1832  C     0.53240   0.19545   0.69645   0.00000  Uiso   1.00
C1833  C     0.64698   0.13802   0.74115   0.00000  Uiso   1.00
C1834  C     0.61004   0.10568   0.71124   0.00000  Uiso   1.00
C1835  C     0.36591   0.24126   0.86514   0.00000  Uiso   1.00
C1836  C     0.49739   0.24545   0.83350   0.00000  Uiso   1.00
C1837  C     0.39921   0.26978   0.90289   0.00000  Uiso   1.00
C1838  C     0.46621   0.00599   0.70509   0.00000  Uiso   1.00
C1839  C     0.60641   0.29399   0.90103   0.00000  Uiso   1.00
C1840  C     0.41375   0.25682   0.73920   0.00000  Uiso   1.00
C1841  C     0.54060   0.05397   0.94843   0.00000  Uiso   1.00
C1842  C     0.39251   0.08207   0.68351   0.00000  Uiso   1.00
C1843  C     0.62541   0.23000   0.98472   0.00000  Uiso   1.00
C1844  C     0.40376   0.09886   0.91381   0.00000  Uiso   1.00
C1845  C     0.37327   0.05592   0.90808   0.00000  Uiso   1.00
C1846  C     0.58709   0.24488   0.74797   0.00000  Uiso   1.00
C1847  C     0.40125   0.16411   0.82135   0.00000  Uiso   1.00
C1848  C     0.60098   0.29136   0.75384   0.00000  Uiso   1.00
C1849  C     0.59886   0.16866   0.84522   0.00000  Uiso   1.00
C1850  C     0.34521   0.15882   0.81649   0.00000  Uiso   1.00
C1851  C     0.65491   0.17635   0.84933   0.00000  Uiso   1.00
C1852  C     0.48072   0.01715   0.79115   0.00000  Uiso   1.00
C1853  C     0.52531   0.31517   0.87060   0.00000  Uiso   1.00
C1854  C     0.46828   0.30806   0.79656   0.00000  Uiso   1.00
Cu1855 Cu    0.50000   0.16667   0.88022   0.00000  Uiso   1.00
Cu1856 Cu    0.50000   0.16666   0.78645   0.00000  Uiso   1.00
H1857  H     0.35105   0.14058   0.72839   0.00000  Uiso   1.00
H1858  H     0.41524   0.29789   0.88716   0.00000  Uiso   1.00
H1859  H     0.50998   0.05397   0.74295   0.00000  Uiso   1.00
H1860  H     0.49079   0.31419   0.70758   0.00000  Uiso   1.00
H1861  H     0.47391   0.02310   0.67453   0.00000  Uiso   1.00
H1862  H     0.42479   0.32818   0.69884   0.00000  Uiso   1.00
H1863  H     0.54982   0.30672   0.94068   0.00000  Uiso   1.00
H1864  H     0.61737   0.31052   0.87038   0.00000  Uiso   1.00
H1865  H     0.60943   0.26107   0.89516   0.00000  Uiso   1.00
H1866  H     0.63321   0.30702   0.93228   0.00000  Uiso   1.00
H1867  H     0.39087   0.30799   0.77088   0.00000  Uiso   1.00
H1868  H     0.63146   0.16760   0.73687   0.00000  Uiso   1.00
H1869  H     0.38874   0.26526   0.70802   0.00000  Uiso   1.00
H1870  H     0.39468   0.22795   0.75070   0.00000  Uiso   1.00
H1871  H     0.45096   0.25214   0.72845   0.00000  Uiso   1.00
H1872  H     0.59789   0.04493   0.90885   0.00000  Uiso   1.00
H1873  H     0.56365   0.03879   0.97628   0.00000  Uiso   1.00
H1874  H     0.49996   0.04021   0.94464   0.00000  Uiso   1.00
H1875  H     0.54296   0.08694   0.95837   0.00000  Uiso   1.00
H1876  H     0.43320   0.11249   0.74050   0.00000  Uiso   1.00
H1877  H     0.37036   0.06663   0.70908   0.00000  Uiso   1.00
H1878  H     0.40333   0.05687   0.99628   0.00000  Uiso   1.00
H1879  H     0.61356   0.11066   0.67434   0.00000  Uiso   1.00
H1880  H     0.36787   0.10200   0.99631   0.00000  Uiso   1.00
H1881  H     0.60147   0.16984   0.96302   0.00000  Uiso   1.00
H1882  H     0.65025   0.23713   0.95817   0.00000  Uiso   1.00
H1883  H     0.65163   0.21908   0.68001   0.00000  Uiso   1.00
H1884  H     0.60866   0.25799   0.99339   0.00000  Uiso   1.00
H1885  H     0.41337   0.10173   0.87874   0.00000  Uiso   1.00
H1886  H     0.37921   0.12240   0.92240   0.00000  Uiso   1.00
H1887  H     0.34732   0.05100   0.93429   0.00000  Uiso   1.00
H1888  H     0.34862   0.05181   0.87353   0.00000  Uiso   1.00
H1889  H     0.39975   0.03211   0.91041   0.00000  Uiso   1.00
H1890  H     0.61910   0.07437   0.71965   0.00000  Uiso   1.00
H1891  H     0.61998   0.23135   0.73871   0.00000  Uiso   1.00
H1892  H     0.58279   0.23443   0.78267   0.00000  Uiso   1.00
H1893  H     0.56900   0.30562   0.76570   0.00000  Uiso   1.00
H1894  H     0.63553   0.29905   0.78041   0.00000  Uiso   1.00
H1895  H     0.60887   0.30461   0.72061   0.00000  Uiso   1.00
H1896  H     0.57013   0.10820   0.71700   0.00000  Uiso   1.00
H1897  H     0.33354   0.25658   0.84841   0.00000  Uiso   1.00
H1898  H     0.38996   0.23664   0.83798   0.00000  Uiso   1.00
H1899  H     0.37689   0.27914   0.92974   0.00000  Uiso   1.00
H1900  H     0.43132   0.25420   0.91994   0.00000  Uiso   1.00
N1901  N     0.50001   0.16668   0.95069   0.00000  Uiso   1.00
N1902  N     0.49999   0.16666   0.71597   0.00000  Uiso   1.00
N1903  N     0.47813   0.03353   0.74591   0.00000  Uiso   1.00
N1904  N     0.55430   0.29727   0.90762   0.00000  Uiso   1.00
N1905  N     0.41874   0.28855   0.77585   0.00000  Uiso   1.00
N1906  N     0.56017   0.04999   0.90506   0.00000  Uiso   1.00
N1907  N     0.43827   0.10582   0.70744   0.00000  Uiso   1.00
N1908  N     0.58636   0.19707   0.96656   0.00000  Uiso   1.00
O1909  O     0.50000   0.10655   0.87291   0.00000  Uiso   1.00
O1910  O     0.34816   0.20393   0.88441   0.00000  Uiso   1.00
O1911  O     0.44995   0.09970   0.94542   0.00000  Uiso   1.00
O1912  O     0.54139   0.23566   0.71555   0.00000  Uiso   1.00
O1913  O     0.50000   0.22678   0.79375   0.00000  Uiso   1.00
O1914  O     0.50000   0.10654   0.79372   0.00000  Uiso   1.00
O1915  O     0.50000   0.22679   0.87294   0.00000  Uiso   1.00
O1916  O     0.42495   0.16667   0.86379   0.00000  Uiso   1.00
O1917  O     0.57505   0.16666   0.80288   0.00000  Uiso   1.00
O1918  O     0.42494   0.16666   0.78460   0.00000  Uiso   1.00
O1919  O     0.57506   0.16667   0.88207   0.00000  Uiso   1.00
O1920  O     0.65162   0.12664   0.78764   0.00000  Uiso   1.00
C1921  C     0.83460   0.08749   0.83258   0.00000  Uiso   1.00
C1922  C     0.86084   0.02463   0.86975   0.00000  Uiso   1.00
C1923  C     0.82918   0.29002   0.83407   0.00000  Uiso   1.00
C1924  C     0.83661   0.04256   0.83086   0.00000  Uiso   1.00
C1925  C     0.80140   0.13747   0.68651   0.00000  Uiso   1.00
C1926  C     0.87050   0.19066   0.98102   0.00000  Uiso   1.00
C1927  C     0.80087   0.13734   0.96983   0.00000  Uiso   1.00
C1928  C     0.86574   0.19545   0.69645   0.00000  Uiso   1.00
C1929  C     0.98031   0.13802   0.74115   0.00000  Uiso   1.00
C1930  C     0.94337   0.10568   0.71124   0.00000  Uiso   1.00
C1931  C     0.69924   0.24126   0.86514   0.00000  Uiso   1.00
C1932  C     0.83072   0.24545   0.83350   0.00000  Uiso   1.00
C1933  C     0.73255   0.26978   0.90289   0.00000  Uiso   1.00
C1934  C     0.79954   0.00599   0.70509   0.00000  Uiso   1.00
C1935  C     0.93974   0.29399   0.90103   0.00000  Uiso   1.00
C1936  C     0.74709   0.25682   0.73920   0.00000  Uiso   1.00
C1937  C     0.87393   0.05397   0.94843   0.00000  Uiso   1.00
C1938  C     0.72584   0.08207   0.68351   0.00000  Uiso   1.00
C1939  C     0.95874   0.23000   0.98472   0.00000  Uiso   1.00
C1940  C     0.73709   0.09886   0.91381   0.00000  Uiso   1.00
C1941  C     0.70661   0.05592   0.90808   0.00000  Uiso   1.00
C1942  C     0.92042   0.24488   0.74797   0.00000  Uiso   1.00
C1943  C     0.73459   0.16411   0.82135   0.00000  Uiso   1.00
C1944  C     0.93431   0.29136   0.75384   0.00000  Uiso   1.00
C1945  C     0.93219   0.16866   0.84522   0.00000  Uiso   1.00
C1946  C     0.67854   0.15882   0.81649   0.00000  Uiso   1.00
C1947  C     0.98824   0.17635   0.84933   0.00000  Uiso   1.00
C1948  C     0.81405   0.01715   0.79115   0.00000  Uiso   1.00
C1949  C     0.85864   0.31517   0.87060   0.00000  Uiso   1.00
C1950  C     0.80162   0.30806   0.79656   0.00000  Uiso   1.00
Cu1951 Cu    0.83333   0.16667   0.88022   0.00000  Uiso   1.00
Cu1952 Cu    0.83333   0.16666   0.78645   0.00000  Uiso   1.00
H1953  H     0.68438   0.14058   0.72839   0.00000  Uiso   1.00
H1954  H     0.74857   0.29789   0.88716   0.00000  Uiso   1.00
H1955  H     0.84331   0.05397   0.74295   0.00000  Uiso   1.00
H1956  H     0.82413   0.31419   0.70758   0.00000  Uiso   1.00
H1957  H     0.80725   0.02310   0.67453   0.00000  Uiso   1.00
H1958  H     0.75812   0.32818   0.69884   0.00000  Uiso   1.00
H1959  H     0.88316   0.30672   0.94068   0.00000  Uiso   1.00
H1960  H     0.95070   0.31052   0.87038   0.00000  Uiso   1.00
H1961  H     0.94276   0.26107   0.89516   0.00000  Uiso   1.00
H1962  H     0.96654   0.30702   0.93228   0.00000  Uiso   1.00
H1963  H     0.72420   0.30799   0.77088   0.00000  Uiso   1.00
H1964  H     0.96479   0.16760   0.73687   0.00000  Uiso   1.00
H1965  H     0.72207   0.26526   0.70802   0.00000  Uiso   1.00
H1966  H     0.72802   0.22795   0.75070   0.00000  Uiso   1.00
H1967  H     0.78430   0.25214   0.72845   0.00000  Uiso   1.00
H1968  H     0.93122   0.04493   0.90885   0.00000  Uiso   1.00
H1969  H     0.89698   0.03879   0.97628   0.00000  Uiso   1.00
H1970  H     0.83330   0.04021   0.94464   0.00000  Uiso   1.00
H1971  H     0.87629   0.08694   0.95837   0.00000  Uiso   1.00
H1972  H     0.76654   0.11249   0.74050   0.00000  Uiso   1.00
H1973  H     0.70370   0.06663   0.70908   0.00000  Uiso   1.00
H1974  H     0.73666   0.05687   0.99628   0.00000  Uiso   1.00
H1975  H     0.94689   0.11066   0.67434   0.00000  Uiso   1.00
H1976  H     0.70120   0.10200   0.99631   0.00000  Uiso   1.00
H1977  H     0.93480   0.16984   0.96302   0.00000  Uiso   1.00
H1978  H     0.98358   0.23713   0.95817   0.00000  Uiso   1.00
H1979  H     0.98496   0.21908   0.68001   0.00000  Uiso   1.00
H1980  H     0.94199   0.25799   0.99339   0.00000  Uiso   1.00
H1981  H     0.74671   0.10173   0.87874   0.00000  Uiso   1.00
H1982  H     0.71255   0.12240   0.92240   0.00000  Uiso   1.00
H1983  H     0.68065   0.05100   0.93429   0.00000  Uiso   1.00
H1984  H     0.68196   0.05181   0.87353   0.00000  Uiso   1.00
H1985  H     0.73308   0.03211   0.91041   0.00000  Uiso   1.00
H1986  H     0.95244   0.07437   0.71965   0.00000  Uiso   1.00
H1987  H     0.95331   0.23135   0.73871   0.00000  Uiso   1.00
H1988  H     0.91612   0.23443   0.78267   0.00000  Uiso   1.00
H1989  H     0.90233   0.30562   0.76570   0.00000  Uiso   1.00
H1990  H     0.96886   0.29905   0.78041   0.00000  Uiso   1.00
H1991  H     0.94221   0.30461   0.72061   0.00000  Uiso   1.00
H1992  H     0.90346   0.10820   0.71700   0.00000  Uiso   1.00
H1993  H     0.66687   0.25658   0.84841   0.00000  Uiso   1.00
H1994  H     0.72330   0.23664   0.83798   0.00000  Uiso   1.00
H1995  H     0.71022   0.27914   0.92974   0.00000  Uiso   1.00
H1996  H     0.76465   0.25420   0.91994   0.00000  Uiso   1.00
N1997  N     0.83335   0.16668   0.95069   0.00000  Uiso   1.00
N1998  N     0.83332   0.16666   0.71597   0.00000  Uiso   1.00
N1999  N     0.81147   0.03353   0.74591   0.00000  Uiso   1.00
N2000  N     0.88763   0.29727   0.90762   0.00000  Uiso   1.00
N2001  N     0.75208   0.28855   0.77585   0.00000  Uiso   1.00
N2002  N     0.89350   0.04999   0.90506   0.00000  Uiso   1.00
N2003  N     0.77161   0.10582   0.70744   0.00000  Uiso   1.00
N2004  N     0.91970   0.19707   0.96656   0.00000  Uiso   1.00
O2005  O     0.83333   0.10655   0.87291   0.00000  Uiso   1.00
O2006  O     0.68150   0.20393   0.88441   0.00000  Uiso   1.00
O2007  O     0.78328   0.09970   0.94542   0.00000  Uiso   1.00
O2008  O     0.87472   0.23566   0.71555   0.00000  Uiso   1.00
O2009  O     0.83334   0.22678   0.79375   0.00000  Uiso   1.00
O2010  O     0.83333   0.10654   0.79372   0.00000  Uiso   1.00
O2011  O     0.83334   0.22679   0.87294   0.00000  Uiso   1.00
O2012  O     0.75828   0.16667   0.86379   0.00000  Uiso   1.00
O2013  O     0.90839   0.16666   0.80288   0.00000  Uiso   1.00
O2014  O     0.75828   0.16666   0.78460   0.00000  Uiso   1.00
O2015  O     0.90839   0.16667   0.88207   0.00000  Uiso   1.00
O2016  O     0.98495   0.12664   0.78764   0.00000  Uiso   1.00
C2017  C     0.16793   0.42083   0.83258   0.00000  Uiso   1.00
C2018  C     0.19418   0.35797   0.86975   0.00000  Uiso   1.00
C2019  C     0.16251   0.62336   0.83407   0.00000  Uiso   1.00
C2020  C     0.16994   0.37590   0.83086   0.00000  Uiso   1.00
C2021  C     0.13473   0.47081   0.68651   0.00000  Uiso   1.00
C2022  C     0.20383   0.52399   0.98102   0.00000  Uiso   1.00
C2023  C     0.13420   0.47067   0.96983   0.00000  Uiso   1.00
C2024  C     0.19907   0.52879   0.69645   0.00000  Uiso   1.00
C2025  C     0.31364   0.47135   0.74115   0.00000  Uiso   1.00
C2026  C     0.27671   0.43901   0.71124   0.00000  Uiso   1.00
C2027  C     0.03257   0.57459   0.86514   0.00000  Uiso   1.00
C2028  C     0.16406   0.57878   0.83350   0.00000  Uiso   1.00
C2029  C     0.06588   0.60311   0.90289   0.00000  Uiso   1.00
C2030  C     0.13288   0.33932   0.70509   0.00000  Uiso   1.00
C2031  C     0.27308   0.62732   0.90103   0.00000  Uiso   1.00
C2032  C     0.08042   0.59015   0.73920   0.00000  Uiso   1.00
C2033  C     0.20727   0.38730   0.94843   0.00000  Uiso   1.00
C2034  C     0.05917   0.41541   0.68351   0.00000  Uiso   1.00
C2035  C     0.29207   0.56333   0.98472   0.00000  Uiso   1.00
C2036  C     0.07043   0.43220   0.91381   0.00000  Uiso   1.00
C2037  C     0.03994   0.38925   0.90808   0.00000  Uiso   1.00
C2038  C     0.25376   0.57821   0.74797   0.00000  Uiso   1.00
C2039  C     0.06792   0.49744   0.82135   0.00000  Uiso   1.00
C2040  C     0.26765   0.62470   0.75384   0.00000  Uiso   1.00
C2041  C     0.26553   0.50200   0.84522   0.00000  Uiso   1.00
C2042  C     0.01188   0.49215   0.81649   0.00000  Uiso   1.00
C2043  C     0.32158   0.50968   0.84933   0.00000  Uiso   1.00
C2044  C     0.14739   0.35049   0.79115   0.00000  Uiso   1.00
C2045  C     0.19197   0.64851   0.87060   0.00000  Uiso   1.00
C2046  C     0.13495   0.64139   0.79656   0.00000  Uiso   1.00
Cu2047 Cu    0.16667   0.50001   0.88022   0.00000  Uiso   1.00
Cu2048 Cu    0.16667   0.49999   0.78645   0.00000  Uiso   1.00
H2049  H     0.01771   0.47391   0.72839   0.00000  Uiso   1.00
H2050  H     0.08190   0.63122   0.88716   0.00000  Uiso   1.00
H2051  H     0.17665   0.38730   0.74295   0.00000  Uiso   1.00
H2052  H     0.15746   0.64753   0.70758   0.00000  Uiso   1.00
H2053  H     0.14058   0.35643   0.67453   0.00000  Uiso   1.00
H2054  H     0.09145   0.66152   0.69884   0.00000  Uiso   1.00
H2055  H     0.21649   0.64005   0.94068   0.00000  Uiso   1.00
H2056  H     0.28403   0.64385   0.87038   0.00000  Uiso   1.00
H2057  H     0.27610   0.59441   0.89516   0.00000  Uiso   1.00
H2058  H     0.29987   0.64036   0.93228   0.00000  Uiso   1.00
H2059  H     0.05754   0.64133   0.77088   0.00000  Uiso   1.00
H2060  H     0.29812   0.50093   0.73687   0.00000  Uiso   1.00
H2061  H     0.05540   0.59859   0.70802   0.00000  Uiso   1.00
H2062  H     0.06135   0.56129   0.75070   0.00000  Uiso   1.00
H2063  H     0.11763   0.58548   0.72845   0.00000  Uiso   1.00
H2064  H     0.26455   0.37827   0.90885   0.00000  Uiso   1.00
H2065  H     0.23032   0.37213   0.97628   0.00000  Uiso   1.00
H2066  H     0.16663   0.37354   0.94464   0.00000  Uiso   1.00
H2067  H     0.20963   0.42028   0.95837   0.00000  Uiso   1.00
H2068  H     0.09987   0.44583   0.74050   0.00000  Uiso   1.00
H2069  H     0.03703   0.39996   0.70908   0.00000  Uiso   1.00
H2070  H     0.06999   0.39020   0.99628   0.00000  Uiso   1.00
H2071  H     0.28023   0.44399   0.67434   0.00000  Uiso   1.00
H2072  H     0.03453   0.43533   0.99631   0.00000  Uiso   1.00
H2073  H     0.26813   0.50317   0.96302   0.00000  Uiso   1.00
H2074  H     0.31692   0.57047   0.95817   0.00000  Uiso   1.00
H2075  H     0.31830   0.55242   0.68001   0.00000  Uiso   1.00
H2076  H     0.27532   0.59132   0.99339   0.00000  Uiso   1.00
H2077  H     0.08004   0.43506   0.87874   0.00000  Uiso   1.00
H2078  H     0.04588   0.45573   0.92240   0.00000  Uiso   1.00
H2079  H     0.01399   0.38434   0.93429   0.00000  Uiso   1.00
H2080  H     0.01529   0.38514   0.87353   0.00000  Uiso   1.00
H2081  H     0.06642   0.36544   0.91041   0.00000  Uiso   1.00
H2082  H     0.28577   0.40770   0.71965   0.00000  Uiso   1.00
H2083  H     0.28664   0.56468   0.73871   0.00000  Uiso   1.00
H2084  H     0.24946   0.56777   0.78267   0.00000  Uiso   1.00
H2085  H     0.23566   0.63896   0.76570   0.00000  Uiso   1.00
H2086  H     0.30219   0.63238   0.78041   0.00000  Uiso   1.00
H2087  H     0.27554   0.63794   0.72061   0.00000  Uiso   1.00
H2088  H     0.23679   0.44153   0.71700   0.00000  Uiso   1.00
H2089  H     0.00021   0.58992   0.84841   0.00000  Uiso   1.00
H2090  H     0.05663   0.56998   0.83798   0.00000  Uiso   1.00
H2091  H     0.04355   0.61247   0.92974   0.00000  Uiso   1.00
H2092  H     0.09798   0.58754   0.91994   0.00000  Uiso   1.00
N2093  N     0.16668   0.50001   0.95069   0.00000  Uiso   1.00
N2094  N     0.16665   0.49999   0.71597   0.00000  Uiso   1.00
N2095  N     0.14480   0.36686   0.74591   0.00000  Uiso   1.00
N2096  N     0.22096   0.63060   0.90762   0.00000  Uiso   1.00
N2097  N     0.08541   0.62189   0.77585   0.00000  Uiso   1.00
N2098  N     0.22683   0.38332   0.90506   0.00000  Uiso   1.00
N2099  N     0.10494   0.43915   0.70744   0.00000  Uiso   1.00
N2100  N     0.25303   0.53041   0.96656   0.00000  Uiso   1.00
O2101  O     0.16666   0.43989   0.87291   0.00000  Uiso   1.00
O2102  O     0.01483   0.53726   0.88441   0.00000  Uiso   1.00
O2103  O     0.11661   0.43303   0.94542   0.00000  Uiso   1.00
O2104  O     0.20806   0.56899   0.71555   0.00000  Uiso   1.00
O2105  O     0.16667   0.56011   0.79375   0.00000  Uiso   1.00
O2106  O     0.16666   0.43988   0.79372   0.00000  Uiso   1.00
O2107  O     0.16667   0.56012   0.87294   0.00000  Uiso   1.00
O2108  O     0.09161   0.50000   0.86379   0.00000  Uiso   1.00
O2109  O     0.24172   0.50000   0.80288   0.00000  Uiso   1.00
O2110  O     0.09161   0.49999   0.78460   0.00000  Uiso   1.00
O2111  O     0.24172   0.50001   0.88207   0.00000  Uiso   1.00
O2112  O     0.31828   0.45997   0.78764   0.00000  Uiso   1.00
C2113  C     0.50126   0.42083   0.83258   0.00000  Uiso   1.00
C2114  C     0.52751   0.35797   0.86975   0.00000  Uiso   1.00
C2115  C     0.49584   0.62336   0.83407   0.00000  Uiso   1.00
C2116  C     0.50327   0.37590   0.83086   0.00000  Uiso   1.00
C2117  C     0.46807   0.47081   0.68651   0.00000  Uiso   1.00
C2118  C     0.53717   0.52399   0.98102   0.00000  Uiso   1.00
C2119  C     0.46753   0.47067   0.96983   0.00000  Uiso   1.00
C2120  C     0.53240   0.52879   0.69645   0.00000  Uiso   1.00
C2121  C     0.64698   0.47135   0.74115   0.00000  Uiso   1.00
C2122  C     0.61004   0.43901   0.71124   0.00000  Uiso   1.00
C2123  C     0.36591   0.57459   0.86514   0.00000  Uiso   1.00
C2124  C     0.49739   0.57878   0.83350   0.00000  Uiso   1.00
C2125  C     0.39921   0.60311   0.90289   0.00000  Uiso   1.00
C2126  C     0.46621   0.33932   0.70509   0.00000  Uiso   1.00
C2127  C     0.60641   0.62732   0.90103   0.00000  Uiso   1.00
C2128  C     0.41375   0.59015   0.73920   0.00000  Uiso   1.00
C2129  C     0.54060   0.38730   0.94843   0.00000  Uiso   1.00
C2130  C     0.39251   0.41541   0.68351   0.00000  Uiso   1.00
C2131  C     0.62541   0.56333   0.98472   0.00000  Uiso   1.00
C2132  C     0.40376   0.43220   0.91381   0.00000  Uiso   1.00
C2133  C     0.37327   0.38925   0.90808   0.00000  Uiso   1.00
C2134  C     0.58709   0.57821   0.74797   0.00000  Uiso   1.00
C2135  C     0.40125   0.49744   0.82135   0.00000  Uiso   1.00
C2136  C     0.60098   0.62470   0.75384   0.00000  Uiso   1.00
C2137  C     0.59886   0.50200   0.84522   0.00000  Uiso   1.00
C2138  C     0.34521   0.49215   0.81649   0.00000  Uiso   1.00
C2139  C     0.65491   0.50968   0.84933   0.00000  Uiso   1.00
C2140  C     0.48072   0.35049   0.79115   0.00000  Uiso   1.00
C2141  C     0.52531   0.64851   0.87060   0.00000  Uiso   1.00
C2142  C     0.46828   0.64139   0.79656   0.00000  Uiso   1.00
Cu2143 Cu    0.50000   0.50001   0.88022   0.00000  Uiso   1.00
Cu2144 Cu    0.50000   0.49999   0.78645   0.00000  Uiso   1.00
H2145  H     0.35105   0.47391   0.72839   0.00000  Uiso   1.00
H2146  H     0.41524   0.63122   0.88716   0.00000  Uiso   1.00
H2147  H     0.50998   0.38730   0.74295   0.00000  Uiso   1.00
H2148  H     0.49079   0.64753   0.70758   0.00000  Uiso   1.00
H2149  H     0.47391   0.35643   0.67453   0.00000  Uiso   1.00
H2150  H     0.42479   0.66152   0.69884   0.00000  Uiso   1.00
H2151  H     0.54982   0.64005   0.94068   0.00000  Uiso   1.00
H2152  H     0.61737   0.64385   0.87038   0.00000  Uiso   1.00
H2153  H     0.60943   0.59441   0.89516   0.00000  Uiso   1.00
H2154  H     0.63321   0.64036   0.93228   0.00000  Uiso   1.00
H2155  H     0.39087   0.64133   0.77088   0.00000  Uiso   1.00
H2156  H     0.63146   0.50093   0.73687   0.00000  Uiso   1.00
H2157  H     0.38874   0.59859   0.70802   0.00000  Uiso   1.00
H2158  H     0.39468   0.56129   0.75070   0.00000  Uiso   1.00
H2159  H     0.45096   0.58548   0.72845   0.00000  Uiso   1.00
H2160  H     0.59789   0.37827   0.90885   0.00000  Uiso   1.00
H2161  H     0.56365   0.37213   0.97628   0.00000  Uiso   1.00
H2162  H     0.49996   0.37354   0.94464   0.00000  Uiso   1.00
H2163  H     0.54296   0.42028   0.95837   0.00000  Uiso   1.00
H2164  H     0.43320   0.44583   0.74050   0.00000  Uiso   1.00
H2165  H     0.37036   0.39996   0.70908   0.00000  Uiso   1.00
H2166  H     0.40333   0.39020   0.99628   0.00000  Uiso   1.00
H2167  H     0.61356   0.44399   0.67434   0.00000  Uiso   1.00
H2168  H     0.36787   0.43533   0.99631   0.00000  Uiso   1.00
H2169  H     0.60147   0.50317   0.96302   0.00000  Uiso   1.00
H2170  H     0.65025   0.57047   0.95817   0.00000  Uiso   1.00
H2171  H     0.65163   0.55242   0.68001   0.00000  Uiso   1.00
H2172  H     0.60866   0.59132   0.99339   0.00000  Uiso   1.00
H2173  H     0.41337   0.43506   0.87874   0.00000  Uiso   1.00
H2174  H     0.37921   0.45573   0.92240   0.00000  Uiso   1.00
H2175  H     0.34732   0.38434   0.93429   0.00000  Uiso   1.00
H2176  H     0.34862   0.38514   0.87353   0.00000  Uiso   1.00
H2177  H     0.39975   0.36544   0.91041   0.00000  Uiso   1.00
H2178  H     0.61910   0.40770   0.71965   0.00000  Uiso   1.00
H2179  H     0.61998   0.56468   0.73871   0.00000  Uiso   1.00
H2180  H     0.58279   0.56777   0.78267   0.00000  Uiso   1.00
H2181  H     0.56900   0.63896   0.76570   0.00000  Uiso   1.00
H2182  H     0.63553   0.63238   0.78041   0.00000  Uiso   1.00
H2183  H     0.60887   0.63794   0.72061   0.00000  Uiso   1.00
H2184  H     0.57013   0.44153   0.71700   0.00000  Uiso   1.00
H2185  H     0.33354   0.58992   0.84841   0.00000  Uiso   1.00
H2186  H     0.38996   0.56998   0.83798   0.00000  Uiso   1.00
H2187  H     0.37689   0.61247   0.92974   0.00000  Uiso   1.00
H2188  H     0.43132   0.58754   0.91994   0.00000  Uiso   1.00
N2189  N     0.50001   0.50001   0.95069   0.00000  Uiso   1.00
N2190  N     0.49999   0.49999   0.71597   0.00000  Uiso   1.00
N2191  N     0.47813   0.36686   0.74591   0.00000  Uiso   1.00
N2192  N     0.55430   0.63060   0.90762   0.00000  Uiso   1.00
N2193  N     0.41874   0.62189   0.77585   0.00000  Uiso   1.00
N2194  N     0.56017   0.38332   0.90506   0.00000  Uiso   1.00
N2195  N     0.43827   0.43915   0.70744   0.00000  Uiso   1.00
N2196  N     0.58636   0.53041   0.96656   0.00000  Uiso   1.00
O2197  O     0.50000   0.43989   0.87291   0.00000  Uiso   1.00
O2198  O     0.34816   0.53726   0.88441   0.00000  Uiso   1.00
O2199  O     0.44995   0.43303   0.94542   0.00000  Uiso   1.00
O2200  O     0.54139   0.56899   0.71555   0.00000  Uiso   1.00
O2201  O     0.50000   0.56011   0.79375   0.00000  Uiso   1.00
O2202  O     0.50000   0.43988   0.79372   0.00000  Uiso   1.00
O2203  O     0.50000   0.56012   0.87294   0.00000  Uiso   1.00
O2204  O     0.42495   0.50000   0.86379   0.00000  Uiso   1.00
O2205  O     0.57505   0.50000   0.80288   0.00000  Uiso   1.00
O2206  O     0.42494   0.49999   0.78460   0.00000  Uiso   1.00
O2207  O     0.57506   0.50001   0.88207   0.00000  Uiso   1.00
O2208  O     0.65162   0.45997   0.78764   0.00000  Uiso   1.00
C2209  C     0.83460   0.42083   0.83258   0.00000  Uiso   1.00
C2210  C     0.86084   0.35797   0.86975   0.00000  Uiso   1.00
C2211  C     0.82918   0.62336   0.83407   0.00000  Uiso   1.00
C2212  C     0.83661   0.37590   0.83086   0.00000  Uiso   1.00
C2213  C     0.80140   0.47081   0.68651   0.00000  Uiso   1.00
C2214  C     0.87050   0.52399   0.98102   0.00000  Uiso   1.00
C2215  C     0.80087   0.47067   0.96983   0.00000  Uiso   1.00
C2216  C     0.86574   0.52879   0.69645   0.00000  Uiso   1.00
C2217  C     0.98031   0.47135   0.74115   0.00000  Uiso   1.00
C2218  C     0.94337   0.43901   0.71124   0.00000  Uiso   1.00
C2219  C     0.69924   0.57459   0.86514   0.00000  Uiso   1.00
C2220  C     0.83072   0.57878   0.83350   0.00000  Uiso   1.00
C2221  C     0.73255   0.60311   0.90289   0.00000  Uiso   1.00
C2222  C     0.79954   0.33932   0.70509   0.00000  Uiso   1.00
C2223  C     0.93974   0.62732   0.90103   0.00000  Uiso   1.00
C2224  C     0.74709   0.59015   0.73920   0.00000  Uiso   1.00
C2225  C     0.87393   0.38730   0.94843   0.00000  Uiso   1.00
C2226  C     0.72584   0.41541   0.68351   0.00000  Uiso   1.00
C2227  C     0.95874   0.56333   0.98472   0.00000  Uiso   1.00
C2228  C     0.73709   0.43220   0.91381   0.00000  Uiso   1.00
C2229  C     0.70661   0.38925   0.90808   0.00000  Uiso   1.00
C2230  C     0.92042   0.57821   0.74797   0.00000  Uiso   1.00
C2231  C     0.73459   0.49744   0.82135   0.00000  Uiso   1.00
C2232  C     0.93431   0.62470   0.75384   0.00000  Uiso   1.00
C2233  C     0.93219   0.50200   0.84522   0.00000  Uiso   1.00
C2234  C     0.67854   0.49215   0.81649   0.00000  Uiso   1.00
C2235  C     0.98824   0.50968   0.84933   0.00000  Uiso   1.00
C2236  C     0.81405   0.35049   0.79115   0.00000  Uiso   1.00
C2237  C     0.85864   0.64851   0.87060   0.00000  Uiso   1.00
C2238  C     0.80162   0.64139   0.79656   0.00000  Uiso   1.00
Cu2239 Cu    0.83333   0.50001   0.88022   0.00000  Uiso   1.00
Cu2240 Cu    0.83333   0.49999   0.78645   0.00000  Uiso   1.00
H2241  H     0.68438   0.47391   0.72839   0.00000  Uiso   1.00
H2242  H     0.74857   0.63122   0.88716   0.00000  Uiso   1.00
H2243  H     0.84331   0.38730   0.74295   0.00000  Uiso   1.00
H2244  H     0.82413   0.64753   0.70758   0.00000  Uiso   1.00
H2245  H     0.80725   0.35643   0.67453   0.00000  Uiso   1.00
H2246  H     0.75812   0.66152   0.69884   0.00000  Uiso   1.00
H2247  H     0.88316   0.64005   0.94068   0.00000  Uiso   1.00
H2248  H     0.95070   0.64385   0.87038   0.00000  Uiso   1.00
H2249  H     0.94276   0.59441   0.89516   0.00000  Uiso   1.00
H2250  H     0.96654   0.64036   0.93228   0.00000  Uiso   1.00
H2251  H     0.72420   0.64133   0.77088   0.00000  Uiso   1.00
H2252  H     0.96479   0.50093   0.73687   0.00000  Uiso   1.00
H2253  H     0.72207   0.59859   0.70802   0.00000  Uiso   1.00
H2254  H     0.72802   0.56129   0.75070   0.00000  Uiso   1.00
H2255  H     0.78430   0.58548   0.72845   0.00000  Uiso   1.00
H2256  H     0.93122   0.37827   0.90885   0.00000  Uiso   1.00
H2257  H     0.89698   0.37213   0.97628   0.00000  Uiso   1.00
H2258  H     0.83330   0.37354   0.94464   0.00000  Uiso   1.00
H2259  H     0.87629   0.42028   0.95837   0.00000  Uiso   1.00
H2260  H     0.76654   0.44583   0.74050   0.00000  Uiso   1.00
H2261  H     0.70370   0.39996   0.70908   0.00000  Uiso   1.00
H2262  H     0.73666   0.39020   0.99628   0.00000  Uiso   1.00
H2263  H     0.94689   0.44399   0.67434   0.00000  Uiso   1.00
H2264  H     0.70120   0.43533   0.99631   0.00000  Uiso   1.00
H2265  H     0.93480   0.50317   0.96302   0.00000  Uiso   1.00
H2266  H     0.98358   0.57047   0.95817   0.00000  Uiso   1.00
H2267  H     0.98496   0.55242   0.68001   0.00000  Uiso   1.00
H2268  H     0.94199   0.59132   0.99339   0.00000  Uiso   1.00
H2269  H     0.74671   0.43506   0.87874   0.00000  Uiso   1.00
H2270  H     0.71255   0.45573   0.92240   0.00000  Uiso   1.00
H2271  H     0.68065   0.38434   0.93429   0.00000  Uiso   1.00
H2272  H     0.68196   0.38514   0.87353   0.00000  Uiso   1.00
H2273  H     0.73308   0.36544   0.91041   0.00000  Uiso   1.00
H2274  H     0.95244   0.40770   0.71965   0.00000  Uiso   1.00
H2275  H     0.95331   0.56468   0.73871   0.00000  Uiso   1.00
H2276  H     0.91612   0.56777   0.78267   0.00000  Uiso   1.00
H2277  H     0.90233   0.63896   0.76570   0.00000  Uiso   1.00
H2278  H     0.96886   0.63238   0.78041   0.00000  Uiso   1.00
H2279  H     0.94221   0.63794   0.72061   0.00000  Uiso   1.00
H2280  H     0.90346   0.44153   0.71700   0.00000  Uiso   1.00
H2281  H     0.66687   0.58992   0.84841   0.00000  Uiso   1.00
H2282  H     0.72330   0.56998   0.83798   0.00000  Uiso   1.00
H2283  H     0.71022   0.61247   0.92974   0.00000  Uiso   1.00
H2284  H     0.76465   0.58754   0.91994   0.00000  Uiso   1.00
N2285  N     0.83335   0.50001   0.95069   0.00000  Uiso   1.00
N2286  N     0.83332   0.49999   0.71597   0.00000  Uiso   1.00
N2287  N     0.81147   0.36686   0.74591   0.00000  Uiso   1.00
N2288  N     0.88763   0.63060   0.90762   0.00000  Uiso   1.00
N2289  N     0.75208   0.62189   0.77585   0.00000  Uiso   1.00
N2290  N     0.89350   0.38332   0.90506   0.00000  Uiso   1.00
N2291  N     0.77161   0.43915   0.70744   0.00000  Uiso   1.00
N2292  N     0.91970   0.53041   0.96656   0.00000  Uiso   1.00
O2293  O     0.83333   0.43989   0.87291   0.00000  Uiso   1.00
O2294  O     0.68150   0.53726   0.88441   0.00000  Uiso   1.00
O2295  O     0.78328   0.43303   0.94542   0.00000  Uiso   1.00
O2296  O     0.87472   0.56899   0.71555   0.00000  Uiso   1.00
O2297  O     0.83334   0.56011   0.79375   0.00000  Uiso   1.00
O2298  O     0.83333   0.43988   0.79372   0.00000  Uiso   1.00
O2299  O     0.83334   0.56012   0.87294   0.00000  Uiso   1.00
O2300  O     0.75828   0.50000   0.86379   0.00000  Uiso   1.00
O2301  O     0.90839   0.50000   0.80288   0.00000  Uiso   1.00
O2302  O     0.75828   0.49999   0.78460   0.00000  Uiso   1.00
O2303  O     0.90839   0.50001   0.88207   0.00000  Uiso   1.00
O2304  O     0.98495   0.45997   0.78764   0.00000  Uiso   1.00
C2305  C     0.16793   0.75416   0.83258   0.00000  Uiso   1.00
C2306  C     0.19418   0.69130   0.86975   0.00000  Uiso   1.00
C2307  C     0.16251   0.95669   0.83407   0.00000  Uiso   1.00
C2308  C     0.16994   0.70923   0.83086   0.00000  Uiso   1.00
C2309  C     0.13473   0.80414   0.68651   0.00000  Uiso   1.00
C2310  C     0.20383   0.85732   0.98102   0.00000  Uiso   1.00
C2311  C     0.13420   0.80401   0.96983   0.00000  Uiso   1.00
C2312  C     0.19907   0.86212   0.69645   0.00000  Uiso   1.00
C2313  C     0.31364   0.80468   0.74115   0.00000  Uiso   1.00
C2314  C     0.27671   0.77235   0.71124   0.00000  Uiso   1.00
C2315  C     0.03257   0.90793   0.86514   0.00000  Uiso   1.00
C2316  C     0.16406   0.91211   0.83350   0.00000  Uiso   1.00
C2317  C     0.06588   0.93645   0.90289   0.00000  Uiso   1.00
C2318  C     0.13288   0.67265   0.70509   0.00000  Uiso   1.00
C2319  C     0.27308   0.96066   0.90103   0.00000  Uiso   1.00
C2320  C     0.08042   0.92349   0.73920   0.00000  Uiso   1.00
C2321  C     0.20727   0.72064   0.94843   0.00000  Uiso   1.00
C2322  C     0.05917   0.74874   0.68351   0.00000  Uiso   1.00
C2323  C     0.29207   0.89667   0.98472   0.00000  Uiso   1.00
C2324  C     0.07043   0.76553   0.91381   0.00000  Uiso   1.00
C2325  C     0.03994   0.72259   0.90808   0.00000  Uiso   1.00
C2326  C     0.25376   0.91154   0.74797   0.00000  Uiso   1.00
C2327  C     0.06792   0.83078   0.82135   0.00000  Uiso   1.00
C2328  C     0.26765   0.95803   0.75384   0.00000  Uiso   1.00
C2329  C     0.26553   0.83533   0.84522   0.00000  Uiso   1.00
C2330  C     0.01188   0.82548   0.81649   0.00000  Uiso   1.00
C2331  C     0.32158   0.84302   0.84933   0.00000  Uiso   1.00
C2332  C     0.14739   0.68382   0.79115   0.00000  Uiso   1.00
C2333  C     0.19197   0.98184   0.87060   0.00000  Uiso   1.00
C2334  C     0.13495   0.97472   0.79656   0.00000  Uiso   1.00
Cu2335 Cu    0.16667   0.83334   0.88022   0.00000  Uiso   1.00
Cu2336 Cu    0.16667   0.83333   0.78645   0.00000  Uiso   1.00
H2337  H     0.01771   0.80725   0.72839   0.00000  Uiso   1.00
H2338  H     0.08190   0.96456   0.88716   0.00000  Uiso   1.00
H2339  H     0.17665   0.72063   0.74295   0.00000  Uiso   1.00
H2340  H     0.15746   0.98086   0.70758   0.00000  Uiso   1.00
H2341  H     0.14058   0.68977   0.67453   0.00000  Uiso   1.00
H2342  H     0.09145   0.99485   0.69884   0.00000  Uiso   1.00
H2343  H     0.21649   0.97338   0.94068   0.00000  Uiso   1.00
H2344  H     0.28403   0.97718   0.87038   0.00000  Uiso   1.00
H2345  H     0.27610   0.92774   0.89516   0.00000  Uiso   1.00
H2346  H     0.29987   0.97369   0.93228   0.00000  Uiso   1.00
H2347  H     0.05754   0.97466   0.77088   0.00000  Uiso   1.00
H2348  H     0.29812   0.83426   0.73687   0.00000  Uiso   1.00
H2349  H     0.05540   0.93192   0.70802   0.00000  Uiso   1.00
H2350  H     0.06135   0.89462   0.75070   0.00000  Uiso   1.00
H2351  H     0.11763   0.91881   0.72845   0.00000  Uiso   1.00
H2352  H     0.26455   0.71160   0.90885   0.00000  Uiso   1.00
H2353  H     0.23032   0.70546   0.97628   0.00000  Uiso   1.00
H2354  H     0.16663   0.70688   0.94464   0.00000  Uiso   1.00
H2355  H     0.20963   0.75361   0.95837   0.00000  Uiso   1.00
H2356  H     0.09987   0.77916   0.74050   0.00000  Uiso   1.00
H2357  H     0.03703   0.73329   0.70908   0.00000  Uiso   1.00
H2358  H     0.06999   0.72353   0.99628   0.00000  Uiso   1.00
H2359  H     0.28023   0.77732   0.67434   0.00000  Uiso   1.00
H2360  H     0.03453   0.76867   0.99631   0.00000  Uiso   1.00
H2361  H     0.26813   0.83651   0.96302   0.00000  Uiso   1.00
H2362  H     0.31692   0.90380   0.95817   0.00000  Uiso   1.00
H2363  H     0.31830   0.88575   0.68001   0.00000  Uiso   1.00
H2364  H     0.27532   0.92465   0.99339   0.00000  Uiso   1.00
H2365  H     0.08004   0.76839   0.87874   0.00000  Uiso   1.00
H2366  H     0.04588   0.78906   0.92240   0.00000  Uiso   1.00
H2367  H     0.01399   0.71767   0.93429   0.00000  Uiso   1.00
H2368  H     0.01529   0.71848   0.87353   0.00000  Uiso   1.00
H2369  H     0.06642   0.69878   0.91041   0.00000  Uiso   1.00
H2370  H     0.28577   0.74103   0.71965   0.00000  Uiso   1.00
H2371  H     0.28664   0.89802   0.73871   0.00000  Uiso   1.00
H2372  H     0.24946   0.90110   0.78267   0.00000  Uiso   1.00
H2373  H     0.23566   0.97229   0.76570   0.00000  Uiso   1.00
H2374  H     0.30219   0.96572   0.78041   0.00000  Uiso   1.00
H2375  H     0.27554   0.97128   0.72061   0.00000  Uiso   1.00
H2376  H     0.23679   0.77487   0.71700   0.00000  Uiso   1.00
H2377  H     0.00021   0.92325   0.84841   0.00000  Uiso   1.00
H2378  H     0.05663   0.90331   0.83798   0.00000  Uiso   1.00
H2379  H     0.04355   0.94581   0.92974   0.00000  Uiso   1.00
H2380  H     0.09798   0.92087   0.91994   0.00000  Uiso   1.00
N2381  N     0.16668   0.83334   0.95069   0.00000  Uiso   1.00
N2382  N     0.16665   0.83332   0.71597   0.00000  Uiso   1.00
N2383  N     0.14480   0.70019   0.74591   0.00000  Uiso   1.00
N2384  N     0.22096   0.96393   0.90762   0.00000  Uiso   1.00
N2385  N     0.08541   0.95522   0.77585   0.00000  Uiso   1.00
N2386  N     0.22683   0.71665   0.90506   0.00000  Uiso   1.00
N2387  N     0.10494   0.77249   0.70744   0.00000  Uiso   1.00
N2388  N     0.25303   0.86374   0.96656   0.00000  Uiso   1.00
O2389  O     0.16666   0.77322   0.87291   0.00000  Uiso   1.00
O2390  O     0.01483   0.87059   0.88441   0.00000  Uiso   1.00
O2391  O     0.11661   0.76636   0.94542   0.00000  Uiso   1.00
O2392  O     0.20806   0.90233   0.71555   0.00000  Uiso   1.00
O2393  O     0.16667   0.89345   0.79375   0.00000  Uiso   1.00
O2394  O     0.16666   0.77321   0.79372   0.00000  Uiso   1.00
O2395  O     0.16667   0.89346   0.87294   0.00000  Uiso   1.00
O2396  O     0.09161   0.83334   0.86379   0.00000  Uiso   1.00
O2397  O     0.24172   0.83333   0.80288   0.00000  Uiso   1.00
O2398  O     0.09161   0.83333   0.78460   0.00000  Uiso   1.00
O2399  O     0.24172   0.83334   0.88207   0.00000  Uiso   1.00
O2400  O     0.31828   0.79330   0.78764   0.00000  Uiso   1.00
C2401  C     0.50126   0.75416   0.83258   0.00000  Uiso   1.00
C2402  C     0.52751   0.69130   0.86975   0.00000  Uiso   1.00
C2403  C     0.49584   0.95669   0.83407   0.00000  Uiso   1.00
C2404  C     0.50327   0.70923   0.83086   0.00000  Uiso   1.00
C2405  C     0.46807   0.80414   0.68651   0.00000  Uiso   1.00
C2406  C     0.53717   0.85732   0.98102   0.00000  Uiso   1.00
C2407  C     0.46753   0.80401   0.96983   0.00000  Uiso   1.00
C2408  C     0.53240   0.86212   0.69645   0.00000  Uiso   1.00
C2409  C     0.64698   0.80468   0.74115   0.00000  Uiso   1.00
C2410  C     0.61004   0.77235   0.71124   0.00000  Uiso   1.00
C2411  C     0.36591   0.90793   0.86514   0.00000  Uiso   1.00
C2412  C     0.49739   0.91211   0.83350   0.00000  Uiso   1.00
C2413  C     0.39921   0.93645   0.90289   0.00000  Uiso   1.00
C2414  C     0.46621   0.67265   0.70509   0.00000  Uiso   1.00
C2415  C     0.60641   0.96066   0.90103   0.00000  Uiso   1.00
C2416  C     0.41375   0.92349   0.73920   0.00000  Uiso   1.00
C2417  C     0.54060   0.72064   0.94843   0.00000  Uiso   1.00
C2418  C     0.39251   0.74874   0.68351   0.00000  Uiso   1.00
C2419  C     0.62541   0.89667   0.98472   0.00000  Uiso   1.00
C2420  C     0.40376   0.76553   0.91381   0.00000  Uiso   1.00
C2421  C     0.37327   0.72259   0.90808   0.00000  Uiso   1.00
C2422  C     0.58709   0.91154   0.74797   0.00000  Uiso   1.00
C2423  C     0.40125   0.83078   0.82135   0.00000  Uiso   1.00
C2424  C     0.60098   0.95803   0.75384   0.00000  Uiso   1.00
C2425  C     0.59886   0.83533   0.84522   0.00000  Uiso   1.00
C2426  C     0.34521   0.82548   0.81649   0.00000  Uiso   1.00
C2427  C     0.65491   0.84302   0.84933   0.00000  Uiso   1.00
C2428  C     0.48072   0.68382   0.79115   0.00000  Uiso   1.00
C2429  C     0.52531   0.98184   0.87060   0.00000  Uiso   1.00
C2430  C     0.46828   0.97472   0.79656   0.00000  Uiso   1.00
Cu2431 Cu    0.50000   0.83334   0.88022   0.00000  Uiso   1.00
Cu2432 Cu    0.50000   0.83333   0.78645   0.00000  Uiso   1.00
H2433  H     0.35105   0.80725   0.72839   0.00000  Uiso   1.00
H2434  H     0.41524   0.96456   0.88716   0.00000  Uiso   1.00
H2435  H     0.50998   0.72063   0.74295   0.00000  Uiso   1.00
H2436  H     0.49079   0.98086   0.70758   0.00000  Uiso   1.00
H2437  H     0.47391   0.68977   0.67453   0.00000  Uiso   1.00
H2438  H     0.42479   0.99485   0.69884   0.00000  Uiso   1.00
H2439  H     0.54982   0.97338   0.94068   0.00000  Uiso   1.00
H2440  H     0.61737   0.97718   0.87038   0.00000  Uiso   1.00
H2441  H     0.60943   0.92774   0.89516   0.00000  Uiso   1.00
H2442  H     0.63321   0.97369   0.93228   0.00000  Uiso   1.00
H2443  H     0.39087   0.97466   0.77088   0.00000  Uiso   1.00
H2444  H     0.63146   0.83426   0.73687   0.00000  Uiso   1.00
H2445  H     0.38874   0.93192   0.70802   0.00000  Uiso   1.00
H2446  H     0.39468   0.89462   0.75070   0.00000  Uiso   1.00
H2447  H     0.45096   0.91881   0.72845   0.00000  Uiso   1.00
H2448  H     0.59789   0.71160   0.90885   0.00000  Uiso   1.00
H2449  H     0.56365   0.70546   0.97628   0.00000  Uiso   1.00
H2450  H     0.49996   0.70688   0.94464   0.00000  Uiso   1.00
H2451  H     0.54296   0.75361   0.95837   0.00000  Uiso   1.00
H2452  H     0.43320   0.77916   0.74050   0.00000  Uiso   1.00
H2453  H     0.37036   0.73329   0.70908   0.00000  Uiso   1.00
H2454  H     0.40333   0.72353   0.99628   0.00000  Uiso   1.00
H2455  H     0.61356   0.77732   0.67434   0.00000  Uiso   1.00
H2456  H     0.36787   0.76867   0.99631   0.00000  Uiso   1.00
H2457  H     0.60147   0.83651   0.96302   0.00000  Uiso   1.00
H2458  H     0.65025   0.90380   0.95817   0.00000  Uiso   1.00
H2459  H     0.65163   0.88575   0.68001   0.00000  Uiso   1.00
H2460  H     0.60866   0.92465   0.99339   0.00000  Uiso   1.00
H2461  H     0.41337   0.76839   0.87874   0.00000  Uiso   1.00
H2462  H     0.37921   0.78906   0.92240   0.00000  Uiso   1.00
H2463  H     0.34732   0.71767   0.93429   0.00000  Uiso   1.00
H2464  H     0.34862   0.71848   0.87353   0.00000  Uiso   1.00
H2465  H     0.39975   0.69878   0.91041   0.00000  Uiso   1.00
H2466  H     0.61910   0.74103   0.71965   0.00000  Uiso   1.00
H2467  H     0.61998   0.89802   0.73871   0.00000  Uiso   1.00
H2468  H     0.58279   0.90110   0.78267   0.00000  Uiso   1.00
H2469  H     0.56900   0.97229   0.76570   0.00000  Uiso   1.00
H2470  H     0.63553   0.96572   0.78041   0.00000  Uiso   1.00
H2471  H     0.60887   0.97128   0.72061   0.00000  Uiso   1.00
H2472  H     0.57013   0.77487   0.71700   0.00000  Uiso   1.00
H2473  H     0.33354   0.92325   0.84841   0.00000  Uiso   1.00
H2474  H     0.38996   0.90331   0.83798   0.00000  Uiso   1.00
H2475  H     0.37689   0.94581   0.92974   0.00000  Uiso   1.00
H2476  H     0.43132   0.92087   0.91994   0.00000  Uiso   1.00
N2477  N     0.50001   0.83334   0.95069   0.00000  Uiso   1.00
N2478  N     0.49999   0.83332   0.71597   0.00000  Uiso   1.00
N2479  N     0.47813   0.70019   0.74591   0.00000  Uiso   1.00
N2480  N     0.55430   0.96393   0.90762   0.00000  Uiso   1.00
N2481  N     0.41874   0.95522   0.77585   0.00000  Uiso   1.00
N2482  N     0.56017   0.71665   0.90506   0.00000  Uiso   1.00
N2483  N     0.43827   0.77249   0.70744   0.00000  Uiso   1.00
N2484  N     0.58636   0.86374   0.96656   0.00000  Uiso   1.00
O2485  O     0.50000   0.77322   0.87291   0.00000  Uiso   1.00
O2486  O     0.34816   0.87059   0.88441   0.00000  Uiso   1.00
O2487  O     0.44995   0.76636   0.94542   0.00000  Uiso   1.00
O2488  O     0.54139   0.90233   0.71555   0.00000  Uiso   1.00
O2489  O     0.50000   0.89345   0.79375   0.00000  Uiso   1.00
O2490  O     0.50000   0.77321   0.79372   0.00000  Uiso   1.00
O2491  O     0.50000   0.89346   0.87294   0.00000  Uiso   1.00
O2492  O     0.42495   0.83334   0.86379   0.00000  Uiso   1.00
O2493  O     0.57505   0.83333   0.80288   0.00000  Uiso   1.00
O2494  O     0.42494   0.83333   0.78460   0.00000  Uiso   1.00
O2495  O     0.57506   0.83334   0.88207   0.00000  Uiso   1.00
O2496  O     0.65162   0.79330   0.78764   0.00000  Uiso   1.00
C2497  C     0.83460   0.75416   0.83258   0.00000  Uiso   1.00
C2498  C     0.86084   0.69130   0.86975   0.00000  Uiso   1.00
C2499  C     0.82918   0.95669   0.83407   0.00000  Uiso   1.00
C2500  C     0.83661   0.70923   0.83086   0.00000  Uiso   1.00
C2501  C     0.80140   0.80414   0.68651   0.00000  Uiso   1.00
C2502  C     0.87050   0.85732   0.98102   0.00000  Uiso   1.00
C2503  C     0.80087   0.80401   0.96983   0.00000  Uiso   1.00
C2504  C     0.86574   0.86212   0.69645   0.00000  Uiso   1.00
C2505  C     0.98031   0.80468   0.74115   0.00000  Uiso   1.00
C2506  C     0.94337   0.77235   0.71124   0.00000  Uiso   1.00
C2507  C     0.69924   0.90793   0.86514   0.00000  Uiso   1.00
C2508  C     0.83072   0.91211   0.83350   0.00000  Uiso   1.00
C2509  C     0.73255   0.93645   0.90289   0.00000  Uiso   1.00
C2510  C     0.79954   0.67265   0.70509   0.00000  Uiso   1.00
C2511  C     0.93974   0.96066   0.90103   0.00000  Uiso   1.00
C2512  C     0.74709   0.92349   0.73920   0.00000  Uiso   1.00
C2513  C     0.87393   0.72064   0.94843   0.00000  Uiso   1.00
C2514  C     0.72584   0.74874   0.68351   0.00000  Uiso   1.00
C2515  C     0.95874   0.89667   0.98472   0.00000  Uiso   1.00
C2516  C     0.73709   0.76553   0.91381   0.00000  Uiso   1.00
C2517  C     0.70661   0.72259   0.90808   0.00000  Uiso   1.00
C2518  C     0.92042   0.91154   0.74797   0.00000  Uiso   1.00
C2519  C     0.73459   0.83078   0.82135   0.00000  Uiso   1.00
C2520  C     0.93431   0.95803   0.75384   0.00000  Uiso   1.00
C2521  C     0.93219   0.83533   0.84522   0.00000  Uiso   1.00
C2522  C     0.67854   0.82548   0.81649   0.00000  Uiso   1.00
C2523  C     0.98824   0.84302   0.84933   0.00000  Uiso   1.00
C2524  C     0.81405   0.68382   0.79115   0.00000  Uiso   1.00
C2525  C     0.85864   0.98184   0.87060   0.00000  Uiso   1.00
C2526  C     0.80162   0.97472   0.79656   0.00000  Uiso   1.00
Cu2527 Cu    0.83333   0.83334   0.88022   0.00000  Uiso   1.00
Cu2528 Cu    0.83333   0.83333   0.78645   0.00000  Uiso   1.00
H2529  H     0.68438   0.80725   0.72839   0.00000  Uiso   1.00
H2530  H     0.74857   0.96456   0.88716   0.00000  Uiso   1.00
H2531  H     0.84331   0.72063   0.74295   0.00000  Uiso   1.00
H2532  H     0.82413   0.98086   0.70758   0.00000  Uiso   1.00
H2533  H     0.80725   0.68977   0.67453   0.00000  Uiso   1.00
H2534  H     0.75812   0.99485   0.69884   0.00000  Uiso   1.00
H2535  H     0.88316   0.97338   0.94068   0.00000  Uiso   1.00
H2536  H     0.95070   0.97718   0.87038   0.00000  Uiso   1.00
H2537  H     0.94276   0.92774   0.89516   0.00000  Uiso   1.00
H2538  H     0.96654   0.97369   0.93228   0.00000  Uiso   1.00
H2539  H     0.72420   0.97466   0.77088   0.00000  Uiso   1.00
H2540  H     0.96479   0.83426   0.73687   0.00000  Uiso   1.00
H2541  H     0.72207   0.93192   0.70802   0.00000  Uiso   1.00
H2542  H     0.72802   0.89462   0.75070   0.00000  Uiso   1.00
H2543  H     0.78430   0.91881   0.72845   0.00000  Uiso   1.00
H2544  H     0.93122   0.71160   0.90885   0.00000  Uiso   1.00
H2545  H     0.89698   0.70546   0.97628   0.00000  Uiso   1.00
H2546  H     0.83330   0.70688   0.94464   0.00000  Uiso   1.00
H2547  H     0.87629   0.75361   0.95837   0.00000  Uiso   1.00
H2548  H     0.76654   0.77916   0.74050   0.00000  Uiso   1.00
H2549  H     0.70370   0.73329   0.70908   0.00000  Uiso   1.00
H2550  H     0.73666   0.72353   0.99628   0.00000  Uiso   1.00
H2551  H     0.94689   0.77732   0.67434   0.00000  Uiso   1.00
H2552  H     0.70120   0.76867   0.99631   0.00000  Uiso   1.00
H2553  H     0.93480   0.83651   0.96302   0.00000  Uiso   1.00
H2554  H     0.98358   0.90380   0.95817   0.00000  Uiso   1.00
H2555  H     0.98496   0.88575   0.68001   0.00000  Uiso   1.00
H2556  H     0.94199   0.92465   0.99339   0.00000  Uiso   1.00
H2557  H     0.74671   0.76839   0.87874   0.00000  Uiso   1.00
H2558  H     0.71255   0.78906   0.92240   0.00000  Uiso   1.00
H2559  H     0.68065   0.71767   0.93429   0.00000  Uiso   1.00
H2560  H     0.68196   0.71848   0.87353   0.00000  Uiso   1.00
H2561  H     0.73308   0.69878   0.91041   0.00000  Uiso   1.00
H2562  H     0.95244   0.74103   0.71965   0.00000  Uiso   1.00
H2563  H     0.95331   0.89802   0.73871   0.00000  Uiso   1.00
H2564  H     0.91612   0.90110   0.78267   0.00000  Uiso   1.00
H2565  H     0.90233   0.97229   0.76570   0.00000  Uiso   1.00
H2566  H     0.96886   0.96572   0.78041   0.00000  Uiso   1.00
H2567  H     0.94221   0.97128   0.72061   0.00000  Uiso   1.00
H2568  H     0.90346   0.77487   0.71700   0.00000  Uiso   1.00
H2569  H     0.66687   0.92325   0.84841   0.00000  Uiso   1.00
H2570  H     0.72330   0.90331   0.83798   0.00000  Uiso   1.00
H2571  H     0.71022   0.94581   0.92974   0.00000  Uiso   1.00
H2572  H     0.76465   0.92087   0.91994   0.00000  Uiso   1.00
N2573  N     0.83335   0.83334   0.95069   0.00000  Uiso   1.00
N2574  N     0.83332   0.83332   0.71597   0.00000  Uiso   1.00
N2575  N     0.81147   0.70019   0.74591   0.00000  Uiso   1.00
N2576  N     0.88763   0.96393   0.90762   0.00000  Uiso   1.00
N2577  N     0.75208   0.95522   0.77585   0.00000  Uiso   1.00
N2578  N     0.89350   0.71665   0.90506   0.00000  Uiso   1.00
N2579  N     0.77161   0.77249   0.70744   0.00000  Uiso   1.00
N2580  N     0.91970   0.86374   0.96656   0.00000  Uiso   1.00
O2581  O     0.83333   0.77322   0.87291   0.00000  Uiso   1.00
O2582  O     0.68150   0.87059   0.88441   0.00000  Uiso   1.00
O2583  O     0.78328   0.76636   0.94542   0.00000  Uiso   1.00
O2584  O     0.87472   0.90233   0.71555   0.00000  Uiso   1.00
O2585  O     0.83334   0.89345   0.79375   0.00000  Uiso   1.00
O2586  O     0.83333   0.77321   0.79372   0.00000  Uiso   1.00
O2587  O     0.83334   0.89346   0.87294   0.00000  Uiso   1.00
O2588  O     0.75828   0.83334   0.86379   0.00000  Uiso   1.00
O2589  O     0.90839   0.83333   0.80288   0.00000  Uiso   1.00
O2590  O     0.75828   0.83333   0.78460   0.00000  Uiso   1.00
O2591  O     0.90839   0.83334   0.88207   0.00000  Uiso   1.00
O2592  O     0.98495   0.79330   0.78764   0.00000  Uiso   1.00
loop_
_geom_bond_atom_site_label_1
_geom_bond_atom_site_label_2
_geom_bond_distance
_geom_bond_site_symmetry_2
_ccdc_geom_bond_type
C1     O90     1.306   .     A
C1     O85     1.320   .     A
C1     C4      1.482   .     S
C2     C4      1.401   .     A
C2     N82     1.420   .     S
C2     C605    1.400   1_545 S
C3     C29     1.405   .     A
C3     C12     1.468   .     S
C3     C30     1.410   .     A
C4     C28     1.418   .     A
C5     N83     1.434   .     S
C5     N78     1.384   .     A
C5     C1735   1.453   1_554 S
C6     N84     1.423   .     S
C6     N77     1.375   .     A
C6     C872    1.448   .     S
C7     O87     1.401   .     S
C7     N77     1.397   .     A
C7     C869    1.453   .     S
C8     N78     1.391   .     A
C8     O88     1.396   .     S
C8     C1734   1.448   1_554 S
C9     C10     1.514   .     S
C9     O96     1.406   .     S
C9     H44     1.103   .     S
C9     H129    1.104   .     S
C10    H66     1.110   .     S
C10    H55     1.106   .     S
C10    H72     1.109   .     S
C11    O86     1.420   .     S
C11    H73     1.107   .     S
C11    H74     1.104   .     S
C11    C13     1.524   .     S
C12    O91     1.314   .     A
C12    O89     1.307   .     A
C13    H75     1.104   .     S
C13    H76     1.110   .     S
C13    H34     1.109   .     S
C14    N79     1.444   .     S
C14    H37     1.097   .     S
C14    H612    1.109   1_545 S
C14    H614    1.103   1_545 S
C15    H40     1.114   .     S
C15    H41     1.103   .     S
C15    N80     1.440   .     S
C15    H42     1.110   .     S
C16    H47     1.105   .     S
C16    H46     1.104   .     S
C16    H45     1.107   .     S
C16    N81     1.449   .     S
C17    H51     1.104   .     S
C17    N82     1.441   .     S
C17    H50     1.107   .     S
C17    H49     1.111   .     S
C18    H53     1.111   .     S
C18    N83     1.437   .     S
C18    H1782   1.096   1_554 S
C18    H1784   1.107   1_554 S
C19    H58     1.099   .     S
C19    N84     1.435   .     S
C19    H60     1.105   .     S
C19    H923    1.103   .     S
C20    O87     1.419   .     S
C20    H61     1.091   .     S
C20    H62     1.114   .     S
C20    C21     1.530   .     S
C21    H64     1.112   .     S
C21    H65     1.109   .     S
C21    H63     1.102   .     S
C22    O88     1.420   .     S
C22    H68     1.093   .     S
C22    C24     1.525   .     S
C22    H67     1.089   .     S
C23    C26     1.463   .     S
C23    O94     1.316   .     A
C23    O92     1.298   .     A
C24    H70     1.109   .     S
C24    H69     1.109   .     S
C24    H71     1.109   .     S
C25    O93     1.297   .     A
C25    O95     1.320   .     A
C25    C27     1.466   .     S
C26    C219    1.366   1_455 S
C26    O288    1.387   1_455 S
C27    C122    1.366   .     S
C27    O182    1.394   .     S
C28    N79     1.432   .     S
C28    C606    1.411   1_545 S
C29    N80     1.416   .     S
C29    C290    1.400   .     S
C30    N81     1.431   .     S
C30    C316    1.411   .     S
Cu31   O85     1.978   .     S
Cu31   N77     2.051   .     S
Cu31   O91     1.991   .     S
Cu31   Cu32    2.729   .     S
Cu31   O95     1.986   .     S
Cu31   O92     1.981   .     S
Cu32   O94     1.986   .     S
Cu32   O89     1.978   .     S
Cu32   O93     1.981   .     S
Cu32   O90     1.991   .     S
Cu32   N78     2.051   .     S
H33    C201    1.104   1_455 S
H35    N79     1.030   .     S
H36    C302    1.109   .     S
H38    C302    1.103   .     S
H39    N80     1.029   .     S
H43    N81     1.031   .     S
H48    N82     1.026   .     S
H52    N83     1.011   .     S
H54    C882    1.096   .     S
H56    C882    1.107   .     S
H57    N84     1.031   .     S
H59    C1747   1.103   1_554 S
O86    C219    1.394   1_455 S
O96    C122    1.387   .     S
C97    O186    1.306   .     A
C97    O181    1.320   .     A
C97    C100    1.482   .     S
C98    C100    1.401   .     A
C98    N178    1.420   .     S
C98    C701    1.400   1_545 S
C99    C125    1.405   .     A
C99    C108    1.468   .     S
C99    C126    1.410   .     A
C100   C124    1.418   .     A
C101   N179    1.434   .     S
C101   N174    1.384   .     A
C101   C1831   1.453   1_554 S
C102   N180    1.423   .     S
C102   N173    1.375   .     A
C102   C968    1.448   .     S
C103   O183    1.401   .     S
C103   N173    1.397   .     A
C103   C965    1.453   .     S
C104   N174    1.391   .     A
C104   O184    1.396   .     S
C104   C1830   1.448   1_554 S
C105   C106    1.514   .     S
C105   O192    1.406   .     S
C105   H140    1.103   .     S
C105   H225    1.104   .     S
C106   H162    1.110   .     S
C106   H151    1.106   .     S
C106   H168    1.109   .     S
C107   O182    1.420   .     S
C107   H169    1.107   .     S
C107   H170    1.104   .     S
C107   C109    1.524   .     S
C108   O187    1.314   .     A
C108   O185    1.307   .     A
C109   H171    1.104   .     S
C109   H172    1.110   .     S
C109   H130    1.109   .     S
C110   N175    1.444   .     S
C110   H133    1.097   .     S
C110   H708    1.109   1_545 S
C110   H710    1.103   1_545 S
C111   H136    1.114   .     S
C111   H137    1.103   .     S
C111   N176    1.440   .     S
C111   H138    1.110   .     S
C112   H143    1.105   .     S
C112   H142    1.104   .     S
C112   H141    1.107   .     S
C112   N177    1.449   .     S
C113   H147    1.104   .     S
C113   N178    1.441   .     S
C113   H146    1.107   .     S
C113   H145    1.111   .     S
C114   H149    1.111   .     S
C114   N179    1.437   .     S
C114   H1878   1.096   1_554 S
C114   H1880   1.107   1_554 S
C115   H154    1.099   .     S
C115   N180    1.435   .     S
C115   H156    1.105   .     S
C115   H1019   1.103   .     S
C116   O183    1.419   .     S
C116   H157    1.091   .     S
C116   H158    1.114   .     S
C116   C117    1.530   .     S
C117   H160    1.112   .     S
C117   H161    1.109   .     S
C117   H159    1.102   .     S
C118   O184    1.420   .     S
C118   H164    1.093   .     S
C118   C120    1.525   .     S
C118   H163    1.089   .     S
C119   C122    1.463   .     S
C119   O190    1.316   .     A
C119   O188    1.298   .     A
C120   H166    1.109   .     S
C120   H165    1.109   .     S
C120   H167    1.109   .     S
C121   O189    1.297   .     A
C121   O191    1.320   .     A
C121   C123    1.466   .     S
C123   C218    1.366   .     S
C123   O278    1.394   .     S
C124   N175    1.432   .     S
C124   C702    1.411   1_545 S
C125   N176    1.416   .     S
C125   C386    1.400   .     S
C126   N177    1.431   .     S
C126   C412    1.411   .     S
Cu127  O181    1.978   .     S
Cu127  N173    2.051   .     S
Cu127  O187    1.991   .     S
Cu127  Cu128   2.729   .     S
Cu127  O191    1.986   .     S
Cu127  O188    1.981   .     S
Cu128  O190    1.986   .     S
Cu128  O185    1.978   .     S
Cu128  O189    1.981   .     S
Cu128  O186    1.991   .     S
Cu128  N174    2.051   .     S
H131   N175    1.030   .     S
H132   C398    1.109   .     S
H134   C398    1.103   .     S
H135   N176    1.029   .     S
H139   N177    1.031   .     S
H144   N178    1.026   .     S
H148   N179    1.011   .     S
H150   C978    1.096   .     S
H152   C978    1.107   .     S
H153   N180    1.031   .     S
H155   C1843   1.103   1_554 S
O192   C218    1.387   .     S
C193   O282    1.306   .     A
C193   O277    1.320   .     A
C193   C196    1.482   .     S
C194   C196    1.401   .     A
C194   N274    1.420   .     S
C194   C797    1.400   1_545 S
C195   C221    1.405   .     A
C195   C204    1.468   .     S
C195   C222    1.410   .     A
C196   C220    1.418   .     A
C197   N275    1.434   .     S
C197   N270    1.384   .     A
C197   C1927   1.453   1_554 S
C198   N276    1.423   .     S
C198   N269    1.375   .     A
C198   C1064   1.448   .     S
C199   O279    1.401   .     S
C199   N269    1.397   .     A
C199   C1061   1.453   .     S
C200   N270    1.391   .     A
C200   O280    1.396   .     S
C200   C1926   1.448   1_554 S
C201   C202    1.514   .     S
C201   O288    1.406   .     S
C201   H236    1.103   .     S
C201   H33     1.104   1_655 S
C202   H258    1.110   .     S
C202   H247    1.106   .     S
C202   H264    1.109   .     S
C203   O278    1.420   .     S
C203   H265    1.107   .     S
C203   H266    1.104   .     S
C203   C205    1.524   .     S
C204   O283    1.314   .     A
C204   O281    1.307   .     A
C205   H267    1.104   .     S
C205   H268    1.110   .     S
C205   H226    1.109   .     S
C206   N271    1.444   .     S
C206   H229    1.097   .     S
C206   H804    1.109   1_545 S
C206   H806    1.103   1_545 S
C207   H232    1.114   .     S
C207   H233    1.103   .     S
C207   N272    1.440   .     S
C207   H234    1.110   .     S
C208   H239    1.105   .     S
C208   H238    1.104   .     S
C208   H237    1.107   .     S
C208   N273    1.449   .     S
C209   H243    1.104   .     S
C209   N274    1.441   .     S
C209   H242    1.107   .     S
C209   H241    1.111   .     S
C210   H245    1.111   .     S
C210   N275    1.437   .     S
C210   H1974   1.096   1_554 S
C210   H1976   1.107   1_554 S
C211   H250    1.099   .     S
C211   N276    1.435   .     S
C211   H252    1.105   .     S
C211   H1115   1.103   .     S
C212   O279    1.419   .     S
C212   H253    1.091   .     S
C212   H254    1.114   .     S
C212   C213    1.530   .     S
C213   H256    1.112   .     S
C213   H257    1.109   .     S
C213   H255    1.102   .     S
C214   O280    1.420   .     S
C214   H260    1.093   .     S
C214   C216    1.525   .     S
C214   H259    1.089   .     S
C215   C218    1.463   .     S
C215   O286    1.316   .     A
C215   O284    1.298   .     A
C216   H262    1.109   .     S
C216   H261    1.109   .     S
C216   H263    1.109   .     S
C217   O285    1.297   .     A
C217   O287    1.320   .     A
C217   C219    1.466   .     S
C219   C26     1.366   1_655 S
C219   O86     1.394   1_655 S
C220   N271    1.432   .     S
C220   C798    1.411   1_545 S
C221   N272    1.416   .     S
C221   C482    1.400   .     S
C222   N273    1.431   .     S
C222   C508    1.411   .     S
Cu223  O277    1.978   .     S
Cu223  N269    2.051   .     S
Cu223  O283    1.991   .     S
Cu223  Cu224   2.729   .     S
Cu223  O287    1.986   .     S
Cu223  O284    1.981   .     S
Cu224  O286    1.986   .     S
Cu224  O281    1.978   .     S
Cu224  O285    1.981   .     S
Cu224  O282    1.991   .     S
Cu224  N270    2.051   .     S
H227   N271    1.030   .     S
H228   C494    1.109   .     S
H230   C494    1.103   .     S
H231   N272    1.029   .     S
H235   N273    1.031   .     S
H240   N274    1.026   .     S
H244   N275    1.011   .     S
H246   C1074   1.096   .     S
H248   C1074   1.107   .     S
H249   N276    1.031   .     S
H251   C1939   1.103   1_554 S
O288   C26     1.387   1_655 S
C289   O378    1.306   .     A
C289   O373    1.320   .     A
C289   C292    1.482   .     S
C290   C292    1.401   .     A
C290   N370    1.420   .     S
C291   C317    1.405   .     A
C291   C300    1.468   .     S
C291   C318    1.410   .     A
C292   C316    1.418   .     A
C293   N371    1.434   .     S
C293   N366    1.384   .     A
C293   C2023   1.453   1_554 S
C294   N372    1.423   .     S
C294   N365    1.375   .     A
C294   C1160   1.448   .     S
C295   O375    1.401   .     S
C295   N365    1.397   .     A
C295   C1157   1.453   .     S
C296   N366    1.391   .     A
C296   O376    1.396   .     S
C296   C2022   1.448   1_554 S
C297   C298    1.514   .     S
C297   O384    1.406   .     S
C297   H332    1.103   .     S
C297   H417    1.104   .     S
C298   H354    1.110   .     S
C298   H343    1.106   .     S
C298   H360    1.109   .     S
C299   O374    1.420   .     S
C299   H361    1.107   .     S
C299   H362    1.104   .     S
C299   C301    1.524   .     S
C300   O379    1.314   .     A
C300   O377    1.307   .     A
C301   H363    1.104   .     S
C301   H364    1.110   .     S
C301   H322    1.109   .     S
C302   N367    1.444   .     S
C302   H325    1.097   .     S
C303   H328    1.114   .     S
C303   H329    1.103   .     S
C303   N368    1.440   .     S
C303   H330    1.110   .     S
C304   H335    1.105   .     S
C304   H334    1.104   .     S
C304   H333    1.107   .     S
C304   N369    1.449   .     S
C305   H339    1.104   .     S
C305   N370    1.441   .     S
C305   H338    1.107   .     S
C305   H337    1.111   .     S
C306   H341    1.111   .     S
C306   N371    1.437   .     S
C306   H2070   1.096   1_554 S
C306   H2072   1.107   1_554 S
C307   H346    1.099   .     S
C307   N372    1.435   .     S
C307   H348    1.105   .     S
C307   H1211   1.103   .     S
C308   O375    1.419   .     S
C308   H349    1.091   .     S
C308   H350    1.114   .     S
C308   C309    1.530   .     S
C309   H352    1.112   .     S
C309   H353    1.109   .     S
C309   H351    1.102   .     S
C310   O376    1.420   .     S
C310   H356    1.093   .     S
C310   C312    1.525   .     S
C310   H355    1.089   .     S
C311   C314    1.463   .     S
C311   O382    1.316   .     A
C311   O380    1.298   .     A
C312   H358    1.109   .     S
C312   H357    1.109   .     S
C312   H359    1.109   .     S
C313   O381    1.297   .     A
C313   O383    1.320   .     A
C313   C315    1.466   .     S
C314   C507    1.366   1_455 S
C314   O576    1.387   1_455 S
C315   C410    1.366   .     S
C315   O470    1.394   .     S
C316   N367    1.432   .     S
C317   N368    1.416   .     S
C317   C578    1.400   .     S
C318   N369    1.431   .     S
C318   C604    1.411   .     S
Cu319  O373    1.978   .     S
Cu319  N365    2.051   .     S
Cu319  O379    1.991   .     S
Cu319  Cu320   2.729   .     S
Cu319  O383    1.986   .     S
Cu319  O380    1.981   .     S
Cu320  O382    1.986   .     S
Cu320  O377    1.978   .     S
Cu320  O381    1.981   .     S
Cu320  O378    1.991   .     S
Cu320  N366    2.051   .     S
H321   C489    1.104   1_455 S
H323   N367    1.030   .     S
H324   C590    1.109   .     S
H326   C590    1.103   .     S
H327   N368    1.029   .     S
H331   N369    1.031   .     S
H336   N370    1.026   .     S
H340   N371    1.011   .     S
H342   C1170   1.096   .     S
H344   C1170   1.107   .     S
H345   N372    1.031   .     S
H347   C2035   1.103   1_554 S
O374   C507    1.394   1_455 S
O384   C410    1.387   .     S
C385   O474    1.306   .     A
C385   O469    1.320   .     A
C385   C388    1.482   .     S
C386   C388    1.401   .     A
C386   N466    1.420   .     S
C387   C413    1.405   .     A
C387   C396    1.468   .     S
C387   C414    1.410   .     A
C388   C412    1.418   .     A
C389   N467    1.434   .     S
C389   N462    1.384   .     A
C389   C2119   1.453   1_554 S
C390   N468    1.423   .     S
C390   N461    1.375   .     A
C390   C1256   1.448   .     S
C391   O471    1.401   .     S
C391   N461    1.397   .     A
C391   C1253   1.453   .     S
C392   N462    1.391   .     A
C392   O472    1.396   .     S
C392   C2118   1.448   1_554 S
C393   C394    1.514   .     S
C393   O480    1.406   .     S
C393   H428    1.103   .     S
C393   H513    1.104   .     S
C394   H450    1.110   .     S
C394   H439    1.106   .     S
C394   H456    1.109   .     S
C395   O470    1.420   .     S
C395   H457    1.107   .     S
C395   H458    1.104   .     S
C395   C397    1.524   .     S
C396   O475    1.314   .     A
C396   O473    1.307   .     A
C397   H459    1.104   .     S
C397   H460    1.110   .     S
C397   H418    1.109   .     S
C398   N463    1.444   .     S
C398   H421    1.097   .     S
C399   H424    1.114   .     S
C399   H425    1.103   .     S
C399   N464    1.440   .     S
C399   H426    1.110   .     S
C400   H431    1.105   .     S
C400   H430    1.104   .     S
C400   H429    1.107   .     S
C400   N465    1.449   .     S
C401   H435    1.104   .     S
C401   N466    1.441   .     S
C401   H434    1.107   .     S
C401   H433    1.111   .     S
C402   H437    1.111   .     S
C402   N467    1.437   .     S
C402   H2166   1.096   1_554 S
C402   H2168   1.107   1_554 S
C403   H442    1.099   .     S
C403   N468    1.435   .     S
C403   H444    1.105   .     S
C403   H1307   1.103   .     S
C404   O471    1.419   .     S
C404   H445    1.091   .     S
C404   H446    1.114   .     S
C404   C405    1.530   .     S
C405   H448    1.112   .     S
C405   H449    1.109   .     S
C405   H447    1.102   .     S
C406   O472    1.420   .     S
C406   H452    1.093   .     S
C406   C408    1.525   .     S
C406   H451    1.089   .     S
C407   C410    1.463   .     S
C407   O478    1.316   .     A
C407   O476    1.298   .     A
C408   H454    1.109   .     S
C408   H453    1.109   .     S
C408   H455    1.109   .     S
C409   O477    1.297   .     A
C409   O479    1.320   .     A
C409   C411    1.466   .     S
C411   C506    1.366   .     S
C411   O566    1.394   .     S
C412   N463    1.432   .     S
C413   N464    1.416   .     S
C413   C674    1.400   .     S
C414   N465    1.431   .     S
C414   C700    1.411   .     S
Cu415  O469    1.978   .     S
Cu415  N461    2.051   .     S
Cu415  O475    1.991   .     S
Cu415  Cu416   2.729   .     S
Cu415  O479    1.986   .     S
Cu415  O476    1.981   .     S
Cu416  O478    1.986   .     S
Cu416  O473    1.978   .     S
Cu416  O477    1.981   .     S
Cu416  O474    1.991   .     S
Cu416  N462    2.051   .     S
H419   N463    1.030   .     S
H420   C686    1.109   .     S
H422   C686    1.103   .     S
H423   N464    1.029   .     S
H427   N465    1.031   .     S
H432   N466    1.026   .     S
H436   N467    1.011   .     S
H438   C1266   1.096   .     S
H440   C1266   1.107   .     S
H441   N468    1.031   .     S
H443   C2131   1.103   1_554 S
O480   C506    1.387   .     S
C481   O570    1.306   .     A
C481   O565    1.320   .     A
C481   C484    1.482   .     S
C482   C484    1.401   .     A
C482   N562    1.420   .     S
C483   C509    1.405   .     A
C483   C492    1.468   .     S
C483   C510    1.410   .     A
C484   C508    1.418   .     A
C485   N563    1.434   .     S
C485   N558    1.384   .     A
C485   C2215   1.453   1_554 S
C486   N564    1.423   .     S
C486   N557    1.375   .     A
C486   C1352   1.448   .     S
C487   O567    1.401   .     S
C487   N557    1.397   .     A
C487   C1349   1.453   .     S
C488   N558    1.391   .     A
C488   O568    1.396   .     S
C488   C2214   1.448   1_554 S
C489   C490    1.514   .     S
C489   O576    1.406   .     S
C489   H524    1.103   .     S
C489   H321    1.104   1_655 S
C490   H546    1.110   .     S
C490   H535    1.106   .     S
C490   H552    1.109   .     S
C491   O566    1.420   .     S
C491   H553    1.107   .     S
C491   H554    1.104   .     S
C491   C493    1.524   .     S
C492   O571    1.314   .     A
C492   O569    1.307   .     A
C493   H555    1.104   .     S
C493   H556    1.110   .     S
C493   H514    1.109   .     S
C494   N559    1.444   .     S
C494   H517    1.097   .     S
C495   H520    1.114   .     S
C495   H521    1.103   .     S
C495   N560    1.440   .     S
C495   H522    1.110   .     S
C496   H527    1.105   .     S
C496   H526    1.104   .     S
C496   H525    1.107   .     S
C496   N561    1.449   .     S
C497   H531    1.104   .     S
C497   N562    1.441   .     S
C497   H530    1.107   .     S
C497   H529    1.111   .     S
C498   H533    1.111   .     S
C498   N563    1.437   .     S
C498   H2262   1.096   1_554 S
C498   H2264   1.107   1_554 S
C499   H538    1.099   .     S
C499   N564    1.435   .     S
C499   H540    1.105   .     S
C499   H1403   1.103   .     S
C500   O567    1.419   .     S
C500   H541    1.091   .     S
C500   H542    1.114   .     S
C500   C501    1.530   .     S
C501   H544    1.112   .     S
C501   H545    1.109   .     S
C501   H543    1.102   .     S
C502   O568    1.420   .     S
C502   H548    1.093   .     S
C502   C504    1.525   .     S
C502   H547    1.089   .     S
C503   C506    1.463   .     S
C503   O574    1.316   .     A
C503   O572    1.298   .     A
C504   H550    1.109   .     S
C504   H549    1.109   .     S
C504   H551    1.109   .     S
C505   O573    1.297   .     A
C505   O575    1.320   .     A
C505   C507    1.466   .     S
C507   C314    1.366   1_655 S
C507   O374    1.394   1_655 S
C508   N559    1.432   .     S
C509   N560    1.416   .     S
C509   C770    1.400   .     S
C510   N561    1.431   .     S
C510   C796    1.411   .     S
Cu511  O565    1.978   .     S
Cu511  N557    2.051   .     S
Cu511  O571    1.991   .     S
Cu511  Cu512   2.729   .     S
Cu511  O575    1.986   .     S
Cu511  O572    1.981   .     S
Cu512  O574    1.986   .     S
Cu512  O569    1.978   .     S
Cu512  O573    1.981   .     S
Cu512  O570    1.991   .     S
Cu512  N558    2.051   .     S
H515   N559    1.030   .     S
H516   C782    1.109   .     S
H518   C782    1.103   .     S
H519   N560    1.029   .     S
H523   N561    1.031   .     S
H528   N562    1.026   .     S
H532   N563    1.011   .     S
H534   C1362   1.096   .     S
H536   C1362   1.107   .     S
H537   N564    1.031   .     S
H539   C2227   1.103   1_554 S
O576   C314    1.387   1_655 S
C577   O666    1.306   .     A
C577   O661    1.320   .     A
C577   C580    1.482   .     S
C578   C580    1.401   .     A
C578   N658    1.420   .     S
C579   C605    1.405   .     A
C579   C588    1.468   .     S
C579   C606    1.410   .     A
C580   C604    1.418   .     A
C581   N659    1.434   .     S
C581   N654    1.384   .     A
C581   C2311   1.453   1_554 S
C582   N660    1.423   .     S
C582   N653    1.375   .     A
C582   C1448   1.448   .     S
C583   O663    1.401   .     S
C583   N653    1.397   .     A
C583   C1445   1.453   .     S
C584   N654    1.391   .     A
C584   O664    1.396   .     S
C584   C2310   1.448   1_554 S
C585   C586    1.514   .     S
C585   O672    1.406   .     S
C585   H620    1.103   .     S
C585   H705    1.104   .     S
C586   H642    1.110   .     S
C586   H631    1.106   .     S
C586   H648    1.109   .     S
C587   O662    1.420   .     S
C587   H649    1.107   .     S
C587   H650    1.104   .     S
C587   C589    1.524   .     S
C588   O667    1.314   .     A
C588   O665    1.307   .     A
C589   H651    1.104   .     S
C589   H652    1.110   .     S
C589   H610    1.109   .     S
C590   N655    1.444   .     S
C590   H613    1.097   .     S
C591   H616    1.114   .     S
C591   H617    1.103   .     S
C591   N656    1.440   .     S
C591   H618    1.110   .     S
C592   H623    1.105   .     S
C592   H622    1.104   .     S
C592   H621    1.107   .     S
C592   N657    1.449   .     S
C593   H627    1.104   .     S
C593   N658    1.441   .     S
C593   H626    1.107   .     S
C593   H625    1.111   .     S
C594   H629    1.111   .     S
C594   N659    1.437   .     S
C594   H2358   1.096   1_554 S
C594   H2360   1.107   1_554 S
C595   H634    1.099   .     S
C595   N660    1.435   .     S
C595   H636    1.105   .     S
C595   H1499   1.103   .     S
C596   O663    1.419   .     S
C596   H637    1.091   .     S
C596   H638    1.114   .     S
C596   C597    1.530   .     S
C597   H640    1.112   .     S
C597   H641    1.109   .     S
C597   H639    1.102   .     S
C598   O664    1.420   .     S
C598   H644    1.093   .     S
C598   C600    1.525   .     S
C598   H643    1.089   .     S
C599   C602    1.463   .     S
C599   O670    1.316   .     A
C599   O668    1.298   .     A
C600   H646    1.109   .     S
C600   H645    1.109   .     S
C600   H647    1.109   .     S
C601   O669    1.297   .     A
C601   O671    1.320   .     A
C601   C603    1.466   .     S
C602   C795    1.366   1_455 S
C602   O864    1.387   1_455 S
C603   C698    1.366   .     S
C603   O758    1.394   .     S
C604   N655    1.432   .     S
C605   N656    1.416   .     S
C605   C2      1.400   1_565 S
C606   N657    1.431   .     S
C606   C28     1.411   1_565 S
Cu607  O661    1.978   .     S
Cu607  N653    2.051   .     S
Cu607  O667    1.991   .     S
Cu607  Cu608   2.729   .     S
Cu607  O671    1.986   .     S
Cu607  O668    1.981   .     S
Cu608  O670    1.986   .     S
Cu608  O665    1.978   .     S
Cu608  O669    1.981   .     S
Cu608  O666    1.991   .     S
Cu608  N654    2.051   .     S
H609   C777    1.104   1_455 S
H611   N655    1.030   .     S
H612   C14     1.109   1_565 S
H614   C14     1.103   1_565 S
H615   N656    1.029   .     S
H619   N657    1.031   .     S
H624   N658    1.026   .     S
H628   N659    1.011   .     S
H630   C1458   1.096   .     S
H632   C1458   1.107   .     S
H633   N660    1.031   .     S
H635   C2323   1.103   1_554 S
O662   C795    1.394   1_455 S
O672   C698    1.387   .     S
C673   O762    1.306   .     A
C673   O757    1.320   .     A
C673   C676    1.482   .     S
C674   C676    1.401   .     A
C674   N754    1.420   .     S
C675   C701    1.405   .     A
C675   C684    1.468   .     S
C675   C702    1.410   .     A
C676   C700    1.418   .     A
C677   N755    1.434   .     S
C677   N750    1.384   .     A
C677   C2407   1.453   1_554 S
C678   N756    1.423   .     S
C678   N749    1.375   .     A
C678   C1544   1.448   .     S
C679   O759    1.401   .     S
C679   N749    1.397   .     A
C679   C1541   1.453   .     S
C680   N750    1.391   .     A
C680   O760    1.396   .     S
C680   C2406   1.448   1_554 S
C681   C682    1.514   .     S
C681   O768    1.406   .     S
C681   H716    1.103   .     S
C681   H801    1.104   .     S
C682   H738    1.110   .     S
C682   H727    1.106   .     S
C682   H744    1.109   .     S
C683   O758    1.420   .     S
C683   H745    1.107   .     S
C683   H746    1.104   .     S
C683   C685    1.524   .     S
C684   O763    1.314   .     A
C684   O761    1.307   .     A
C685   H747    1.104   .     S
C685   H748    1.110   .     S
C685   H706    1.109   .     S
C686   N751    1.444   .     S
C686   H709    1.097   .     S
C687   H712    1.114   .     S
C687   H713    1.103   .     S
C687   N752    1.440   .     S
C687   H714    1.110   .     S
C688   H719    1.105   .     S
C688   H718    1.104   .     S
C688   H717    1.107   .     S
C688   N753    1.449   .     S
C689   H723    1.104   .     S
C689   N754    1.441   .     S
C689   H722    1.107   .     S
C689   H721    1.111   .     S
C690   H725    1.111   .     S
C690   N755    1.437   .     S
C690   H2454   1.096   1_554 S
C690   H2456   1.107   1_554 S
C691   H730    1.099   .     S
C691   N756    1.435   .     S
C691   H732    1.105   .     S
C691   H1595   1.103   .     S
C692   O759    1.419   .     S
C692   H733    1.091   .     S
C692   H734    1.114   .     S
C692   C693    1.530   .     S
C693   H736    1.112   .     S
C693   H737    1.109   .     S
C693   H735    1.102   .     S
C694   O760    1.420   .     S
C694   H740    1.093   .     S
C694   C696    1.525   .     S
C694   H739    1.089   .     S
C695   C698    1.463   .     S
C695   O766    1.316   .     A
C695   O764    1.298   .     A
C696   H742    1.109   .     S
C696   H741    1.109   .     S
C696   H743    1.109   .     S
C697   O765    1.297   .     A
C697   O767    1.320   .     A
C697   C699    1.466   .     S
C699   C794    1.366   .     S
C699   O854    1.394   .     S
C700   N751    1.432   .     S
C701   N752    1.416   .     S
C701   C98     1.400   1_565 S
C702   N753    1.431   .     S
C702   C124    1.411   1_565 S
Cu703  O757    1.978   .     S
Cu703  N749    2.051   .     S
Cu703  O763    1.991   .     S
Cu703  Cu704   2.729   .     S
Cu703  O767    1.986   .     S
Cu703  O764    1.981   .     S
Cu704  O766    1.986   .     S
Cu704  O761    1.978   .     S
Cu704  O765    1.981   .     S
Cu704  O762    1.991   .     S
Cu704  N750    2.051   .     S
H707   N751    1.030   .     S
H708   C110    1.109   1_565 S
H710   C110    1.103   1_565 S
H711   N752    1.029   .     S
H715   N753    1.031   .     S
H720   N754    1.026   .     S
H724   N755    1.011   .     S
H726   C1554   1.096   .     S
H728   C1554   1.107   .     S
H729   N756    1.031   .     S
H731   C2419   1.103   1_554 S
O768   C794    1.387   .     S
C769   O858    1.306   .     A
C769   O853    1.320   .     A
C769   C772    1.482   .     S
C770   C772    1.401   .     A
C770   N850    1.420   .     S
C771   C797    1.405   .     A
C771   C780    1.468   .     S
C771   C798    1.410   .     A
C772   C796    1.418   .     A
C773   N851    1.434   .     S
C773   N846    1.384   .     A
C773   C2503   1.453   1_554 S
C774   N852    1.423   .     S
C774   N845    1.375   .     A
C774   C1640   1.448   .     S
C775   O855    1.401   .     S
C775   N845    1.397   .     A
C775   C1637   1.453   .     S
C776   N846    1.391   .     A
C776   O856    1.396   .     S
C776   C2502   1.448   1_554 S
C777   C778    1.514   .     S
C777   O864    1.406   .     S
C777   H812    1.103   .     S
C777   H609    1.104   1_655 S
C778   H834    1.110   .     S
C778   H823    1.106   .     S
C778   H840    1.109   .     S
C779   O854    1.420   .     S
C779   H841    1.107   .     S
C779   H842    1.104   .     S
C779   C781    1.524   .     S
C780   O859    1.314   .     A
C780   O857    1.307   .     A
C781   H843    1.104   .     S
C781   H844    1.110   .     S
C781   H802    1.109   .     S
C782   N847    1.444   .     S
C782   H805    1.097   .     S
C783   H808    1.114   .     S
C783   H809    1.103   .     S
C783   N848    1.440   .     S
C783   H810    1.110   .     S
C784   H815    1.105   .     S
C784   H814    1.104   .     S
C784   H813    1.107   .     S
C784   N849    1.449   .     S
C785   H819    1.104   .     S
C785   N850    1.441   .     S
C785   H818    1.107   .     S
C785   H817    1.111   .     S
C786   H821    1.111   .     S
C786   N851    1.437   .     S
C786   H2550   1.096   1_554 S
C786   H2552   1.107   1_554 S
C787   H826    1.099   .     S
C787   N852    1.435   .     S
C787   H828    1.105   .     S
C787   H1691   1.103   .     S
C788   O855    1.419   .     S
C788   H829    1.091   .     S
C788   H830    1.114   .     S
C788   C789    1.530   .     S
C789   H832    1.112   .     S
C789   H833    1.109   .     S
C789   H831    1.102   .     S
C790   O856    1.420   .     S
C790   H836    1.093   .     S
C790   C792    1.525   .     S
C790   H835    1.089   .     S
C791   C794    1.463   .     S
C791   O862    1.316   .     A
C791   O860    1.298   .     A
C792   H838    1.109   .     S
C792   H837    1.109   .     S
C792   H839    1.109   .     S
C793   O861    1.297   .     A
C793   O863    1.320   .     A
C793   C795    1.466   .     S
C795   C602    1.366   1_655 S
C795   O662    1.394   1_655 S
C796   N847    1.432   .     S
C797   N848    1.416   .     S
C797   C194    1.400   1_565 S
C798   N849    1.431   .     S
C798   C220    1.411   1_565 S
Cu799  O853    1.978   .     S
Cu799  N845    2.051   .     S
Cu799  O859    1.991   .     S
Cu799  Cu800   2.729   .     S
Cu799  O863    1.986   .     S
Cu799  O860    1.981   .     S
Cu800  O862    1.986   .     S
Cu800  O857    1.978   .     S
Cu800  O861    1.981   .     S
Cu800  O858    1.991   .     S
Cu800  N846    2.051   .     S
H803   N847    1.030   .     S
H804   C206    1.109   1_565 S
H806   C206    1.103   1_565 S
H807   N848    1.029   .     S
H811   N849    1.031   .     S
H816   N850    1.026   .     S
H820   N851    1.011   .     S
H822   C1650   1.096   .     S
H824   C1650   1.107   .     S
H825   N852    1.031   .     S
H827   C2515   1.103   1_554 S
O864   C602    1.387   1_655 S
C865   O954    1.306   .     A
C865   O949    1.320   .     A
C865   C868    1.482   .     S
C866   C868    1.401   .     A
C866   N946    1.420   .     S
C866   C1469   1.400   1_545 S
C867   C893    1.405   .     A
C867   C876    1.468   .     S
C867   C894    1.410   .     A
C868   C892    1.418   .     A
C869   N947    1.434   .     S
C869   N942    1.384   .     A
C870   N948    1.423   .     S
C870   N941    1.375   .     A
C870   C1736   1.448   .     S
C871   O951    1.401   .     S
C871   N941    1.397   .     A
C871   C1733   1.453   .     S
C872   N942    1.391   .     A
C872   O952    1.396   .     S
C873   C874    1.514   .     S
C873   O960    1.406   .     S
C873   H908    1.103   .     S
C873   H993    1.104   .     S
C874   H930    1.110   .     S
C874   H919    1.106   .     S
C874   H936    1.109   .     S
C875   O950    1.420   .     S
C875   H937    1.107   .     S
C875   H938    1.104   .     S
C875   C877    1.524   .     S
C876   O955    1.314   .     A
C876   O953    1.307   .     A
C877   H939    1.104   .     S
C877   H940    1.110   .     S
C877   H898    1.109   .     S
C878   N943    1.444   .     S
C878   H901    1.097   .     S
C878   H1476   1.109   1_545 S
C878   H1478   1.103   1_545 S
C879   H904    1.114   .     S
C879   H905    1.103   .     S
C879   N944    1.440   .     S
C879   H906    1.110   .     S
C880   H911    1.105   .     S
C880   H910    1.104   .     S
C880   H909    1.107   .     S
C880   N945    1.449   .     S
C881   H915    1.104   .     S
C881   N946    1.441   .     S
C881   H914    1.107   .     S
C881   H913    1.111   .     S
C882   H917    1.111   .     S
C882   N947    1.437   .     S
C883   H922    1.099   .     S
C883   N948    1.435   .     S
C883   H924    1.105   .     S
C883   H1787   1.103   .     S
C884   O951    1.419   .     S
C884   H925    1.091   .     S
C884   H926    1.114   .     S
C884   C885    1.530   .     S
C885   H928    1.112   .     S
C885   H929    1.109   .     S
C885   H927    1.102   .     S
C886   O952    1.420   .     S
C886   H932    1.093   .     S
C886   C888    1.525   .     S
C886   H931    1.089   .     S
C887   C890    1.463   .     S
C887   O958    1.316   .     A
C887   O956    1.298   .     A
C888   H934    1.109   .     S
C888   H933    1.109   .     S
C888   H935    1.109   .     S
C889   O957    1.297   .     A
C889   O959    1.320   .     A
C889   C891    1.466   .     S
C890   C1083   1.366   1_455 S
C890   O1152   1.387   1_455 S
C891   C986    1.366   .     S
C891   O1046   1.394   .     S
C892   N943    1.432   .     S
C892   C1470   1.411   1_545 S
C893   N944    1.416   .     S
C893   C1154   1.400   .     S
C894   N945    1.431   .     S
C894   C1180   1.411   .     S
Cu895  O949    1.978   .     S
Cu895  N941    2.051   .     S
Cu895  O955    1.991   .     S
Cu895  Cu896   2.729   .     S
Cu895  O959    1.986   .     S
Cu895  O956    1.981   .     S
Cu896  O958    1.986   .     S
Cu896  O953    1.978   .     S
Cu896  O957    1.981   .     S
Cu896  O954    1.991   .     S
Cu896  N942    2.051   .     S
H897   C1065   1.104   1_455 S
H899   N943    1.030   .     S
H900   C1166   1.109   .     S
H902   C1166   1.103   .     S
H903   N944    1.029   .     S
H907   N945    1.031   .     S
H912   N946    1.026   .     S
H916   N947    1.011   .     S
H918   C1746   1.096   .     S
H920   C1746   1.107   .     S
H921   N948    1.031   .     S
O950   C1083   1.394   1_455 S
O960   C986    1.387   .     S
C961   O1050   1.306   .     A
C961   O1045   1.320   .     A
C961   C964    1.482   .     S
C962   C964    1.401   .     A
C962   N1042   1.420   .     S
C962   C1565   1.400   1_545 S
C963   C989    1.405   .     A
C963   C972    1.468   .     S
C963   C990    1.410   .     A
C964   C988    1.418   .     A
C965   N1043   1.434   .     S
C965   N1038   1.384   .     A
C966   N1044   1.423   .     S
C966   N1037   1.375   .     A
C966   C1832   1.448   .     S
C967   O1047   1.401   .     S
C967   N1037   1.397   .     A
C967   C1829   1.453   .     S
C968   N1038   1.391   .     A
C968   O1048   1.396   .     S
C969   C970    1.514   .     S
C969   O1056   1.406   .     S
C969   H1004   1.103   .     S
C969   H1089   1.104   .     S
C970   H1026   1.110   .     S
C970   H1015   1.106   .     S
C970   H1032   1.109   .     S
C971   O1046   1.420   .     S
C971   H1033   1.107   .     S
C971   H1034   1.104   .     S
C971   C973    1.524   .     S
C972   O1051   1.314   .     A
C972   O1049   1.307   .     A
C973   H1035   1.104   .     S
C973   H1036   1.110   .     S
C973   H994    1.109   .     S
C974   N1039   1.444   .     S
C974   H997    1.097   .     S
C974   H1572   1.109   1_545 S
C974   H1574   1.103   1_545 S
C975   H1000   1.114   .     S
C975   H1001   1.103   .     S
C975   N1040   1.440   .     S
C975   H1002   1.110   .     S
C976   H1007   1.105   .     S
C976   H1006   1.104   .     S
C976   H1005   1.107   .     S
C976   N1041   1.449   .     S
C977   H1011   1.104   .     S
C977   N1042   1.441   .     S
C977   H1010   1.107   .     S
C977   H1009   1.111   .     S
C978   H1013   1.111   .     S
C978   N1043   1.437   .     S
C979   H1018   1.099   .     S
C979   N1044   1.435   .     S
C979   H1020   1.105   .     S
C979   H1883   1.103   .     S
C980   O1047   1.419   .     S
C980   H1021   1.091   .     S
C980   H1022   1.114   .     S
C980   C981    1.530   .     S
C981   H1024   1.112   .     S
C981   H1025   1.109   .     S
C981   H1023   1.102   .     S
C982   O1048   1.420   .     S
C982   H1028   1.093   .     S
C982   C984    1.525   .     S
C982   H1027   1.089   .     S
C983   C986    1.463   .     S
C983   O1054   1.316   .     A
C983   O1052   1.298   .     A
C984   H1030   1.109   .     S
C984   H1029   1.109   .     S
C984   H1031   1.109   .     S
C985   O1053   1.297   .     A
C985   O1055   1.320   .     A
C985   C987    1.466   .     S
C987   C1082   1.366   .     S
C987   O1142   1.394   .     S
C988   N1039   1.432   .     S
C988   C1566   1.411   1_545 S
C989   N1040   1.416   .     S
C989   C1250   1.400   .     S
C990   N1041   1.431   .     S
C990   C1276   1.411   .     S
Cu991  O1045   1.978   .     S
Cu991  N1037   2.051   .     S
Cu991  O1051   1.991   .     S
Cu991  Cu992   2.729   .     S
Cu991  O1055   1.986   .     S
Cu991  O1052   1.981   .     S
Cu992  O1054   1.986   .     S
Cu992  O1049   1.978   .     S
Cu992  O1053   1.981   .     S
Cu992  O1050   1.991   .     S
Cu992  N1038   2.051   .     S
H995   N1039   1.030   .     S
H996   C1262   1.109   .     S
H998   C1262   1.103   .     S
H999   N1040   1.029   .     S
H1003  N1041   1.031   .     S
H1008  N1042   1.026   .     S
H1012  N1043   1.011   .     S
H1014  C1842   1.096   .     S
H1016  C1842   1.107   .     S
H1017  N1044   1.031   .     S
O1056  C1082   1.387   .     S
C1057  O1146   1.306   .     A
C1057  O1141   1.320   .     A
C1057  C1060   1.482   .     S
C1058  C1060   1.401   .     A
C1058  N1138   1.420   .     S
C1058  C1661   1.400   1_545 S
C1059  C1085   1.405   .     A
C1059  C1068   1.468   .     S
C1059  C1086   1.410   .     A
C1060  C1084   1.418   .     A
C1061  N1139   1.434   .     S
C1061  N1134   1.384   .     A
C1062  N1140   1.423   .     S
C1062  N1133   1.375   .     A
C1062  C1928   1.448   .     S
C1063  O1143   1.401   .     S
C1063  N1133   1.397   .     A
C1063  C1925   1.453   .     S
C1064  N1134   1.391   .     A
C1064  O1144   1.396   .     S
C1065  C1066   1.514   .     S
C1065  O1152   1.406   .     S
C1065  H1100   1.103   .     S
C1065  H897    1.104   1_655 S
C1066  H1122   1.110   .     S
C1066  H1111   1.106   .     S
C1066  H1128   1.109   .     S
C1067  O1142   1.420   .     S
C1067  H1129   1.107   .     S
C1067  H1130   1.104   .     S
C1067  C1069   1.524   .     S
C1068  O1147   1.314   .     A
C1068  O1145   1.307   .     A
C1069  H1131   1.104   .     S
C1069  H1132   1.110   .     S
C1069  H1090   1.109   .     S
C1070  N1135   1.444   .     S
C1070  H1093   1.097   .     S
C1070  H1668   1.109   1_545 S
C1070  H1670   1.103   1_545 S
C1071  H1096   1.114   .     S
C1071  H1097   1.103   .     S
C1071  N1136   1.440   .     S
C1071  H1098   1.110   .     S
C1072  H1103   1.105   .     S
C1072  H1102   1.104   .     S
C1072  H1101   1.107   .     S
C1072  N1137   1.449   .     S
C1073  H1107   1.104   .     S
C1073  N1138   1.441   .     S
C1073  H1106   1.107   .     S
C1073  H1105   1.111   .     S
C1074  H1109   1.111   .     S
C1074  N1139   1.437   .     S
C1075  H1114   1.099   .     S
C1075  N1140   1.435   .     S
C1075  H1116   1.105   .     S
C1075  H1979   1.103   .     S
C1076  O1143   1.419   .     S
C1076  H1117   1.091   .     S
C1076  H1118   1.114   .     S
C1076  C1077   1.530   .     S
C1077  H1120   1.112   .     S
C1077  H1121   1.109   .     S
C1077  H1119   1.102   .     S
C1078  O1144   1.420   .     S
C1078  H1124   1.093   .     S
C1078  C1080   1.525   .     S
C1078  H1123   1.089   .     S
C1079  C1082   1.463   .     S
C1079  O1150   1.316   .     A
C1079  O1148   1.298   .     A
C1080  H1126   1.109   .     S
C1080  H1125   1.109   .     S
C1080  H1127   1.109   .     S
C1081  O1149   1.297   .     A
C1081  O1151   1.320   .     A
C1081  C1083   1.466   .     S
C1083  C890    1.366   1_655 S
C1083  O950    1.394   1_655 S
C1084  N1135   1.432   .     S
C1084  C1662   1.411   1_545 S
C1085  N1136   1.416   .     S
C1085  C1346   1.400   .     S
C1086  N1137   1.431   .     S
C1086  C1372   1.411   .     S
Cu1087 O1141   1.978   .     S
Cu1087 N1133   2.051   .     S
Cu1087 O1147   1.991   .     S
Cu1087 Cu1088  2.729   .     S
Cu1087 O1151   1.986   .     S
Cu1087 O1148   1.981   .     S
Cu1088 O1150   1.986   .     S
Cu1088 O1145   1.978   .     S
Cu1088 O1149   1.981   .     S
Cu1088 O1146   1.991   .     S
Cu1088 N1134   2.051   .     S
H1091  N1135   1.030   .     S
H1092  C1358   1.109   .     S
H1094  C1358   1.103   .     S
H1095  N1136   1.029   .     S
H1099  N1137   1.031   .     S
H1104  N1138   1.026   .     S
H1108  N1139   1.011   .     S
H1110  C1938   1.096   .     S
H1112  C1938   1.107   .     S
H1113  N1140   1.031   .     S
O1152  C890    1.387   1_655 S
C1153  O1242   1.306   .     A
C1153  O1237   1.320   .     A
C1153  C1156   1.482   .     S
C1154  C1156   1.401   .     A
C1154  N1234   1.420   .     S
C1155  C1181   1.405   .     A
C1155  C1164   1.468   .     S
C1155  C1182   1.410   .     A
C1156  C1180   1.418   .     A
C1157  N1235   1.434   .     S
C1157  N1230   1.384   .     A
C1158  N1236   1.423   .     S
C1158  N1229   1.375   .     A
C1158  C2024   1.448   .     S
C1159  O1239   1.401   .     S
C1159  N1229   1.397   .     A
C1159  C2021   1.453   .     S
C1160  N1230   1.391   .     A
C1160  O1240   1.396   .     S
C1161  C1162   1.514   .     S
C1161  O1248   1.406   .     S
C1161  H1196   1.103   .     S
C1161  H1281   1.104   .     S
C1162  H1218   1.110   .     S
C1162  H1207   1.106   .     S
C1162  H1224   1.109   .     S
C1163  O1238   1.420   .     S
C1163  H1225   1.107   .     S
C1163  H1226   1.104   .     S
C1163  C1165   1.524   .     S
C1164  O1243   1.314   .     A
C1164  O1241   1.307   .     A
C1165  H1227   1.104   .     S
C1165  H1228   1.110   .     S
C1165  H1186   1.109   .     S
C1166  N1231   1.444   .     S
C1166  H1189   1.097   .     S
C1167  H1192   1.114   .     S
C1167  H1193   1.103   .     S
C1167  N1232   1.440   .     S
C1167  H1194   1.110   .     S
C1168  H1199   1.105   .     S
C1168  H1198   1.104   .     S
C1168  H1197   1.107   .     S
C1168  N1233   1.449   .     S
C1169  H1203   1.104   .     S
C1169  N1234   1.441   .     S
C1169  H1202   1.107   .     S
C1169  H1201   1.111   .     S
C1170  H1205   1.111   .     S
C1170  N1235   1.437   .     S
C1171  H1210   1.099   .     S
C1171  N1236   1.435   .     S
C1171  H1212   1.105   .     S
C1171  H2075   1.103   .     S
C1172  O1239   1.419   .     S
C1172  H1213   1.091   .     S
C1172  H1214   1.114   .     S
C1172  C1173   1.530   .     S
C1173  H1216   1.112   .     S
C1173  H1217   1.109   .     S
C1173  H1215   1.102   .     S
C1174  O1240   1.420   .     S
C1174  H1220   1.093   .     S
C1174  C1176   1.525   .     S
C1174  H1219   1.089   .     S
C1175  C1178   1.463   .     S
C1175  O1246   1.316   .     A
C1175  O1244   1.298   .     A
C1176  H1222   1.109   .     S
C1176  H1221   1.109   .     S
C1176  H1223   1.109   .     S
C1177  O1245   1.297   .     A
C1177  O1247   1.320   .     A
C1177  C1179   1.466   .     S
C1178  C1371   1.366   1_455 S
C1178  O1440   1.387   1_455 S
C1179  C1274   1.366   .     S
C1179  O1334   1.394   .     S
C1180  N1231   1.432   .     S
C1181  N1232   1.416   .     S
C1181  C1442   1.400   .     S
C1182  N1233   1.431   .     S
C1182  C1468   1.411   .     S
Cu1183 O1237   1.978   .     S
Cu1183 N1229   2.051   .     S
Cu1183 O1243   1.991   .     S
Cu1183 Cu1184  2.729   .     S
Cu1183 O1247   1.986   .     S
Cu1183 O1244   1.981   .     S
Cu1184 O1246   1.986   .     S
Cu1184 O1241   1.978   .     S
Cu1184 O1245   1.981   .     S
Cu1184 O1242   1.991   .     S
Cu1184 N1230   2.051   .     S
H1185  C1353   1.104   1_455 S
H1187  N1231   1.030   .     S
H1188  C1454   1.109   .     S
H1190  C1454   1.103   .     S
H1191  N1232   1.029   .     S
H1195  N1233   1.031   .     S
H1200  N1234   1.026   .     S
H1204  N1235   1.011   .     S
H1206  C2034   1.096   .     S
H1208  C2034   1.107   .     S
H1209  N1236   1.031   .     S
O1238  C1371   1.394   1_455 S
O1248  C1274   1.387   .     S
C1249  O1338   1.306   .     A
C1249  O1333   1.320   .     A
C1249  C1252   1.482   .     S
C1250  C1252   1.401   .     A
C1250  N1330   1.420   .     S
C1251  C1277   1.405   .     A
C1251  C1260   1.468   .     S
C1251  C1278   1.410   .     A
C1252  C1276   1.418   .     A
C1253  N1331   1.434   .     S
C1253  N1326   1.384   .     A
C1254  N1332   1.423   .     S
C1254  N1325   1.375   .     A
C1254  C2120   1.448   .     S
C1255  O1335   1.401   .     S
C1255  N1325   1.397   .     A
C1255  C2117   1.453   .     S
C1256  N1326   1.391   .     A
C1256  O1336   1.396   .     S
C1257  C1258   1.514   .     S
C1257  O1344   1.406   .     S
C1257  H1292   1.103   .     S
C1257  H1377   1.104   .     S
C1258  H1314   1.110   .     S
C1258  H1303   1.106   .     S
C1258  H1320   1.109   .     S
C1259  O1334   1.420   .     S
C1259  H1321   1.107   .     S
C1259  H1322   1.104   .     S
C1259  C1261   1.524   .     S
C1260  O1339   1.314   .     A
C1260  O1337   1.307   .     A
C1261  H1323   1.104   .     S
C1261  H1324   1.110   .     S
C1261  H1282   1.109   .     S
C1262  N1327   1.444   .     S
C1262  H1285   1.097   .     S
C1263  H1288   1.114   .     S
C1263  H1289   1.103   .     S
C1263  N1328   1.440   .     S
C1263  H1290   1.110   .     S
C1264  H1295   1.105   .     S
C1264  H1294   1.104   .     S
C1264  H1293   1.107   .     S
C1264  N1329   1.449   .     S
C1265  H1299   1.104   .     S
C1265  N1330   1.441   .     S
C1265  H1298   1.107   .     S
C1265  H1297   1.111   .     S
C1266  H1301   1.111   .     S
C1266  N1331   1.437   .     S
C1267  H1306   1.099   .     S
C1267  N1332   1.435   .     S
C1267  H1308   1.105   .     S
C1267  H2171   1.103   .     S
C1268  O1335   1.419   .     S
C1268  H1309   1.091   .     S
C1268  H1310   1.114   .     S
C1268  C1269   1.530   .     S
C1269  H1312   1.112   .     S
C1269  H1313   1.109   .     S
C1269  H1311   1.102   .     S
C1270  O1336   1.420   .     S
C1270  H1316   1.093   .     S
C1270  C1272   1.525   .     S
C1270  H1315   1.089   .     S
C1271  C1274   1.463   .     S
C1271  O1342   1.316   .     A
C1271  O1340   1.298   .     A
C1272  H1318   1.109   .     S
C1272  H1317   1.109   .     S
C1272  H1319   1.109   .     S
C1273  O1341   1.297   .     A
C1273  O1343   1.320   .     A
C1273  C1275   1.466   .     S
C1275  C1370   1.366   .     S
C1275  O1430   1.394   .     S
C1276  N1327   1.432   .     S
C1277  N1328   1.416   .     S
C1277  C1538   1.400   .     S
C1278  N1329   1.431   .     S
C1278  C1564   1.411   .     S
Cu1279 O1333   1.978   .     S
Cu1279 N1325   2.051   .     S
Cu1279 O1339   1.991   .     S
Cu1279 Cu1280  2.729   .     S
Cu1279 O1343   1.986   .     S
Cu1279 O1340   1.981   .     S
Cu1280 O1342   1.986   .     S
Cu1280 O1337   1.978   .     S
Cu1280 O1341   1.981   .     S
Cu1280 O1338   1.991   .     S
Cu1280 N1326   2.051   .     S
H1283  N1327   1.030   .     S
H1284  C1550   1.109   .     S
H1286  C1550   1.103   .     S
H1287  N1328   1.029   .     S
H1291  N1329   1.031   .     S
H1296  N1330   1.026   .     S
H1300  N1331   1.011   .     S
H1302  C2130   1.096   .     S
H1304  C2130   1.107   .     S
H1305  N1332   1.031   .     S
O1344  C1370   1.387   .     S
C1345  O1434   1.306   .     A
C1345  O1429   1.320   .     A
C1345  C1348   1.482   .     S
C1346  C1348   1.401   .     A
C1346  N1426   1.420   .     S
C1347  C1373   1.405   .     A
C1347  C1356   1.468   .     S
C1347  C1374   1.410   .     A
C1348  C1372   1.418   .     A
C1349  N1427   1.434   .     S
C1349  N1422   1.384   .     A
C1350  N1428   1.423   .     S
C1350  N1421   1.375   .     A
C1350  C2216   1.448   .     S
C1351  O1431   1.401   .     S
C1351  N1421   1.397   .     A
C1351  C2213   1.453   .     S
C1352  N1422   1.391   .     A
C1352  O1432   1.396   .     S
C1353  C1354   1.514   .     S
C1353  O1440   1.406   .     S
C1353  H1388   1.103   .     S
C1353  H1185   1.104   1_655 S
C1354  H1410   1.110   .     S
C1354  H1399   1.106   .     S
C1354  H1416   1.109   .     S
C1355  O1430   1.420   .     S
C1355  H1417   1.107   .     S
C1355  H1418   1.104   .     S
C1355  C1357   1.524   .     S
C1356  O1435   1.314   .     A
C1356  O1433   1.307   .     A
C1357  H1419   1.104   .     S
C1357  H1420   1.110   .     S
C1357  H1378   1.109   .     S
C1358  N1423   1.444   .     S
C1358  H1381   1.097   .     S
C1359  H1384   1.114   .     S
C1359  H1385   1.103   .     S
C1359  N1424   1.440   .     S
C1359  H1386   1.110   .     S
C1360  H1391   1.105   .     S
C1360  H1390   1.104   .     S
C1360  H1389   1.107   .     S
C1360  N1425   1.449   .     S
C1361  H1395   1.104   .     S
C1361  N1426   1.441   .     S
C1361  H1394   1.107   .     S
C1361  H1393   1.111   .     S
C1362  H1397   1.111   .     S
C1362  N1427   1.437   .     S
C1363  H1402   1.099   .     S
C1363  N1428   1.435   .     S
C1363  H1404   1.105   .     S
C1363  H2267   1.103   .     S
C1364  O1431   1.419   .     S
C1364  H1405   1.091   .     S
C1364  H1406   1.114   .     S
C1364  C1365   1.530   .     S
C1365  H1408   1.112   .     S
C1365  H1409   1.109   .     S
C1365  H1407   1.102   .     S
C1366  O1432   1.420   .     S
C1366  H1412   1.093   .     S
C1366  C1368   1.525   .     S
C1366  H1411   1.089   .     S
C1367  C1370   1.463   .     S
C1367  O1438   1.316   .     A
C1367  O1436   1.298   .     A
C1368  H1414   1.109   .     S
C1368  H1413   1.109   .     S
C1368  H1415   1.109   .     S
C1369  O1437   1.297   .     A
C1369  O1439   1.320   .     A
C1369  C1371   1.466   .     S
C1371  C1178   1.366   1_655 S
C1371  O1238   1.394   1_655 S
C1372  N1423   1.432   .     S
C1373  N1424   1.416   .     S
C1373  C1634   1.400   .     S
C1374  N1425   1.431   .     S
C1374  C1660   1.411   .     S
Cu1375 O1429   1.978   .     S
Cu1375 N1421   2.051   .     S
Cu1375 O1435   1.991   .     S
Cu1375 Cu1376  2.729   .     S
Cu1375 O1439   1.986   .     S
Cu1375 O1436   1.981   .     S
Cu1376 O1438   1.986   .     S
Cu1376 O1433   1.978   .     S
Cu1376 O1437   1.981   .     S
Cu1376 O1434   1.991   .     S
Cu1376 N1422   2.051   .     S
H1379  N1423   1.030   .     S
H1380  C1646   1.109   .     S
H1382  C1646   1.103   .     S
H1383  N1424   1.029   .     S
H1387  N1425   1.031   .     S
H1392  N1426   1.026   .     S
H1396  N1427   1.011   .     S
H1398  C2226   1.096   .     S
H1400  C2226   1.107   .     S
H1401  N1428   1.031   .     S
O1440  C1178   1.387   1_655 S
C1441  O1530   1.306   .     A
C1441  O1525   1.320   .     A
C1441  C1444   1.482   .     S
C1442  C1444   1.401   .     A
C1442  N1522   1.420   .     S
C1443  C1469   1.405   .     A
C1443  C1452   1.468   .     S
C1443  C1470   1.410   .     A
C1444  C1468   1.418   .     A
C1445  N1523   1.434   .     S
C1445  N1518   1.384   .     A
C1446  N1524   1.423   .     S
C1446  N1517   1.375   .     A
C1446  C2312   1.448   .     S
C1447  O1527   1.401   .     S
C1447  N1517   1.397   .     A
C1447  C2309   1.453   .     S
C1448  N1518   1.391   .     A
C1448  O1528   1.396   .     S
C1449  C1450   1.514   .     S
C1449  O1536   1.406   .     S
C1449  H1484   1.103   .     S
C1449  H1569   1.104   .     S
C1450  H1506   1.110   .     S
C1450  H1495   1.106   .     S
C1450  H1512   1.109   .     S
C1451  O1526   1.420   .     S
C1451  H1513   1.107   .     S
C1451  H1514   1.104   .     S
C1451  C1453   1.524   .     S
C1452  O1531   1.314   .     A
C1452  O1529   1.307   .     A
C1453  H1515   1.104   .     S
C1453  H1516   1.110   .     S
C1453  H1474   1.109   .     S
C1454  N1519   1.444   .     S
C1454  H1477   1.097   .     S
C1455  H1480   1.114   .     S
C1455  H1481   1.103   .     S
C1455  N1520   1.440   .     S
C1455  H1482   1.110   .     S
C1456  H1487   1.105   .     S
C1456  H1486   1.104   .     S
C1456  H1485   1.107   .     S
C1456  N1521   1.449   .     S
C1457  H1491   1.104   .     S
C1457  N1522   1.441   .     S
C1457  H1490   1.107   .     S
C1457  H1489   1.111   .     S
C1458  H1493   1.111   .     S
C1458  N1523   1.437   .     S
C1459  H1498   1.099   .     S
C1459  N1524   1.435   .     S
C1459  H1500   1.105   .     S
C1459  H2363   1.103   .     S
C1460  O1527   1.419   .     S
C1460  H1501   1.091   .     S
C1460  H1502   1.114   .     S
C1460  C1461   1.530   .     S
C1461  H1504   1.112   .     S
C1461  H1505   1.109   .     S
C1461  H1503   1.102   .     S
C1462  O1528   1.420   .     S
C1462  H1508   1.093   .     S
C1462  C1464   1.525   .     S
C1462  H1507   1.089   .     S
C1463  C1466   1.463   .     S
C1463  O1534   1.316   .     A
C1463  O1532   1.298   .     A
C1464  H1510   1.109   .     S
C1464  H1509   1.109   .     S
C1464  H1511   1.109   .     S
C1465  O1533   1.297   .     A
C1465  O1535   1.320   .     A
C1465  C1467   1.466   .     S
C1466  C1659   1.366   1_455 S
C1466  O1728   1.387   1_455 S
C1467  C1562   1.366   .     S
C1467  O1622   1.394   .     S
C1468  N1519   1.432   .     S
C1469  N1520   1.416   .     S
C1469  C866    1.400   1_565 S
C1470  N1521   1.431   .     S
C1470  C892    1.411   1_565 S
Cu1471 O1525   1.978   .     S
Cu1471 N1517   2.051   .     S
Cu1471 O1531   1.991   .     S
Cu1471 Cu1472  2.729   .     S
Cu1471 O1535   1.986   .     S
Cu1471 O1532   1.981   .     S
Cu1472 O1534   1.986   .     S
Cu1472 O1529   1.978   .     S
Cu1472 O1533   1.981   .     S
Cu1472 O1530   1.991   .     S
Cu1472 N1518   2.051   .     S
H1473  C1641   1.104   1_455 S
H1475  N1519   1.030   .     S
H1476  C878    1.109   1_565 S
H1478  C878    1.103   1_565 S
H1479  N1520   1.029   .     S
H1483  N1521   1.031   .     S
H1488  N1522   1.026   .     S
H1492  N1523   1.011   .     S
H1494  C2322   1.096   .     S
H1496  C2322   1.107   .     S
H1497  N1524   1.031   .     S
O1526  C1659   1.394   1_455 S
O1536  C1562   1.387   .     S
C1537  O1626   1.306   .     A
C1537  O1621   1.320   .     A
C1537  C1540   1.482   .     S
C1538  C1540   1.401   .     A
C1538  N1618   1.420   .     S
C1539  C1565   1.405   .     A
C1539  C1548   1.468   .     S
C1539  C1566   1.410   .     A
C1540  C1564   1.418   .     A
C1541  N1619   1.434   .     S
C1541  N1614   1.384   .     A
C1542  N1620   1.423   .     S
C1542  N1613   1.375   .     A
C1542  C2408   1.448   .     S
C1543  O1623   1.401   .     S
C1543  N1613   1.397   .     A
C1543  C2405   1.453   .     S
C1544  N1614   1.391   .     A
C1544  O1624   1.396   .     S
C1545  C1546   1.514   .     S
C1545  O1632   1.406   .     S
C1545  H1580   1.103   .     S
C1545  H1665   1.104   .     S
C1546  H1602   1.110   .     S
C1546  H1591   1.106   .     S
C1546  H1608   1.109   .     S
C1547  O1622   1.420   .     S
C1547  H1609   1.107   .     S
C1547  H1610   1.104   .     S
C1547  C1549   1.524   .     S
C1548  O1627   1.314   .     A
C1548  O1625   1.307   .     A
C1549  H1611   1.104   .     S
C1549  H1612   1.110   .     S
C1549  H1570   1.109   .     S
C1550  N1615   1.444   .     S
C1550  H1573   1.097   .     S
C1551  H1576   1.114   .     S
C1551  H1577   1.103   .     S
C1551  N1616   1.440   .     S
C1551  H1578   1.110   .     S
C1552  H1583   1.105   .     S
C1552  H1582   1.104   .     S
C1552  H1581   1.107   .     S
C1552  N1617   1.449   .     S
C1553  H1587   1.104   .     S
C1553  N1618   1.441   .     S
C1553  H1586   1.107   .     S
C1553  H1585   1.111   .     S
C1554  H1589   1.111   .     S
C1554  N1619   1.437   .     S
C1555  H1594   1.099   .     S
C1555  N1620   1.435   .     S
C1555  H1596   1.105   .     S
C1555  H2459   1.103   .     S
C1556  O1623   1.419   .     S
C1556  H1597   1.091   .     S
C1556  H1598   1.114   .     S
C1556  C1557   1.530   .     S
C1557  H1600   1.112   .     S
C1557  H1601   1.109   .     S
C1557  H1599   1.102   .     S
C1558  O1624   1.420   .     S
C1558  H1604   1.093   .     S
C1558  C1560   1.525   .     S
C1558  H1603   1.089   .     S
C1559  C1562   1.463   .     S
C1559  O1630   1.316   .     A
C1559  O1628   1.298   .     A
C1560  H1606   1.109   .     S
C1560  H1605   1.109   .     S
C1560  H1607   1.109   .     S
C1561  O1629   1.297   .     A
C1561  O1631   1.320   .     A
C1561  C1563   1.466   .     S
C1563  C1658   1.366   .     S
C1563  O1718   1.394   .     S
C1564  N1615   1.432   .     S
C1565  N1616   1.416   .     S
C1565  C962    1.400   1_565 S
C1566  N1617   1.431   .     S
C1566  C988    1.411   1_565 S
Cu1567 O1621   1.978   .     S
Cu1567 N1613   2.051   .     S
Cu1567 O1627   1.991   .     S
Cu1567 Cu1568  2.729   .     S
Cu1567 O1631   1.986   .     S
Cu1567 O1628   1.981   .     S
Cu1568 O1630   1.986   .     S
Cu1568 O1625   1.978   .     S
Cu1568 O1629   1.981   .     S
Cu1568 O1626   1.991   .     S
Cu1568 N1614   2.051   .     S
H1571  N1615   1.030   .     S
H1572  C974    1.109   1_565 S
H1574  C974    1.103   1_565 S
H1575  N1616   1.029   .     S
H1579  N1617   1.031   .     S
H1584  N1618   1.026   .     S
H1588  N1619   1.011   .     S
H1590  C2418   1.096   .     S
H1592  C2418   1.107   .     S
H1593  N1620   1.031   .     S
O1632  C1658   1.387   .     S
C1633  O1722   1.306   .     A
C1633  O1717   1.320   .     A
C1633  C1636   1.482   .     S
C1634  C1636   1.401   .     A
C1634  N1714   1.420   .     S
C1635  C1661   1.405   .     A
C1635  C1644   1.468   .     S
C1635  C1662   1.410   .     A
C1636  C1660   1.418   .     A
C1637  N1715   1.434   .     S
C1637  N1710   1.384   .     A
C1638  N1716   1.423   .     S
C1638  N1709   1.375   .     A
C1638  C2504   1.448   .     S
C1639  O1719   1.401   .     S
C1639  N1709   1.397   .     A
C1639  C2501   1.453   .     S
C1640  N1710   1.391   .     A
C1640  O1720   1.396   .     S
C1641  C1642   1.514   .     S
C1641  O1728   1.406   .     S
C1641  H1676   1.103   .     S
C1641  H1473   1.104   1_655 S
C1642  H1698   1.110   .     S
C1642  H1687   1.106   .     S
C1642  H1704   1.109   .     S
C1643  O1718   1.420   .     S
C1643  H1705   1.107   .     S
C1643  H1706   1.104   .     S
C1643  C1645   1.524   .     S
C1644  O1723   1.314   .     A
C1644  O1721   1.307   .     A
C1645  H1707   1.104   .     S
C1645  H1708   1.110   .     S
C1645  H1666   1.109   .     S
C1646  N1711   1.444   .     S
C1646  H1669   1.097   .     S
C1647  H1672   1.114   .     S
C1647  H1673   1.103   .     S
C1647  N1712   1.440   .     S
C1647  H1674   1.110   .     S
C1648  H1679   1.105   .     S
C1648  H1678   1.104   .     S
C1648  H1677   1.107   .     S
C1648  N1713   1.449   .     S
C1649  H1683   1.104   .     S
C1649  N1714   1.441   .     S
C1649  H1682   1.107   .     S
C1649  H1681   1.111   .     S
C1650  H1685   1.111   .     S
C1650  N1715   1.437   .     S
C1651  H1690   1.099   .     S
C1651  N1716   1.435   .     S
C1651  H1692   1.105   .     S
C1651  H2555   1.103   .     S
C1652  O1719   1.419   .     S
C1652  H1693   1.091   .     S
C1652  H1694   1.114   .     S
C1652  C1653   1.530   .     S
C1653  H1696   1.112   .     S
C1653  H1697   1.109   .     S
C1653  H1695   1.102   .     S
C1654  O1720   1.420   .     S
C1654  H1700   1.093   .     S
C1654  C1656   1.525   .     S
C1654  H1699   1.089   .     S
C1655  C1658   1.463   .     S
C1655  O1726   1.316   .     A
C1655  O1724   1.298   .     A
C1656  H1702   1.109   .     S
C1656  H1701   1.109   .     S
C1656  H1703   1.109   .     S
C1657  O1725   1.297   .     A
C1657  O1727   1.320   .     A
C1657  C1659   1.466   .     S
C1659  C1466   1.366   1_655 S
C1659  O1526   1.394   1_655 S
C1660  N1711   1.432   .     S
C1661  N1712   1.416   .     S
C1661  C1058   1.400   1_565 S
C1662  N1713   1.431   .     S
C1662  C1084   1.411   1_565 S
Cu1663 O1717   1.978   .     S
Cu1663 N1709   2.051   .     S
Cu1663 O1723   1.991   .     S
Cu1663 Cu1664  2.729   .     S
Cu1663 O1727   1.986   .     S
Cu1663 O1724   1.981   .     S
Cu1664 O1726   1.986   .     S
Cu1664 O1721   1.978   .     S
Cu1664 O1725   1.981   .     S
Cu1664 O1722   1.991   .     S
Cu1664 N1710   2.051   .     S
H1667  N1711   1.030   .     S
H1668  C1070   1.109   1_565 S
H1670  C1070   1.103   1_565 S
H1671  N1712   1.029   .     S
H1675  N1713   1.031   .     S
H1680  N1714   1.026   .     S
H1684  N1715   1.011   .     S
H1686  C2514   1.096   .     S
H1688  C2514   1.107   .     S
H1689  N1716   1.031   .     S
O1728  C1466   1.387   1_655 S
C1729  O1818   1.306   .     A
C1729  O1813   1.320   .     A
C1729  C1732   1.482   .     S
C1730  C1732   1.401   .     A
C1730  N1810   1.420   .     S
C1730  C2333   1.400   1_545 S
C1731  C1757   1.405   .     A
C1731  C1740   1.468   .     S
C1731  C1758   1.410   .     A
C1732  C1756   1.418   .     A
C1733  N1811   1.434   .     S
C1733  N1806   1.384   .     A
C1734  N1812   1.423   .     S
C1734  N1805   1.375   .     A
C1734  C8      1.448   1_556 S
C1735  O1815   1.401   .     S
C1735  N1805   1.397   .     A
C1735  C5      1.453   1_556 S
C1736  N1806   1.391   .     A
C1736  O1816   1.396   .     S
C1737  C1738   1.514   .     S
C1737  O1824   1.406   .     S
C1737  H1772   1.103   .     S
C1737  H1857   1.104   .     S
C1738  H1794   1.110   .     S
C1738  H1783   1.106   .     S
C1738  H1800   1.109   .     S
C1739  O1814   1.420   .     S
C1739  H1801   1.107   .     S
C1739  H1802   1.104   .     S
C1739  C1741   1.524   .     S
C1740  O1819   1.314   .     A
C1740  O1817   1.307   .     A
C1741  H1803   1.104   .     S
C1741  H1804   1.110   .     S
C1741  H1762   1.109   .     S
C1742  N1807   1.444   .     S
C1742  H1765   1.097   .     S
C1742  H2340   1.109   1_545 S
C1742  H2342   1.103   1_545 S
C1743  H1768   1.114   .     S
C1743  H1769   1.103   .     S
C1743  N1808   1.440   .     S
C1743  H1770   1.110   .     S
C1744  H1775   1.105   .     S
C1744  H1774   1.104   .     S
C1744  H1773   1.107   .     S
C1744  N1809   1.449   .     S
C1745  H1779   1.104   .     S
C1745  N1810   1.441   .     S
C1745  H1778   1.107   .     S
C1745  H1777   1.111   .     S
C1746  H1781   1.111   .     S
C1746  N1811   1.437   .     S
C1747  H1786   1.099   .     S
C1747  N1812   1.435   .     S
C1747  H1788   1.105   .     S
C1747  H59     1.103   1_556 S
C1748  O1815   1.419   .     S
C1748  H1789   1.091   .     S
C1748  H1790   1.114   .     S
C1748  C1749   1.530   .     S
C1749  H1792   1.112   .     S
C1749  H1793   1.109   .     S
C1749  H1791   1.102   .     S
C1750  O1816   1.420   .     S
C1750  H1796   1.093   .     S
C1750  C1752   1.525   .     S
C1750  H1795   1.089   .     S
C1751  C1754   1.463   .     S
C1751  O1822   1.316   .     A
C1751  O1820   1.298   .     A
C1752  H1798   1.109   .     S
C1752  H1797   1.109   .     S
C1752  H1799   1.109   .     S
C1753  O1821   1.297   .     A
C1753  O1823   1.320   .     A
C1753  C1755   1.466   .     S
C1754  C1947   1.366   1_455 S
C1754  O2016   1.387   1_455 S
C1755  C1850   1.366   .     S
C1755  O1910   1.394   .     S
C1756  N1807   1.432   .     S
C1756  C2334   1.411   1_545 S
C1757  N1808   1.416   .     S
C1757  C2018   1.400   .     S
C1758  N1809   1.431   .     S
C1758  C2044   1.411   .     S
Cu1759 O1813   1.978   .     S
Cu1759 N1805   2.051   .     S
Cu1759 O1819   1.991   .     S
Cu1759 Cu1760  2.729   .     S
Cu1759 O1823   1.986   .     S
Cu1759 O1820   1.981   .     S
Cu1760 O1822   1.986   .     S
Cu1760 O1817   1.978   .     S
Cu1760 O1821   1.981   .     S
Cu1760 O1818   1.991   .     S
Cu1760 N1806   2.051   .     S
H1761  C1929   1.104   1_455 S
H1763  N1807   1.030   .     S
H1764  C2030   1.109   .     S
H1766  C2030   1.103   .     S
H1767  N1808   1.029   .     S
H1771  N1809   1.031   .     S
H1776  N1810   1.026   .     S
H1780  N1811   1.011   .     S
H1782  C18     1.096   1_556 S
H1784  C18     1.107   1_556 S
H1785  N1812   1.031   .     S
O1814  C1947   1.394   1_455 S
O1824  C1850   1.387   .     S
C1825  O1914   1.306   .     A
C1825  O1909   1.320   .     A
C1825  C1828   1.482   .     S
C1826  C1828   1.401   .     A
C1826  N1906   1.420   .     S
C1826  C2429   1.400   1_545 S
C1827  C1853   1.405   .     A
C1827  C1836   1.468   .     S
C1827  C1854   1.410   .     A
C1828  C1852   1.418   .     A
C1829  N1907   1.434   .     S
C1829  N1902   1.384   .     A
C1830  N1908   1.423   .     S
C1830  N1901   1.375   .     A
C1830  C104    1.448   1_556 S
C1831  O1911   1.401   .     S
C1831  N1901   1.397   .     A
C1831  C101    1.453   1_556 S
C1832  N1902   1.391   .     A
C1832  O1912   1.396   .     S
C1833  C1834   1.514   .     S
C1833  O1920   1.406   .     S
C1833  H1868   1.103   .     S
C1833  H1953   1.104   .     S
C1834  H1890   1.110   .     S
C1834  H1879   1.106   .     S
C1834  H1896   1.109   .     S
C1835  O1910   1.420   .     S
C1835  H1897   1.107   .     S
C1835  H1898   1.104   .     S
C1835  C1837   1.524   .     S
C1836  O1915   1.314   .     A
C1836  O1913   1.307   .     A
C1837  H1899   1.104   .     S
C1837  H1900   1.110   .     S
C1837  H1858   1.109   .     S
C1838  N1903   1.444   .     S
C1838  H1861   1.097   .     S
C1838  H2436   1.109   1_545 S
C1838  H2438   1.103   1_545 S
C1839  H1864   1.114   .     S
C1839  H1865   1.103   .     S
C1839  N1904   1.440   .     S
C1839  H1866   1.110   .     S
C1840  H1871   1.105   .     S
C1840  H1870   1.104   .     S
C1840  H1869   1.107   .     S
C1840  N1905   1.449   .     S
C1841  H1875   1.104   .     S
C1841  N1906   1.441   .     S
C1841  H1874   1.107   .     S
C1841  H1873   1.111   .     S
C1842  H1877   1.111   .     S
C1842  N1907   1.437   .     S
C1843  H1882   1.099   .     S
C1843  N1908   1.435   .     S
C1843  H1884   1.105   .     S
C1843  H155    1.103   1_556 S
C1844  O1911   1.419   .     S
C1844  H1885   1.091   .     S
C1844  H1886   1.114   .     S
C1844  C1845   1.530   .     S
C1845  H1888   1.112   .     S
C1845  H1889   1.109   .     S
C1845  H1887   1.102   .     S
C1846  O1912   1.420   .     S
C1846  H1892   1.093   .     S
C1846  C1848   1.525   .     S
C1846  H1891   1.089   .     S
C1847  C1850   1.463   .     S
C1847  O1918   1.316   .     A
C1847  O1916   1.298   .     A
C1848  H1894   1.109   .     S
C1848  H1893   1.109   .     S
C1848  H1895   1.109   .     S
C1849  O1917   1.297   .     A
C1849  O1919   1.320   .     A
C1849  C1851   1.466   .     S
C1851  C1946   1.366   .     S
C1851  O2006   1.394   .     S
C1852  N1903   1.432   .     S
C1852  C2430   1.411   1_545 S
C1853  N1904   1.416   .     S
C1853  C2114   1.400   .     S
C1854  N1905   1.431   .     S
C1854  C2140   1.411   .     S
Cu1855 O1909   1.978   .     S
Cu1855 N1901   2.051   .     S
Cu1855 O1915   1.991   .     S
Cu1855 Cu1856  2.729   .     S
Cu1855 O1919   1.986   .     S
Cu1855 O1916   1.981   .     S
Cu1856 O1918   1.986   .     S
Cu1856 O1913   1.978   .     S
Cu1856 O1917   1.981   .     S
Cu1856 O1914   1.991   .     S
Cu1856 N1902   2.051   .     S
H1859  N1903   1.030   .     S
H1860  C2126   1.109   .     S
H1862  C2126   1.103   .     S
H1863  N1904   1.029   .     S
H1867  N1905   1.031   .     S
H1872  N1906   1.026   .     S
H1876  N1907   1.011   .     S
H1878  C114    1.096   1_556 S
H1880  C114    1.107   1_556 S
H1881  N1908   1.031   .     S
O1920  C1946   1.387   .     S
C1921  O2010   1.306   .     A
C1921  O2005   1.320   .     A
C1921  C1924   1.482   .     S
C1922  C1924   1.401   .     A
C1922  N2002   1.420   .     S
C1922  C2525   1.400   1_545 S
C1923  C1949   1.405   .     A
C1923  C1932   1.468   .     S
C1923  C1950   1.410   .     A
C1924  C1948   1.418   .     A
C1925  N2003   1.434   .     S
C1925  N1998   1.384   .     A
C1926  N2004   1.423   .     S
C1926  N1997   1.375   .     A
C1926  C200    1.448   1_556 S
C1927  O2007   1.401   .     S
C1927  N1997   1.397   .     A
C1927  C197    1.453   1_556 S
C1928  N1998   1.391   .     A
C1928  O2008   1.396   .     S
C1929  C1930   1.514   .     S
C1929  O2016   1.406   .     S
C1929  H1964   1.103   .     S
C1929  H1761   1.104   1_655 S
C1930  H1986   1.110   .     S
C1930  H1975   1.106   .     S
C1930  H1992   1.109   .     S
C1931  O2006   1.420   .     S
C1931  H1993   1.107   .     S
C1931  H1994   1.104   .     S
C1931  C1933   1.524   .     S
C1932  O2011   1.314   .     A
C1932  O2009   1.307   .     A
C1933  H1995   1.104   .     S
C1933  H1996   1.110   .     S
C1933  H1954   1.109   .     S
C1934  N1999   1.444   .     S
C1934  H1957   1.097   .     S
C1934  H2532   1.109   1_545 S
C1934  H2534   1.103   1_545 S
C1935  H1960   1.114   .     S
C1935  H1961   1.103   .     S
C1935  N2000   1.440   .     S
C1935  H1962   1.110   .     S
C1936  H1967   1.105   .     S
C1936  H1966   1.104   .     S
C1936  H1965   1.107   .     S
C1936  N2001   1.449   .     S
C1937  H1971   1.104   .     S
C1937  N2002   1.441   .     S
C1937  H1970   1.107   .     S
C1937  H1969   1.111   .     S
C1938  H1973   1.111   .     S
C1938  N2003   1.437   .     S
C1939  H1978   1.099   .     S
C1939  N2004   1.435   .     S
C1939  H1980   1.105   .     S
C1939  H251    1.103   1_556 S
C1940  O2007   1.419   .     S
C1940  H1981   1.091   .     S
C1940  H1982   1.114   .     S
C1940  C1941   1.530   .     S
C1941  H1984   1.112   .     S
C1941  H1985   1.109   .     S
C1941  H1983   1.102   .     S
C1942  O2008   1.420   .     S
C1942  H1988   1.093   .     S
C1942  C1944   1.525   .     S
C1942  H1987   1.089   .     S
C1943  C1946   1.463   .     S
C1943  O2014   1.316   .     A
C1943  O2012   1.298   .     A
C1944  H1990   1.109   .     S
C1944  H1989   1.109   .     S
C1944  H1991   1.109   .     S
C1945  O2013   1.297   .     A
C1945  O2015   1.320   .     A
C1945  C1947   1.466   .     S
C1947  C1754   1.366   1_655 S
C1947  O1814   1.394   1_655 S
C1948  N1999   1.432   .     S
C1948  C2526   1.411   1_545 S
C1949  N2000   1.416   .     S
C1949  C2210   1.400   .     S
C1950  N2001   1.431   .     S
C1950  C2236   1.411   .     S
Cu1951 O2005   1.978   .     S
Cu1951 N1997   2.051   .     S
Cu1951 O2011   1.991   .     S
Cu1951 Cu1952  2.729   .     S
Cu1951 O2015   1.986   .     S
Cu1951 O2012   1.981   .     S
Cu1952 O2014   1.986   .     S
Cu1952 O2009   1.978   .     S
Cu1952 O2013   1.981   .     S
Cu1952 O2010   1.991   .     S
Cu1952 N1998   2.051   .     S
H1955  N1999   1.030   .     S
H1956  C2222   1.109   .     S
H1958  C2222   1.103   .     S
H1959  N2000   1.029   .     S
H1963  N2001   1.031   .     S
H1968  N2002   1.026   .     S
H1972  N2003   1.011   .     S
H1974  C210    1.096   1_556 S
H1976  C210    1.107   1_556 S
H1977  N2004   1.031   .     S
O2016  C1754   1.387   1_655 S
C2017  O2106   1.306   .     A
C2017  O2101   1.320   .     A
C2017  C2020   1.482   .     S
C2018  C2020   1.401   .     A
C2018  N2098   1.420   .     S
C2019  C2045   1.405   .     A
C2019  C2028   1.468   .     S
C2019  C2046   1.410   .     A
C2020  C2044   1.418   .     A
C2021  N2099   1.434   .     S
C2021  N2094   1.384   .     A
C2022  N2100   1.423   .     S
C2022  N2093   1.375   .     A
C2022  C296    1.448   1_556 S
C2023  O2103   1.401   .     S
C2023  N2093   1.397   .     A
C2023  C293    1.453   1_556 S
C2024  N2094   1.391   .     A
C2024  O2104   1.396   .     S
C2025  C2026   1.514   .     S
C2025  O2112   1.406   .     S
C2025  H2060   1.103   .     S
C2025  H2145   1.104   .     S
C2026  H2082   1.110   .     S
C2026  H2071   1.106   .     S
C2026  H2088   1.109   .     S
C2027  O2102   1.420   .     S
C2027  H2089   1.107   .     S
C2027  H2090   1.104   .     S
C2027  C2029   1.524   .     S
C2028  O2107   1.314   .     A
C2028  O2105   1.307   .     A
C2029  H2091   1.104   .     S
C2029  H2092   1.110   .     S
C2029  H2050   1.109   .     S
C2030  N2095   1.444   .     S
C2030  H2053   1.097   .     S
C2031  H2056   1.114   .     S
C2031  H2057   1.103   .     S
C2031  N2096   1.440   .     S
C2031  H2058   1.110   .     S
C2032  H2063   1.105   .     S
C2032  H2062   1.104   .     S
C2032  H2061   1.107   .     S
C2032  N2097   1.449   .     S
C2033  H2067   1.104   .     S
C2033  N2098   1.441   .     S
C2033  H2066   1.107   .     S
C2033  H2065   1.111   .     S
C2034  H2069   1.111   .     S
C2034  N2099   1.437   .     S
C2035  H2074   1.099   .     S
C2035  N2100   1.435   .     S
C2035  H2076   1.105   .     S
C2035  H347    1.103   1_556 S
C2036  O2103   1.419   .     S
C2036  H2077   1.091   .     S
C2036  H2078   1.114   .     S
C2036  C2037   1.530   .     S
C2037  H2080   1.112   .     S
C2037  H2081   1.109   .     S
C2037  H2079   1.102   .     S
C2038  O2104   1.420   .     S
C2038  H2084   1.093   .     S
C2038  C2040   1.525   .     S
C2038  H2083   1.089   .     S
C2039  C2042   1.463   .     S
C2039  O2110   1.316   .     A
C2039  O2108   1.298   .     A
C2040  H2086   1.109   .     S
C2040  H2085   1.109   .     S
C2040  H2087   1.109   .     S
C2041  O2109   1.297   .     A
C2041  O2111   1.320   .     A
C2041  C2043   1.466   .     S
C2042  C2235   1.366   1_455 S
C2042  O2304   1.387   1_455 S
C2043  C2138   1.366   .     S
C2043  O2198   1.394   .     S
C2044  N2095   1.432   .     S
C2045  N2096   1.416   .     S
C2045  C2306   1.400   .     S
C2046  N2097   1.431   .     S
C2046  C2332   1.411   .     S
Cu2047 O2101   1.978   .     S
Cu2047 N2093   2.051   .     S
Cu2047 O2107   1.991   .     S
Cu2047 Cu2048  2.729   .     S
Cu2047 O2111   1.986   .     S
Cu2047 O2108   1.981   .     S
Cu2048 O2110   1.986   .     S
Cu2048 O2105   1.978   .     S
Cu2048 O2109   1.981   .     S
Cu2048 O2106   1.991   .     S
Cu2048 N2094   2.051   .     S
H2049  C2217   1.104   1_455 S
H2051  N2095   1.030   .     S
H2052  C2318   1.109   .     S
H2054  C2318   1.103   .     S
H2055  N2096   1.029   .     S
H2059  N2097   1.031   .     S
H2064  N2098   1.026   .     S
H2068  N2099   1.011   .     S
H2070  C306    1.096   1_556 S
H2072  C306    1.107   1_556 S
H2073  N2100   1.031   .     S
O2102  C2235   1.394   1_455 S
O2112  C2138   1.387   .     S
C2113  O2202   1.306   .     A
C2113  O2197   1.320   .     A
C2113  C2116   1.482   .     S
C2114  C2116   1.401   .     A
C2114  N2194   1.420   .     S
C2115  C2141   1.405   .     A
C2115  C2124   1.468   .     S
C2115  C2142   1.410   .     A
C2116  C2140   1.418   .     A
C2117  N2195   1.434   .     S
C2117  N2190   1.384   .     A
C2118  N2196   1.423   .     S
C2118  N2189   1.375   .     A
C2118  C392    1.448   1_556 S
C2119  O2199   1.401   .     S
C2119  N2189   1.397   .     A
C2119  C389    1.453   1_556 S
C2120  N2190   1.391   .     A
C2120  O2200   1.396   .     S
C2121  C2122   1.514   .     S
C2121  O2208   1.406   .     S
C2121  H2156   1.103   .     S
C2121  H2241   1.104   .     S
C2122  H2178   1.110   .     S
C2122  H2167   1.106   .     S
C2122  H2184   1.109   .     S
C2123  O2198   1.420   .     S
C2123  H2185   1.107   .     S
C2123  H2186   1.104   .     S
C2123  C2125   1.524   .     S
C2124  O2203   1.314   .     A
C2124  O2201   1.307   .     A
C2125  H2187   1.104   .     S
C2125  H2188   1.110   .     S
C2125  H2146   1.109   .     S
C2126  N2191   1.444   .     S
C2126  H2149   1.097   .     S
C2127  H2152   1.114   .     S
C2127  H2153   1.103   .     S
C2127  N2192   1.440   .     S
C2127  H2154   1.110   .     S
C2128  H2159   1.105   .     S
C2128  H2158   1.104   .     S
C2128  H2157   1.107   .     S
C2128  N2193   1.449   .     S
C2129  H2163   1.104   .     S
C2129  N2194   1.441   .     S
C2129  H2162   1.107   .     S
C2129  H2161   1.111   .     S
C2130  H2165   1.111   .     S
C2130  N2195   1.437   .     S
C2131  H2170   1.099   .     S
C2131  N2196   1.435   .     S
C2131  H2172   1.105   .     S
C2131  H443    1.103   1_556 S
C2132  O2199   1.419   .     S
C2132  H2173   1.091   .     S
C2132  H2174   1.114   .     S
C2132  C2133   1.530   .     S
C2133  H2176   1.112   .     S
C2133  H2177   1.109   .     S
C2133  H2175   1.102   .     S
C2134  O2200   1.420   .     S
C2134  H2180   1.093   .     S
C2134  C2136   1.525   .     S
C2134  H2179   1.089   .     S
C2135  C2138   1.463   .     S
C2135  O2206   1.316   .     A
C2135  O2204   1.298   .     A
C2136  H2182   1.109   .     S
C2136  H2181   1.109   .     S
C2136  H2183   1.109   .     S
C2137  O2205   1.297   .     A
C2137  O2207   1.320   .     A
C2137  C2139   1.466   .     S
C2139  C2234   1.366   .     S
C2139  O2294   1.394   .     S
C2140  N2191   1.432   .     S
C2141  N2192   1.416   .     S
C2141  C2402   1.400   .     S
C2142  N2193   1.431   .     S
C2142  C2428   1.411   .     S
Cu2143 O2197   1.978   .     S
Cu2143 N2189   2.051   .     S
Cu2143 O2203   1.991   .     S
Cu2143 Cu2144  2.729   .     S
Cu2143 O2207   1.986   .     S
Cu2143 O2204   1.981   .     S
Cu2144 O2206   1.986   .     S
Cu2144 O2201   1.978   .     S
Cu2144 O2205   1.981   .     S
Cu2144 O2202   1.991   .     S
Cu2144 N2190   2.051   .     S
H2147  N2191   1.030   .     S
H2148  C2414   1.109   .     S
H2150  C2414   1.103   .     S
H2151  N2192   1.029   .     S
H2155  N2193   1.031   .     S
H2160  N2194   1.026   .     S
H2164  N2195   1.011   .     S
H2166  C402    1.096   1_556 S
H2168  C402    1.107   1_556 S
H2169  N2196   1.031   .     S
O2208  C2234   1.387   .     S
C2209  O2298   1.306   .     A
C2209  O2293   1.320   .     A
C2209  C2212   1.482   .     S
C2210  C2212   1.401   .     A
C2210  N2290   1.420   .     S
C2211  C2237   1.405   .     A
C2211  C2220   1.468   .     S
C2211  C2238   1.410   .     A
C2212  C2236   1.418   .     A
C2213  N2291   1.434   .     S
C2213  N2286   1.384   .     A
C2214  N2292   1.423   .     S
C2214  N2285   1.375   .     A
C2214  C488    1.448   1_556 S
C2215  O2295   1.401   .     S
C2215  N2285   1.397   .     A
C2215  C485    1.453   1_556 S
C2216  N2286   1.391   .     A
C2216  O2296   1.396   .     S
C2217  C2218   1.514   .     S
C2217  O2304   1.406   .     S
C2217  H2252   1.103   .     S
C2217  H2049   1.104   1_655 S
C2218  H2274   1.110   .     S
C2218  H2263   1.106   .     S
C2218  H2280   1.109   .     S
C2219  O2294   1.420   .     S
C2219  H2281   1.107   .     S
C2219  H2282   1.104   .     S
C2219  C2221   1.524   .     S
C2220  O2299   1.314   .     A
C2220  O2297   1.307   .     A
C2221  H2283   1.104   .     S
C2221  H2284   1.110   .     S
C2221  H2242   1.109   .     S
C2222  N2287   1.444   .     S
C2222  H2245   1.097   .     S
C2223  H2248   1.114   .     S
C2223  H2249   1.103   .     S
C2223  N2288   1.440   .     S
C2223  H2250   1.110   .     S
C2224  H2255   1.105   .     S
C2224  H2254   1.104   .     S
C2224  H2253   1.107   .     S
C2224  N2289   1.449   .     S
C2225  H2259   1.104   .     S
C2225  N2290   1.441   .     S
C2225  H2258   1.107   .     S
C2225  H2257   1.111   .     S
C2226  H2261   1.111   .     S
C2226  N2291   1.437   .     S
C2227  H2266   1.099   .     S
C2227  N2292   1.435   .     S
C2227  H2268   1.105   .     S
C2227  H539    1.103   1_556 S
C2228  O2295   1.419   .     S
C2228  H2269   1.091   .     S
C2228  H2270   1.114   .     S
C2228  C2229   1.530   .     S
C2229  H2272   1.112   .     S
C2229  H2273   1.109   .     S
C2229  H2271   1.102   .     S
C2230  O2296   1.420   .     S
C2230  H2276   1.093   .     S
C2230  C2232   1.525   .     S
C2230  H2275   1.089   .     S
C2231  C2234   1.463   .     S
C2231  O2302   1.316   .     A
C2231  O2300   1.298   .     A
C2232  H2278   1.109   .     S
C2232  H2277   1.109   .     S
C2232  H2279   1.109   .     S
C2233  O2301   1.297   .     A
C2233  O2303   1.320   .     A
C2233  C2235   1.466   .     S
C2235  C2042   1.366   1_655 S
C2235  O2102   1.394   1_655 S
C2236  N2287   1.432   .     S
C2237  N2288   1.416   .     S
C2237  C2498   1.400   .     S
C2238  N2289   1.431   .     S
C2238  C2524   1.411   .     S
Cu2239 O2293   1.978   .     S
Cu2239 N2285   2.051   .     S
Cu2239 O2299   1.991   .     S
Cu2239 Cu2240  2.729   .     S
Cu2239 O2303   1.986   .     S
Cu2239 O2300   1.981   .     S
Cu2240 O2302   1.986   .     S
Cu2240 O2297   1.978   .     S
Cu2240 O2301   1.981   .     S
Cu2240 O2298   1.991   .     S
Cu2240 N2286   2.051   .     S
H2243  N2287   1.030   .     S
H2244  C2510   1.109   .     S
H2246  C2510   1.103   .     S
H2247  N2288   1.029   .     S
H2251  N2289   1.031   .     S
H2256  N2290   1.026   .     S
H2260  N2291   1.011   .     S
H2262  C498    1.096   1_556 S
H2264  C498    1.107   1_556 S
H2265  N2292   1.031   .     S
O2304  C2042   1.387   1_655 S
C2305  O2394   1.306   .     A
C2305  O2389   1.320   .     A
C2305  C2308   1.482   .     S
C2306  C2308   1.401   .     A
C2306  N2386   1.420   .     S
C2307  C2333   1.405   .     A
C2307  C2316   1.468   .     S
C2307  C2334   1.410   .     A
C2308  C2332   1.418   .     A
C2309  N2387   1.434   .     S
C2309  N2382   1.384   .     A
C2310  N2388   1.423   .     S
C2310  N2381   1.375   .     A
C2310  C584    1.448   1_556 S
C2311  O2391   1.401   .     S
C2311  N2381   1.397   .     A
C2311  C581    1.453   1_556 S
C2312  N2382   1.391   .     A
C2312  O2392   1.396   .     S
C2313  C2314   1.514   .     S
C2313  O2400   1.406   .     S
C2313  H2348   1.103   .     S
C2313  H2433   1.104   .     S
C2314  H2370   1.110   .     S
C2314  H2359   1.106   .     S
C2314  H2376   1.109   .     S
C2315  O2390   1.420   .     S
C2315  H2377   1.107   .     S
C2315  H2378   1.104   .     S
C2315  C2317   1.524   .     S
C2316  O2395   1.314   .     A
C2316  O2393   1.307   .     A
C2317  H2379   1.104   .     S
C2317  H2380   1.110   .     S
C2317  H2338   1.109   .     S
C2318  N2383   1.444   .     S
C2318  H2341   1.097   .     S
C2319  H2344   1.114   .     S
C2319  H2345   1.103   .     S
C2319  N2384   1.440   .     S
C2319  H2346   1.110   .     S
C2320  H2351   1.105   .     S
C2320  H2350   1.104   .     S
C2320  H2349   1.107   .     S
C2320  N2385   1.449   .     S
C2321  H2355   1.104   .     S
C2321  N2386   1.441   .     S
C2321  H2354   1.107   .     S
C2321  H2353   1.111   .     S
C2322  H2357   1.111   .     S
C2322  N2387   1.437   .     S
C2323  H2362   1.099   .     S
C2323  N2388   1.435   .     S
C2323  H2364   1.105   .     S
C2323  H635    1.103   1_556 S
C2324  O2391   1.419   .     S
C2324  H2365   1.091   .     S
C2324  H2366   1.114   .     S
C2324  C2325   1.530   .     S
C2325  H2368   1.112   .     S
C2325  H2369   1.109   .     S
C2325  H2367   1.102   .     S
C2326  O2392   1.420   .     S
C2326  H2372   1.093   .     S
C2326  C2328   1.525   .     S
C2326  H2371   1.089   .     S
C2327  C2330   1.463   .     S
C2327  O2398   1.316   .     A
C2327  O2396   1.298   .     A
C2328  H2374   1.109   .     S
C2328  H2373   1.109   .     S
C2328  H2375   1.109   .     S
C2329  O2397   1.297   .     A
C2329  O2399   1.320   .     A
C2329  C2331   1.466   .     S
C2330  C2523   1.366   1_455 S
C2330  O2592   1.387   1_455 S
C2331  C2426   1.366   .     S
C2331  O2486   1.394   .     S
C2332  N2383   1.432   .     S
C2333  N2384   1.416   .     S
C2333  C1730   1.400   1_565 S
C2334  N2385   1.431   .     S
C2334  C1756   1.411   1_565 S
Cu2335 O2389   1.978   .     S
Cu2335 N2381   2.051   .     S
Cu2335 O2395   1.991   .     S
Cu2335 Cu2336  2.729   .     S
Cu2335 O2399   1.986   .     S
Cu2335 O2396   1.981   .     S
Cu2336 O2398   1.986   .     S
Cu2336 O2393   1.978   .     S
Cu2336 O2397   1.981   .     S
Cu2336 O2394   1.991   .     S
Cu2336 N2382   2.051   .     S
H2337  C2505   1.104   1_455 S
H2339  N2383   1.030   .     S
H2340  C1742   1.109   1_565 S
H2342  C1742   1.103   1_565 S
H2343  N2384   1.029   .     S
H2347  N2385   1.031   .     S
H2352  N2386   1.026   .     S
H2356  N2387   1.011   .     S
H2358  C594    1.096   1_556 S
H2360  C594    1.107   1_556 S
H2361  N2388   1.031   .     S
O2390  C2523   1.394   1_455 S
O2400  C2426   1.387   .     S
C2401  O2490   1.306   .     A
C2401  O2485   1.320   .     A
C2401  C2404   1.482   .     S
C2402  C2404   1.401   .     A
C2402  N2482   1.420   .     S
C2403  C2429   1.405   .     A
C2403  C2412   1.468   .     S
C2403  C2430   1.410   .     A
C2404  C2428   1.418   .     A
C2405  N2483   1.434   .     S
C2405  N2478   1.384   .     A
C2406  N2484   1.423   .     S
C2406  N2477   1.375   .     A
C2406  C680    1.448   1_556 S
C2407  O2487   1.401   .     S
C2407  N2477   1.397   .     A
C2407  C677    1.453   1_556 S
C2408  N2478   1.391   .     A
C2408  O2488   1.396   .     S
C2409  C2410   1.514   .     S
C2409  O2496   1.406   .     S
C2409  H2444   1.103   .     S
C2409  H2529   1.104   .     S
C2410  H2466   1.110   .     S
C2410  H2455   1.106   .     S
C2410  H2472   1.109   .     S
C2411  O2486   1.420   .     S
C2411  H2473   1.107   .     S
C2411  H2474   1.104   .     S
C2411  C2413   1.524   .     S
C2412  O2491   1.314   .     A
C2412  O2489   1.307   .     A
C2413  H2475   1.104   .     S
C2413  H2476   1.110   .     S
C2413  H2434   1.109   .     S
C2414  N2479   1.444   .     S
C2414  H2437   1.097   .     S
C2415  H2440   1.114   .     S
C2415  H2441   1.103   .     S
C2415  N2480   1.440   .     S
C2415  H2442   1.110   .     S
C2416  H2447   1.105   .     S
C2416  H2446   1.104   .     S
C2416  H2445   1.107   .     S
C2416  N2481   1.449   .     S
C2417  H2451   1.104   .     S
C2417  N2482   1.441   .     S
C2417  H2450   1.107   .     S
C2417  H2449   1.111   .     S
C2418  H2453   1.111   .     S
C2418  N2483   1.437   .     S
C2419  H2458   1.099   .     S
C2419  N2484   1.435   .     S
C2419  H2460   1.105   .     S
C2419  H731    1.103   1_556 S
C2420  O2487   1.419   .     S
C2420  H2461   1.091   .     S
C2420  H2462   1.114   .     S
C2420  C2421   1.530   .     S
C2421  H2464   1.112   .     S
C2421  H2465   1.109   .     S
C2421  H2463   1.102   .     S
C2422  O2488   1.420   .     S
C2422  H2468   1.093   .     S
C2422  C2424   1.525   .     S
C2422  H2467   1.089   .     S
C2423  C2426   1.463   .     S
C2423  O2494   1.316   .     A
C2423  O2492   1.298   .     A
C2424  H2470   1.109   .     S
C2424  H2469   1.109   .     S
C2424  H2471   1.109   .     S
C2425  O2493   1.297   .     A
C2425  O2495   1.320   .     A
C2425  C2427   1.466   .     S
C2427  C2522   1.366   .     S
C2427  O2582   1.394   .     S
C2428  N2479   1.432   .     S
C2429  N2480   1.416   .     S
C2429  C1826   1.400   1_565 S
C2430  N2481   1.431   .     S
C2430  C1852   1.411   1_565 S
Cu2431 O2485   1.978   .     S
Cu2431 N2477   2.051   .     S
Cu2431 O2491   1.991   .     S
Cu2431 Cu2432  2.729   .     S
Cu2431 O2495   1.986   .     S
Cu2431 O2492   1.981   .     S
Cu2432 O2494   1.986   .     S
Cu2432 O2489   1.978   .     S
Cu2432 O2493   1.981   .     S
Cu2432 O2490   1.991   .     S
Cu2432 N2478   2.051   .     S
H2435  N2479   1.030   .     S
H2436  C1838   1.109   1_565 S
H2438  C1838   1.103   1_565 S
H2439  N2480   1.029   .     S
H2443  N2481   1.031   .     S
H2448  N2482   1.026   .     S
H2452  N2483   1.011   .     S
H2454  C690    1.096   1_556 S
H2456  C690    1.107   1_556 S
H2457  N2484   1.031   .     S
O2496  C2522   1.387   .     S
C2497  O2586   1.306   .     A
C2497  O2581   1.320   .     A
C2497  C2500   1.482   .     S
C2498  C2500   1.401   .     A
C2498  N2578   1.420   .     S
C2499  C2525   1.405   .     A
C2499  C2508   1.468   .     S
C2499  C2526   1.410   .     A
C2500  C2524   1.418   .     A
C2501  N2579   1.434   .     S
C2501  N2574   1.384   .     A
C2502  N2580   1.423   .     S
C2502  N2573   1.375   .     A
C2502  C776    1.448   1_556 S
C2503  O2583   1.401   .     S
C2503  N2573   1.397   .     A
C2503  C773    1.453   1_556 S
C2504  N2574   1.391   .     A
C2504  O2584   1.396   .     S
C2505  C2506   1.514   .     S
C2505  O2592   1.406   .     S
C2505  H2540   1.103   .     S
C2505  H2337   1.104   1_655 S
C2506  H2562   1.110   .     S
C2506  H2551   1.106   .     S
C2506  H2568   1.109   .     S
C2507  O2582   1.420   .     S
C2507  H2569   1.107   .     S
C2507  H2570   1.104   .     S
C2507  C2509   1.524   .     S
C2508  O2587   1.314   .     A
C2508  O2585   1.307   .     A
C2509  H2571   1.104   .     S
C2509  H2572   1.110   .     S
C2509  H2530   1.109   .     S
C2510  N2575   1.444   .     S
C2510  H2533   1.097   .     S
C2511  H2536   1.114   .     S
C2511  H2537   1.103   .     S
C2511  N2576   1.440   .     S
C2511  H2538   1.110   .     S
C2512  H2543   1.105   .     S
C2512  H2542   1.104   .     S
C2512  H2541   1.107   .     S
C2512  N2577   1.449   .     S
C2513  H2547   1.104   .     S
C2513  N2578   1.441   .     S
C2513  H2546   1.107   .     S
C2513  H2545   1.111   .     S
C2514  H2549   1.111   .     S
C2514  N2579   1.437   .     S
C2515  H2554   1.099   .     S
C2515  N2580   1.435   .     S
C2515  H2556   1.105   .     S
C2515  H827    1.103   1_556 S
C2516  O2583   1.419   .     S
C2516  H2557   1.091   .     S
C2516  H2558   1.114   .     S
C2516  C2517   1.530   .     S
C2517  H2560   1.112   .     S
C2517  H2561   1.109   .     S
C2517  H2559   1.102   .     S
C2518  O2584   1.420   .     S
C2518  H2564   1.093   .     S
C2518  C2520   1.525   .     S
C2518  H2563   1.089   .     S
C2519  C2522   1.463   .     S
C2519  O2590   1.316   .     A
C2519  O2588   1.298   .     A
C2520  H2566   1.109   .     S
C2520  H2565   1.109   .     S
C2520  H2567   1.109   .     S
C2521  O2589   1.297   .     A
C2521  O2591   1.320   .     A
C2521  C2523   1.466   .     S
C2523  C2330   1.366   1_655 S
C2523  O2390   1.394   1_655 S
C2524  N2575   1.432   .     S
C2525  N2576   1.416   .     S
C2525  C1922   1.400   1_565 S
C2526  N2577   1.431   .     S
C2526  C1948   1.411   1_565 S
Cu2527 O2581   1.978   .     S
Cu2527 N2573   2.051   .     S
Cu2527 O2587   1.991   .     S
Cu2527 Cu2528  2.729   .     S
Cu2527 O2591   1.986   .     S
Cu2527 O2588   1.981   .     S
Cu2528 O2590   1.986   .     S
Cu2528 O2585   1.978   .     S
Cu2528 O2589   1.981   .     S
Cu2528 O2586   1.991   .     S
Cu2528 N2574   2.051   .     S
H2531  N2575   1.030   .     S
H2532  C1934   1.109   1_565 S
H2534  C1934   1.103   1_565 S
H2535  N2576   1.029   .     S
H2539  N2577   1.031   .     S
H2544  N2578   1.026   .     S
H2548  N2579   1.011   .     S
H2550  C786    1.096   1_556 S
H2552  C786    1.107   1_556 S
H2553  N2580   1.031   .     S
O2592  C2330   1.387   1_655 S
