data_str_m2_o1_o10_pcu_sym.76
_audit_creation_date              2020-01-03
_audit_creation_method            'Materials Studio'
_symmetry_space_group_name_H-M    'P1'
_symmetry_Int_Tables_number       1
_symmetry_cell_setting            triclinic
loop_
_symmetry_equiv_pos_as_xyz
  x,y,z
_cell_length_a                    26.1622
_cell_length_b                    32.3696
_cell_length_c                    28.7042
_cell_angle_alpha                 90.5513
_cell_angle_beta                  98.4086
_cell_angle_gamma                 90.6545
loop_
_atom_site_label
_atom_site_type_symbol
_atom_site_fract_x
_atom_site_fract_y
_atom_site_fract_z
_atom_site_U_iso_or_equiv
_atom_site_adp_type
_atom_site_occupancy
C1     C     0.16647   0.08752   0.16646   0.00000  Uiso   1.00
C2     C     0.13140   0.02150   0.19043   0.00000  Uiso   1.00
C3     C     0.16708   0.29048   0.16715   0.00000  Uiso   1.00
C4     C     0.16633   0.04285   0.16623   0.00000  Uiso   1.00
C5     C     0.13326   0.14156   0.01941   0.00000  Uiso   1.00
C6     C     0.19990   0.19193   0.31390   0.00000  Uiso   1.00
C7     C     0.13350   0.14177   0.30341   0.00000  Uiso   1.00
C8     C     0.19974   0.19165   0.02991   0.00000  Uiso   1.00
C9     C     0.09575   0.11382   0.03696   0.00000  Uiso   1.00
C10    C     0.23622   0.22064   0.29618   0.00000  Uiso   1.00
C11    C     0.16689   0.24582   0.16688   0.00000  Uiso   1.00
C12    C     0.06791   0.16664   0.15450   0.00000  Uiso   1.00
C13    C     0.26542   0.16670   0.17883   0.00000  Uiso   1.00
C14    C     0.01248   0.16668   0.14792   0.00000  Uiso   1.00
C15    C     0.32085   0.16666   0.18542   0.00000  Uiso   1.00
C16    C     0.20163   0.02175   0.14248   0.00000  Uiso   1.00
C17    C     0.13181   0.31158   0.19093   0.00000  Uiso   1.00
C18    C     0.20203   0.31183   0.14297   0.00000  Uiso   1.00
Cu19   Cu    0.16667   0.16667   0.21355   0.00000  Uiso   1.00
Cu20   Cu    0.16667   0.16666   0.11978   0.00000  Uiso   1.00
H21    H     0.32550   0.16677   0.11206   0.00000  Uiso   1.00
H22    H     0.27596   0.29817   0.13516   0.00000  Uiso   1.00
H23    H     0.10022   0.03679   0.24897   0.00000  Uiso   1.00
H24    H     0.05748   0.03516   0.19825   0.00000  Uiso   1.00
H25    H     0.02232   0.10477   0.04860   0.00000  Uiso   1.00
H26    H     0.24972   0.27827   0.27446   0.00000  Uiso   1.00
H27    H     0.00783   0.16659   0.22128   0.00000  Uiso   1.00
H28    H     0.10703   0.12189   0.28055   0.00000  Uiso   1.00
H29    H     0.22603   0.21168   0.05275   0.00000  Uiso   1.00
H30    H     0.23250   0.03606   0.08364   0.00000  Uiso   1.00
H31    H     0.27528   0.03723   0.13433   0.00000  Uiso   1.00
H32    H     0.10101   0.29727   0.24981   0.00000  Uiso   1.00
H33    H     0.05817   0.29611   0.19915   0.00000  Uiso   1.00
H34    H     0.23323   0.29653   0.08445   0.00000  Uiso   1.00
N35    N     0.16668   0.16668   0.28403   0.00000  Uiso   1.00
N36    N     0.16665   0.16666   0.04931   0.00000  Uiso   1.00
N37    N     0.23775   0.04462   0.11923   0.00000  Uiso   1.00
N38    N     0.09572   0.28872   0.21421   0.00000  Uiso   1.00
N39    N     0.23858   0.28926   0.12021   0.00000  Uiso   1.00
N40    N     0.09486   0.04407   0.21320   0.00000  Uiso   1.00
O41    O     0.16666   0.10655   0.20625   0.00000  Uiso   1.00
O42    O     0.04497   0.12679   0.03678   0.00000  Uiso   1.00
O43    O     0.28062   0.21002   0.29456   0.00000  Uiso   1.00
O44    O     0.22116   0.26113   0.28543   0.00000  Uiso   1.00
O45    O     0.16667   0.22678   0.12709   0.00000  Uiso   1.00
O46    O     0.16666   0.10654   0.12706   0.00000  Uiso   1.00
O47    O     0.16667   0.22679   0.20628   0.00000  Uiso   1.00
O48    O     0.09161   0.16667   0.19712   0.00000  Uiso   1.00
O49    O     0.24172   0.16666   0.13621   0.00000  Uiso   1.00
O50    O     0.09161   0.16666   0.11793   0.00000  Uiso   1.00
O51    O     0.24172   0.16667   0.21540   0.00000  Uiso   1.00
O52    O     0.10795   0.07854   0.04805   0.00000  Uiso   1.00
C53    C     0.49981   0.08752   0.16646   0.00000  Uiso   1.00
C54    C     0.46474   0.02150   0.19043   0.00000  Uiso   1.00
C55    C     0.50041   0.29048   0.16715   0.00000  Uiso   1.00
C56    C     0.49967   0.04285   0.16623   0.00000  Uiso   1.00
C57    C     0.46659   0.14156   0.01941   0.00000  Uiso   1.00
C58    C     0.53323   0.19193   0.31390   0.00000  Uiso   1.00
C59    C     0.46684   0.14177   0.30341   0.00000  Uiso   1.00
C60    C     0.53307   0.19165   0.02991   0.00000  Uiso   1.00
C61    C     0.42909   0.11382   0.03696   0.00000  Uiso   1.00
C62    C     0.56956   0.22064   0.29618   0.00000  Uiso   1.00
C63    C     0.50023   0.24582   0.16688   0.00000  Uiso   1.00
C64    C     0.40125   0.16664   0.15450   0.00000  Uiso   1.00
C65    C     0.59875   0.16670   0.17883   0.00000  Uiso   1.00
C66    C     0.34582   0.16668   0.14792   0.00000  Uiso   1.00
C67    C     0.65418   0.16666   0.18542   0.00000  Uiso   1.00
C68    C     0.53496   0.02175   0.14248   0.00000  Uiso   1.00
C69    C     0.46515   0.31158   0.19093   0.00000  Uiso   1.00
C70    C     0.53537   0.31183   0.14297   0.00000  Uiso   1.00
Cu71   Cu    0.50000   0.16667   0.21355   0.00000  Uiso   1.00
Cu72   Cu    0.50000   0.16666   0.11978   0.00000  Uiso   1.00
H73    H     0.65883   0.16677   0.11206   0.00000  Uiso   1.00
H74    H     0.60930   0.29817   0.13516   0.00000  Uiso   1.00
H75    H     0.43355   0.03679   0.24897   0.00000  Uiso   1.00
H76    H     0.39081   0.03516   0.19825   0.00000  Uiso   1.00
H77    H     0.35566   0.10477   0.04860   0.00000  Uiso   1.00
H78    H     0.58305   0.27827   0.27446   0.00000  Uiso   1.00
H79    H     0.34116   0.16659   0.22128   0.00000  Uiso   1.00
H80    H     0.44036   0.12189   0.28055   0.00000  Uiso   1.00
H81    H     0.55937   0.21168   0.05275   0.00000  Uiso   1.00
H82    H     0.56584   0.03606   0.08364   0.00000  Uiso   1.00
H83    H     0.60862   0.03723   0.13433   0.00000  Uiso   1.00
H84    H     0.43435   0.29727   0.24981   0.00000  Uiso   1.00
H85    H     0.39151   0.29611   0.19915   0.00000  Uiso   1.00
H86    H     0.56656   0.29653   0.08445   0.00000  Uiso   1.00
N87    N     0.50001   0.16668   0.28403   0.00000  Uiso   1.00
N88    N     0.49999   0.16666   0.04931   0.00000  Uiso   1.00
N89    N     0.57108   0.04462   0.11923   0.00000  Uiso   1.00
N90    N     0.42905   0.28872   0.21421   0.00000  Uiso   1.00
N91    N     0.57192   0.28926   0.12021   0.00000  Uiso   1.00
N92    N     0.42819   0.04407   0.21320   0.00000  Uiso   1.00
O93    O     0.50000   0.10655   0.20625   0.00000  Uiso   1.00
O94    O     0.37830   0.12679   0.03678   0.00000  Uiso   1.00
O95    O     0.61395   0.21002   0.29456   0.00000  Uiso   1.00
O96    O     0.55449   0.26113   0.28543   0.00000  Uiso   1.00
O97    O     0.50000   0.22678   0.12709   0.00000  Uiso   1.00
O98    O     0.50000   0.10654   0.12706   0.00000  Uiso   1.00
O99    O     0.50000   0.22679   0.20628   0.00000  Uiso   1.00
O100   O     0.42495   0.16667   0.19712   0.00000  Uiso   1.00
O101   O     0.57505   0.16666   0.13621   0.00000  Uiso   1.00
O102   O     0.42494   0.16666   0.11793   0.00000  Uiso   1.00
O103   O     0.57506   0.16667   0.21540   0.00000  Uiso   1.00
O104   O     0.44129   0.07854   0.04805   0.00000  Uiso   1.00
C105   C     0.83314   0.08752   0.16646   0.00000  Uiso   1.00
C106   C     0.79807   0.02150   0.19043   0.00000  Uiso   1.00
C107   C     0.83374   0.29048   0.16715   0.00000  Uiso   1.00
C108   C     0.83300   0.04285   0.16623   0.00000  Uiso   1.00
C109   C     0.79992   0.14156   0.01941   0.00000  Uiso   1.00
C110   C     0.86656   0.19193   0.31390   0.00000  Uiso   1.00
C111   C     0.80017   0.14177   0.30341   0.00000  Uiso   1.00
C112   C     0.86640   0.19165   0.02991   0.00000  Uiso   1.00
C113   C     0.76242   0.11382   0.03696   0.00000  Uiso   1.00
C114   C     0.90289   0.22064   0.29618   0.00000  Uiso   1.00
C115   C     0.83356   0.24582   0.16688   0.00000  Uiso   1.00
C116   C     0.73458   0.16664   0.15450   0.00000  Uiso   1.00
C117   C     0.93208   0.16670   0.17883   0.00000  Uiso   1.00
C118   C     0.67915   0.16668   0.14792   0.00000  Uiso   1.00
C119   C     0.98752   0.16666   0.18542   0.00000  Uiso   1.00
C120   C     0.86829   0.02175   0.14248   0.00000  Uiso   1.00
C121   C     0.79848   0.31158   0.19093   0.00000  Uiso   1.00
C122   C     0.86870   0.31183   0.14297   0.00000  Uiso   1.00
Cu123  Cu    0.83333   0.16667   0.21355   0.00000  Uiso   1.00
Cu124  Cu    0.83333   0.16666   0.11978   0.00000  Uiso   1.00
H125   H     0.99216   0.16677   0.11206   0.00000  Uiso   1.00
H126   H     0.94263   0.29817   0.13516   0.00000  Uiso   1.00
H127   H     0.76688   0.03679   0.24897   0.00000  Uiso   1.00
H128   H     0.72414   0.03516   0.19825   0.00000  Uiso   1.00
H129   H     0.68899   0.10477   0.04860   0.00000  Uiso   1.00
H130   H     0.91639   0.27827   0.27446   0.00000  Uiso   1.00
H131   H     0.67449   0.16659   0.22128   0.00000  Uiso   1.00
H132   H     0.77370   0.12189   0.28055   0.00000  Uiso   1.00
H133   H     0.89270   0.21168   0.05275   0.00000  Uiso   1.00
H134   H     0.89917   0.03606   0.08364   0.00000  Uiso   1.00
H135   H     0.94195   0.03723   0.13433   0.00000  Uiso   1.00
H136   H     0.76768   0.29727   0.24981   0.00000  Uiso   1.00
H137   H     0.72484   0.29611   0.19915   0.00000  Uiso   1.00
H138   H     0.89989   0.29653   0.08445   0.00000  Uiso   1.00
N139   N     0.83335   0.16668   0.28403   0.00000  Uiso   1.00
N140   N     0.83332   0.16666   0.04931   0.00000  Uiso   1.00
N141   N     0.90442   0.04462   0.11923   0.00000  Uiso   1.00
N142   N     0.76239   0.28872   0.21421   0.00000  Uiso   1.00
N143   N     0.90525   0.28926   0.12021   0.00000  Uiso   1.00
N144   N     0.76153   0.04407   0.21320   0.00000  Uiso   1.00
O145   O     0.83333   0.10655   0.20625   0.00000  Uiso   1.00
O146   O     0.71163   0.12679   0.03678   0.00000  Uiso   1.00
O147   O     0.94728   0.21002   0.29456   0.00000  Uiso   1.00
O148   O     0.88783   0.26113   0.28543   0.00000  Uiso   1.00
O149   O     0.83334   0.22678   0.12709   0.00000  Uiso   1.00
O150   O     0.83333   0.10654   0.12706   0.00000  Uiso   1.00
O151   O     0.83334   0.22679   0.20628   0.00000  Uiso   1.00
O152   O     0.75828   0.16667   0.19712   0.00000  Uiso   1.00
O153   O     0.90839   0.16666   0.13621   0.00000  Uiso   1.00
O154   O     0.75828   0.16666   0.11793   0.00000  Uiso   1.00
O155   O     0.90839   0.16667   0.21540   0.00000  Uiso   1.00
O156   O     0.77462   0.07854   0.04805   0.00000  Uiso   1.00
C157   C     0.16647   0.42085   0.16646   0.00000  Uiso   1.00
C158   C     0.13140   0.35483   0.19043   0.00000  Uiso   1.00
C159   C     0.16708   0.62381   0.16715   0.00000  Uiso   1.00
C160   C     0.16633   0.37619   0.16623   0.00000  Uiso   1.00
C161   C     0.13326   0.47489   0.01941   0.00000  Uiso   1.00
C162   C     0.19990   0.52526   0.31390   0.00000  Uiso   1.00
C163   C     0.13350   0.47510   0.30341   0.00000  Uiso   1.00
C164   C     0.19974   0.52498   0.02991   0.00000  Uiso   1.00
C165   C     0.09575   0.44716   0.03696   0.00000  Uiso   1.00
C166   C     0.23622   0.55398   0.29618   0.00000  Uiso   1.00
C167   C     0.16689   0.57915   0.16688   0.00000  Uiso   1.00
C168   C     0.06791   0.49997   0.15450   0.00000  Uiso   1.00
C169   C     0.26542   0.50003   0.17883   0.00000  Uiso   1.00
C170   C     0.01248   0.50002   0.14792   0.00000  Uiso   1.00
C171   C     0.32085   0.49999   0.18542   0.00000  Uiso   1.00
C172   C     0.20163   0.35509   0.14248   0.00000  Uiso   1.00
C173   C     0.13181   0.64492   0.19093   0.00000  Uiso   1.00
C174   C     0.20203   0.64517   0.14297   0.00000  Uiso   1.00
Cu175  Cu    0.16667   0.50001   0.21355   0.00000  Uiso   1.00
Cu176  Cu    0.16667   0.49999   0.11978   0.00000  Uiso   1.00
H177   H     0.32550   0.50011   0.11206   0.00000  Uiso   1.00
H178   H     0.27596   0.63150   0.13516   0.00000  Uiso   1.00
H179   H     0.10022   0.37013   0.24897   0.00000  Uiso   1.00
H180   H     0.05748   0.36850   0.19825   0.00000  Uiso   1.00
H181   H     0.02232   0.43810   0.04860   0.00000  Uiso   1.00
H182   H     0.24972   0.61161   0.27446   0.00000  Uiso   1.00
H183   H     0.00783   0.49992   0.22128   0.00000  Uiso   1.00
H184   H     0.10703   0.45522   0.28055   0.00000  Uiso   1.00
H185   H     0.22603   0.54501   0.05275   0.00000  Uiso   1.00
H186   H     0.23250   0.36940   0.08364   0.00000  Uiso   1.00
H187   H     0.27528   0.37056   0.13433   0.00000  Uiso   1.00
H188   H     0.10101   0.63061   0.24981   0.00000  Uiso   1.00
H189   H     0.05817   0.62945   0.19915   0.00000  Uiso   1.00
H190   H     0.23323   0.62986   0.08445   0.00000  Uiso   1.00
N191   N     0.16668   0.50001   0.28403   0.00000  Uiso   1.00
N192   N     0.16665   0.49999   0.04931   0.00000  Uiso   1.00
N193   N     0.23775   0.37795   0.11923   0.00000  Uiso   1.00
N194   N     0.09572   0.62205   0.21421   0.00000  Uiso   1.00
N195   N     0.23858   0.62259   0.12021   0.00000  Uiso   1.00
N196   N     0.09486   0.37740   0.21320   0.00000  Uiso   1.00
O197   O     0.16666   0.43989   0.20625   0.00000  Uiso   1.00
O198   O     0.04497   0.46013   0.03678   0.00000  Uiso   1.00
O199   O     0.28062   0.54336   0.29456   0.00000  Uiso   1.00
O200   O     0.22116   0.59446   0.28543   0.00000  Uiso   1.00
O201   O     0.16667   0.56011   0.12709   0.00000  Uiso   1.00
O202   O     0.16666   0.43988   0.12706   0.00000  Uiso   1.00
O203   O     0.16667   0.56012   0.20628   0.00000  Uiso   1.00
O204   O     0.09161   0.50000   0.19712   0.00000  Uiso   1.00
O205   O     0.24172   0.50000   0.13621   0.00000  Uiso   1.00
O206   O     0.09161   0.49999   0.11793   0.00000  Uiso   1.00
O207   O     0.24172   0.50001   0.21540   0.00000  Uiso   1.00
O208   O     0.10795   0.41187   0.04805   0.00000  Uiso   1.00
C209   C     0.49981   0.42085   0.16646   0.00000  Uiso   1.00
C210   C     0.46474   0.35483   0.19043   0.00000  Uiso   1.00
C211   C     0.50041   0.62381   0.16715   0.00000  Uiso   1.00
C212   C     0.49967   0.37619   0.16623   0.00000  Uiso   1.00
C213   C     0.46659   0.47489   0.01941   0.00000  Uiso   1.00
C214   C     0.53323   0.52526   0.31390   0.00000  Uiso   1.00
C215   C     0.46684   0.47510   0.30341   0.00000  Uiso   1.00
C216   C     0.53307   0.52498   0.02991   0.00000  Uiso   1.00
C217   C     0.42909   0.44716   0.03696   0.00000  Uiso   1.00
C218   C     0.56956   0.55398   0.29618   0.00000  Uiso   1.00
C219   C     0.50023   0.57915   0.16688   0.00000  Uiso   1.00
C220   C     0.40125   0.49997   0.15450   0.00000  Uiso   1.00
C221   C     0.59875   0.50003   0.17883   0.00000  Uiso   1.00
C222   C     0.34582   0.50002   0.14792   0.00000  Uiso   1.00
C223   C     0.65418   0.49999   0.18542   0.00000  Uiso   1.00
C224   C     0.53496   0.35509   0.14248   0.00000  Uiso   1.00
C225   C     0.46515   0.64492   0.19093   0.00000  Uiso   1.00
C226   C     0.53537   0.64517   0.14297   0.00000  Uiso   1.00
Cu227  Cu    0.50000   0.50001   0.21355   0.00000  Uiso   1.00
Cu228  Cu    0.50000   0.49999   0.11978   0.00000  Uiso   1.00
H229   H     0.65883   0.50011   0.11206   0.00000  Uiso   1.00
H230   H     0.60930   0.63150   0.13516   0.00000  Uiso   1.00
H231   H     0.43355   0.37013   0.24897   0.00000  Uiso   1.00
H232   H     0.39081   0.36850   0.19825   0.00000  Uiso   1.00
H233   H     0.35566   0.43810   0.04860   0.00000  Uiso   1.00
H234   H     0.58305   0.61161   0.27446   0.00000  Uiso   1.00
H235   H     0.34116   0.49992   0.22128   0.00000  Uiso   1.00
H236   H     0.44036   0.45522   0.28055   0.00000  Uiso   1.00
H237   H     0.55937   0.54501   0.05275   0.00000  Uiso   1.00
H238   H     0.56584   0.36940   0.08364   0.00000  Uiso   1.00
H239   H     0.60862   0.37056   0.13433   0.00000  Uiso   1.00
H240   H     0.43435   0.63061   0.24981   0.00000  Uiso   1.00
H241   H     0.39151   0.62945   0.19915   0.00000  Uiso   1.00
H242   H     0.56656   0.62986   0.08445   0.00000  Uiso   1.00
N243   N     0.50001   0.50001   0.28403   0.00000  Uiso   1.00
N244   N     0.49999   0.49999   0.04931   0.00000  Uiso   1.00
N245   N     0.57108   0.37795   0.11923   0.00000  Uiso   1.00
N246   N     0.42905   0.62205   0.21421   0.00000  Uiso   1.00
N247   N     0.57192   0.62259   0.12021   0.00000  Uiso   1.00
N248   N     0.42819   0.37740   0.21320   0.00000  Uiso   1.00
O249   O     0.50000   0.43989   0.20625   0.00000  Uiso   1.00
O250   O     0.37830   0.46013   0.03678   0.00000  Uiso   1.00
O251   O     0.61395   0.54336   0.29456   0.00000  Uiso   1.00
O252   O     0.55449   0.59446   0.28543   0.00000  Uiso   1.00
O253   O     0.50000   0.56011   0.12709   0.00000  Uiso   1.00
O254   O     0.50000   0.43988   0.12706   0.00000  Uiso   1.00
O255   O     0.50000   0.56012   0.20628   0.00000  Uiso   1.00
O256   O     0.42495   0.50000   0.19712   0.00000  Uiso   1.00
O257   O     0.57505   0.50000   0.13621   0.00000  Uiso   1.00
O258   O     0.42494   0.49999   0.11793   0.00000  Uiso   1.00
O259   O     0.57506   0.50001   0.21540   0.00000  Uiso   1.00
O260   O     0.44129   0.41187   0.04805   0.00000  Uiso   1.00
C261   C     0.83314   0.42085   0.16646   0.00000  Uiso   1.00
C262   C     0.79807   0.35483   0.19043   0.00000  Uiso   1.00
C263   C     0.83374   0.62381   0.16715   0.00000  Uiso   1.00
C264   C     0.83300   0.37619   0.16623   0.00000  Uiso   1.00
C265   C     0.79992   0.47489   0.01941   0.00000  Uiso   1.00
C266   C     0.86656   0.52526   0.31390   0.00000  Uiso   1.00
C267   C     0.80017   0.47510   0.30341   0.00000  Uiso   1.00
C268   C     0.86640   0.52498   0.02991   0.00000  Uiso   1.00
C269   C     0.76242   0.44716   0.03696   0.00000  Uiso   1.00
C270   C     0.90289   0.55398   0.29618   0.00000  Uiso   1.00
C271   C     0.83356   0.57915   0.16688   0.00000  Uiso   1.00
C272   C     0.73458   0.49997   0.15450   0.00000  Uiso   1.00
C273   C     0.93208   0.50003   0.17883   0.00000  Uiso   1.00
C274   C     0.67915   0.50002   0.14792   0.00000  Uiso   1.00
C275   C     0.98752   0.49999   0.18542   0.00000  Uiso   1.00
C276   C     0.86829   0.35509   0.14248   0.00000  Uiso   1.00
C277   C     0.79848   0.64492   0.19093   0.00000  Uiso   1.00
C278   C     0.86870   0.64517   0.14297   0.00000  Uiso   1.00
Cu279  Cu    0.83333   0.50001   0.21355   0.00000  Uiso   1.00
Cu280  Cu    0.83333   0.49999   0.11978   0.00000  Uiso   1.00
H281   H     0.99216   0.50011   0.11206   0.00000  Uiso   1.00
H282   H     0.94263   0.63150   0.13516   0.00000  Uiso   1.00
H283   H     0.76688   0.37013   0.24897   0.00000  Uiso   1.00
H284   H     0.72414   0.36850   0.19825   0.00000  Uiso   1.00
H285   H     0.68899   0.43810   0.04860   0.00000  Uiso   1.00
H286   H     0.91639   0.61161   0.27446   0.00000  Uiso   1.00
H287   H     0.67449   0.49992   0.22128   0.00000  Uiso   1.00
H288   H     0.77370   0.45522   0.28055   0.00000  Uiso   1.00
H289   H     0.89270   0.54501   0.05275   0.00000  Uiso   1.00
H290   H     0.89917   0.36940   0.08364   0.00000  Uiso   1.00
H291   H     0.94195   0.37056   0.13433   0.00000  Uiso   1.00
H292   H     0.76768   0.63061   0.24981   0.00000  Uiso   1.00
H293   H     0.72484   0.62945   0.19915   0.00000  Uiso   1.00
H294   H     0.89989   0.62986   0.08445   0.00000  Uiso   1.00
N295   N     0.83335   0.50001   0.28403   0.00000  Uiso   1.00
N296   N     0.83332   0.49999   0.04931   0.00000  Uiso   1.00
N297   N     0.90442   0.37795   0.11923   0.00000  Uiso   1.00
N298   N     0.76239   0.62205   0.21421   0.00000  Uiso   1.00
N299   N     0.90525   0.62259   0.12021   0.00000  Uiso   1.00
N300   N     0.76153   0.37740   0.21320   0.00000  Uiso   1.00
O301   O     0.83333   0.43989   0.20625   0.00000  Uiso   1.00
O302   O     0.71163   0.46013   0.03678   0.00000  Uiso   1.00
O303   O     0.94728   0.54336   0.29456   0.00000  Uiso   1.00
O304   O     0.88783   0.59446   0.28543   0.00000  Uiso   1.00
O305   O     0.83334   0.56011   0.12709   0.00000  Uiso   1.00
O306   O     0.83333   0.43988   0.12706   0.00000  Uiso   1.00
O307   O     0.83334   0.56012   0.20628   0.00000  Uiso   1.00
O308   O     0.75828   0.50000   0.19712   0.00000  Uiso   1.00
O309   O     0.90839   0.50000   0.13621   0.00000  Uiso   1.00
O310   O     0.75828   0.49999   0.11793   0.00000  Uiso   1.00
O311   O     0.90839   0.50001   0.21540   0.00000  Uiso   1.00
O312   O     0.77462   0.41187   0.04805   0.00000  Uiso   1.00
C313   C     0.16647   0.75418   0.16646   0.00000  Uiso   1.00
C314   C     0.13140   0.68817   0.19043   0.00000  Uiso   1.00
C315   C     0.16708   0.95715   0.16715   0.00000  Uiso   1.00
C316   C     0.16633   0.70952   0.16623   0.00000  Uiso   1.00
C317   C     0.13326   0.80822   0.01941   0.00000  Uiso   1.00
C318   C     0.19990   0.85860   0.31390   0.00000  Uiso   1.00
C319   C     0.13350   0.80843   0.30341   0.00000  Uiso   1.00
C320   C     0.19974   0.85831   0.02991   0.00000  Uiso   1.00
C321   C     0.09575   0.78049   0.03696   0.00000  Uiso   1.00
C322   C     0.23622   0.88731   0.29618   0.00000  Uiso   1.00
C323   C     0.16689   0.91248   0.16688   0.00000  Uiso   1.00
C324   C     0.06791   0.83330   0.15450   0.00000  Uiso   1.00
C325   C     0.26542   0.83336   0.17883   0.00000  Uiso   1.00
C326   C     0.01248   0.83335   0.14792   0.00000  Uiso   1.00
C327   C     0.32085   0.83333   0.18542   0.00000  Uiso   1.00
C328   C     0.20163   0.68842   0.14248   0.00000  Uiso   1.00
C329   C     0.13181   0.97825   0.19093   0.00000  Uiso   1.00
C330   C     0.20203   0.97850   0.14297   0.00000  Uiso   1.00
Cu331  Cu    0.16667   0.83334   0.21355   0.00000  Uiso   1.00
Cu332  Cu    0.16667   0.83333   0.11978   0.00000  Uiso   1.00
H333   H     0.32550   0.83344   0.11206   0.00000  Uiso   1.00
H334   H     0.27596   0.96484   0.13516   0.00000  Uiso   1.00
H335   H     0.10022   0.70346   0.24897   0.00000  Uiso   1.00
H336   H     0.05748   0.70183   0.19825   0.00000  Uiso   1.00
H337   H     0.02232   0.77143   0.04860   0.00000  Uiso   1.00
H338   H     0.24972   0.94494   0.27446   0.00000  Uiso   1.00
H339   H     0.00783   0.83325   0.22128   0.00000  Uiso   1.00
H340   H     0.10703   0.78856   0.28055   0.00000  Uiso   1.00
H341   H     0.22603   0.87834   0.05275   0.00000  Uiso   1.00
H342   H     0.23250   0.70273   0.08364   0.00000  Uiso   1.00
H343   H     0.27528   0.70389   0.13433   0.00000  Uiso   1.00
H344   H     0.10101   0.96394   0.24981   0.00000  Uiso   1.00
H345   H     0.05817   0.96278   0.19915   0.00000  Uiso   1.00
H346   H     0.23323   0.96319   0.08445   0.00000  Uiso   1.00
N347   N     0.16668   0.83334   0.28403   0.00000  Uiso   1.00
N348   N     0.16665   0.83332   0.04931   0.00000  Uiso   1.00
N349   N     0.23775   0.71128   0.11923   0.00000  Uiso   1.00
N350   N     0.09572   0.95539   0.21421   0.00000  Uiso   1.00
N351   N     0.23858   0.95593   0.12021   0.00000  Uiso   1.00
N352   N     0.09486   0.71073   0.21320   0.00000  Uiso   1.00
O353   O     0.16666   0.77322   0.20625   0.00000  Uiso   1.00
O354   O     0.04497   0.79346   0.03678   0.00000  Uiso   1.00
O355   O     0.28062   0.87669   0.29456   0.00000  Uiso   1.00
O356   O     0.22116   0.92780   0.28543   0.00000  Uiso   1.00
O357   O     0.16667   0.89345   0.12709   0.00000  Uiso   1.00
O358   O     0.16666   0.77321   0.12706   0.00000  Uiso   1.00
O359   O     0.16667   0.89346   0.20628   0.00000  Uiso   1.00
O360   O     0.09161   0.83334   0.19712   0.00000  Uiso   1.00
O361   O     0.24172   0.83333   0.13621   0.00000  Uiso   1.00
O362   O     0.09161   0.83333   0.11793   0.00000  Uiso   1.00
O363   O     0.24172   0.83334   0.21540   0.00000  Uiso   1.00
O364   O     0.10795   0.74520   0.04805   0.00000  Uiso   1.00
C365   C     0.49981   0.75418   0.16646   0.00000  Uiso   1.00
C366   C     0.46474   0.68817   0.19043   0.00000  Uiso   1.00
C367   C     0.50041   0.95715   0.16715   0.00000  Uiso   1.00
C368   C     0.49967   0.70952   0.16623   0.00000  Uiso   1.00
C369   C     0.46659   0.80822   0.01941   0.00000  Uiso   1.00
C370   C     0.53323   0.85860   0.31390   0.00000  Uiso   1.00
C371   C     0.46684   0.80843   0.30341   0.00000  Uiso   1.00
C372   C     0.53307   0.85831   0.02991   0.00000  Uiso   1.00
C373   C     0.42909   0.78049   0.03696   0.00000  Uiso   1.00
C374   C     0.56956   0.88731   0.29618   0.00000  Uiso   1.00
C375   C     0.50023   0.91248   0.16688   0.00000  Uiso   1.00
C376   C     0.40125   0.83330   0.15450   0.00000  Uiso   1.00
C377   C     0.59875   0.83336   0.17883   0.00000  Uiso   1.00
C378   C     0.34582   0.83335   0.14792   0.00000  Uiso   1.00
C379   C     0.65418   0.83333   0.18542   0.00000  Uiso   1.00
C380   C     0.53496   0.68842   0.14248   0.00000  Uiso   1.00
C381   C     0.46515   0.97825   0.19093   0.00000  Uiso   1.00
C382   C     0.53537   0.97850   0.14297   0.00000  Uiso   1.00
Cu383  Cu    0.50000   0.83334   0.21355   0.00000  Uiso   1.00
Cu384  Cu    0.50000   0.83333   0.11978   0.00000  Uiso   1.00
H385   H     0.65883   0.83344   0.11206   0.00000  Uiso   1.00
H386   H     0.60930   0.96484   0.13516   0.00000  Uiso   1.00
H387   H     0.43355   0.70346   0.24897   0.00000  Uiso   1.00
H388   H     0.39081   0.70183   0.19825   0.00000  Uiso   1.00
H389   H     0.35566   0.77143   0.04860   0.00000  Uiso   1.00
H390   H     0.58305   0.94494   0.27446   0.00000  Uiso   1.00
H391   H     0.34116   0.83325   0.22128   0.00000  Uiso   1.00
H392   H     0.44036   0.78856   0.28055   0.00000  Uiso   1.00
H393   H     0.55937   0.87834   0.05275   0.00000  Uiso   1.00
H394   H     0.56584   0.70273   0.08364   0.00000  Uiso   1.00
H395   H     0.60862   0.70389   0.13433   0.00000  Uiso   1.00
H396   H     0.43435   0.96394   0.24981   0.00000  Uiso   1.00
H397   H     0.39151   0.96278   0.19915   0.00000  Uiso   1.00
H398   H     0.56656   0.96319   0.08445   0.00000  Uiso   1.00
N399   N     0.50001   0.83334   0.28403   0.00000  Uiso   1.00
N400   N     0.49999   0.83332   0.04931   0.00000  Uiso   1.00
N401   N     0.57108   0.71128   0.11923   0.00000  Uiso   1.00
N402   N     0.42905   0.95539   0.21421   0.00000  Uiso   1.00
N403   N     0.57192   0.95593   0.12021   0.00000  Uiso   1.00
N404   N     0.42819   0.71073   0.21320   0.00000  Uiso   1.00
O405   O     0.50000   0.77322   0.20625   0.00000  Uiso   1.00
O406   O     0.37830   0.79346   0.03678   0.00000  Uiso   1.00
O407   O     0.61395   0.87669   0.29456   0.00000  Uiso   1.00
O408   O     0.55449   0.92780   0.28543   0.00000  Uiso   1.00
O409   O     0.50000   0.89345   0.12709   0.00000  Uiso   1.00
O410   O     0.50000   0.77321   0.12706   0.00000  Uiso   1.00
O411   O     0.50000   0.89346   0.20628   0.00000  Uiso   1.00
O412   O     0.42495   0.83334   0.19712   0.00000  Uiso   1.00
O413   O     0.57505   0.83333   0.13621   0.00000  Uiso   1.00
O414   O     0.42494   0.83333   0.11793   0.00000  Uiso   1.00
O415   O     0.57506   0.83334   0.21540   0.00000  Uiso   1.00
O416   O     0.44129   0.74520   0.04805   0.00000  Uiso   1.00
C417   C     0.83314   0.75418   0.16646   0.00000  Uiso   1.00
C418   C     0.79807   0.68817   0.19043   0.00000  Uiso   1.00
C419   C     0.83374   0.95715   0.16715   0.00000  Uiso   1.00
C420   C     0.83300   0.70952   0.16623   0.00000  Uiso   1.00
C421   C     0.79992   0.80822   0.01941   0.00000  Uiso   1.00
C422   C     0.86656   0.85860   0.31390   0.00000  Uiso   1.00
C423   C     0.80017   0.80843   0.30341   0.00000  Uiso   1.00
C424   C     0.86640   0.85831   0.02991   0.00000  Uiso   1.00
C425   C     0.76242   0.78049   0.03696   0.00000  Uiso   1.00
C426   C     0.90289   0.88731   0.29618   0.00000  Uiso   1.00
C427   C     0.83356   0.91248   0.16688   0.00000  Uiso   1.00
C428   C     0.73458   0.83330   0.15450   0.00000  Uiso   1.00
C429   C     0.93208   0.83336   0.17883   0.00000  Uiso   1.00
C430   C     0.67915   0.83335   0.14792   0.00000  Uiso   1.00
C431   C     0.98752   0.83333   0.18542   0.00000  Uiso   1.00
C432   C     0.86829   0.68842   0.14248   0.00000  Uiso   1.00
C433   C     0.79848   0.97825   0.19093   0.00000  Uiso   1.00
C434   C     0.86870   0.97850   0.14297   0.00000  Uiso   1.00
Cu435  Cu    0.83333   0.83334   0.21355   0.00000  Uiso   1.00
Cu436  Cu    0.83333   0.83333   0.11978   0.00000  Uiso   1.00
H437   H     0.99216   0.83344   0.11206   0.00000  Uiso   1.00
H438   H     0.94263   0.96484   0.13516   0.00000  Uiso   1.00
H439   H     0.76688   0.70346   0.24897   0.00000  Uiso   1.00
H440   H     0.72414   0.70183   0.19825   0.00000  Uiso   1.00
H441   H     0.68899   0.77143   0.04860   0.00000  Uiso   1.00
H442   H     0.91639   0.94494   0.27446   0.00000  Uiso   1.00
H443   H     0.67449   0.83325   0.22128   0.00000  Uiso   1.00
H444   H     0.77370   0.78856   0.28055   0.00000  Uiso   1.00
H445   H     0.89270   0.87834   0.05275   0.00000  Uiso   1.00
H446   H     0.89917   0.70273   0.08364   0.00000  Uiso   1.00
H447   H     0.94195   0.70389   0.13433   0.00000  Uiso   1.00
H448   H     0.76768   0.96394   0.24981   0.00000  Uiso   1.00
H449   H     0.72484   0.96278   0.19915   0.00000  Uiso   1.00
H450   H     0.89989   0.96319   0.08445   0.00000  Uiso   1.00
N451   N     0.83335   0.83334   0.28403   0.00000  Uiso   1.00
N452   N     0.83332   0.83332   0.04931   0.00000  Uiso   1.00
N453   N     0.90442   0.71128   0.11923   0.00000  Uiso   1.00
N454   N     0.76239   0.95539   0.21421   0.00000  Uiso   1.00
N455   N     0.90525   0.95593   0.12021   0.00000  Uiso   1.00
N456   N     0.76153   0.71073   0.21320   0.00000  Uiso   1.00
O457   O     0.83333   0.77322   0.20625   0.00000  Uiso   1.00
O458   O     0.71163   0.79346   0.03678   0.00000  Uiso   1.00
O459   O     0.94728   0.87669   0.29456   0.00000  Uiso   1.00
O460   O     0.88783   0.92780   0.28543   0.00000  Uiso   1.00
O461   O     0.83334   0.89345   0.12709   0.00000  Uiso   1.00
O462   O     0.83333   0.77321   0.12706   0.00000  Uiso   1.00
O463   O     0.83334   0.89346   0.20628   0.00000  Uiso   1.00
O464   O     0.75828   0.83334   0.19712   0.00000  Uiso   1.00
O465   O     0.90839   0.83333   0.13621   0.00000  Uiso   1.00
O466   O     0.75828   0.83333   0.11793   0.00000  Uiso   1.00
O467   O     0.90839   0.83334   0.21540   0.00000  Uiso   1.00
O468   O     0.77462   0.74520   0.04805   0.00000  Uiso   1.00
C469   C     0.16647   0.08752   0.49980   0.00000  Uiso   1.00
C470   C     0.13140   0.02150   0.52376   0.00000  Uiso   1.00
C471   C     0.16708   0.29048   0.50048   0.00000  Uiso   1.00
C472   C     0.16633   0.04285   0.49956   0.00000  Uiso   1.00
C473   C     0.13326   0.14156   0.35274   0.00000  Uiso   1.00
C474   C     0.19990   0.19193   0.64723   0.00000  Uiso   1.00
C475   C     0.13350   0.14177   0.63674   0.00000  Uiso   1.00
C476   C     0.19974   0.19165   0.36325   0.00000  Uiso   1.00
C477   C     0.09575   0.11382   0.37030   0.00000  Uiso   1.00
C478   C     0.23622   0.22064   0.62952   0.00000  Uiso   1.00
C479   C     0.16689   0.24582   0.50021   0.00000  Uiso   1.00
C480   C     0.06791   0.16664   0.48784   0.00000  Uiso   1.00
C481   C     0.26542   0.16670   0.51216   0.00000  Uiso   1.00
C482   C     0.01248   0.16668   0.48125   0.00000  Uiso   1.00
C483   C     0.32085   0.16666   0.51876   0.00000  Uiso   1.00
C484   C     0.20163   0.02175   0.47581   0.00000  Uiso   1.00
C485   C     0.13181   0.31158   0.52426   0.00000  Uiso   1.00
C486   C     0.20203   0.31183   0.47631   0.00000  Uiso   1.00
Cu487  Cu    0.16667   0.16667   0.54689   0.00000  Uiso   1.00
Cu488  Cu    0.16667   0.16666   0.45311   0.00000  Uiso   1.00
H489   H     0.32550   0.16677   0.44540   0.00000  Uiso   1.00
H490   H     0.27596   0.29817   0.46850   0.00000  Uiso   1.00
H491   H     0.10022   0.03679   0.58230   0.00000  Uiso   1.00
H492   H     0.05748   0.03516   0.53158   0.00000  Uiso   1.00
H493   H     0.02232   0.10477   0.38193   0.00000  Uiso   1.00
H494   H     0.24972   0.27827   0.60780   0.00000  Uiso   1.00
H495   H     0.00783   0.16659   0.55461   0.00000  Uiso   1.00
H496   H     0.10703   0.12189   0.61388   0.00000  Uiso   1.00
H497   H     0.22603   0.21168   0.38608   0.00000  Uiso   1.00
H498   H     0.23250   0.03606   0.41697   0.00000  Uiso   1.00
H499   H     0.27528   0.03723   0.46766   0.00000  Uiso   1.00
H500   H     0.10101   0.29727   0.58314   0.00000  Uiso   1.00
H501   H     0.05817   0.29611   0.53249   0.00000  Uiso   1.00
H502   H     0.23323   0.29653   0.41778   0.00000  Uiso   1.00
N503   N     0.16668   0.16668   0.61736   0.00000  Uiso   1.00
N504   N     0.16665   0.16666   0.38264   0.00000  Uiso   1.00
N505   N     0.23775   0.04462   0.45257   0.00000  Uiso   1.00
N506   N     0.09572   0.28872   0.54754   0.00000  Uiso   1.00
N507   N     0.23858   0.28926   0.45355   0.00000  Uiso   1.00
N508   N     0.09486   0.04407   0.54653   0.00000  Uiso   1.00
O509   O     0.16666   0.10655   0.53958   0.00000  Uiso   1.00
O510   O     0.04497   0.12679   0.37012   0.00000  Uiso   1.00
O511   O     0.28062   0.21002   0.62789   0.00000  Uiso   1.00
O512   O     0.22116   0.26113   0.61876   0.00000  Uiso   1.00
O513   O     0.16667   0.22678   0.46042   0.00000  Uiso   1.00
O514   O     0.16666   0.10654   0.46039   0.00000  Uiso   1.00
O515   O     0.16667   0.22679   0.53961   0.00000  Uiso   1.00
O516   O     0.09161   0.16667   0.53046   0.00000  Uiso   1.00
O517   O     0.24172   0.16666   0.46954   0.00000  Uiso   1.00
O518   O     0.09161   0.16666   0.45127   0.00000  Uiso   1.00
O519   O     0.24172   0.16667   0.54873   0.00000  Uiso   1.00
O520   O     0.10795   0.07854   0.38138   0.00000  Uiso   1.00
C521   C     0.49981   0.08752   0.49980   0.00000  Uiso   1.00
C522   C     0.46474   0.02150   0.52376   0.00000  Uiso   1.00
C523   C     0.50041   0.29048   0.50048   0.00000  Uiso   1.00
C524   C     0.49967   0.04285   0.49956   0.00000  Uiso   1.00
C525   C     0.46659   0.14156   0.35274   0.00000  Uiso   1.00
C526   C     0.53323   0.19193   0.64723   0.00000  Uiso   1.00
C527   C     0.46684   0.14177   0.63674   0.00000  Uiso   1.00
C528   C     0.53307   0.19165   0.36325   0.00000  Uiso   1.00
C529   C     0.42909   0.11382   0.37030   0.00000  Uiso   1.00
C530   C     0.56956   0.22064   0.62952   0.00000  Uiso   1.00
C531   C     0.50023   0.24582   0.50021   0.00000  Uiso   1.00
C532   C     0.40125   0.16664   0.48784   0.00000  Uiso   1.00
C533   C     0.59875   0.16670   0.51216   0.00000  Uiso   1.00
C534   C     0.34582   0.16668   0.48125   0.00000  Uiso   1.00
C535   C     0.65418   0.16666   0.51876   0.00000  Uiso   1.00
C536   C     0.53496   0.02175   0.47581   0.00000  Uiso   1.00
C537   C     0.46515   0.31158   0.52426   0.00000  Uiso   1.00
C538   C     0.53537   0.31183   0.47631   0.00000  Uiso   1.00
Cu539  Cu    0.50000   0.16667   0.54689   0.00000  Uiso   1.00
Cu540  Cu    0.50000   0.16666   0.45311   0.00000  Uiso   1.00
H541   H     0.65883   0.16677   0.44540   0.00000  Uiso   1.00
H542   H     0.60930   0.29817   0.46850   0.00000  Uiso   1.00
H543   H     0.43355   0.03679   0.58230   0.00000  Uiso   1.00
H544   H     0.39081   0.03516   0.53158   0.00000  Uiso   1.00
H545   H     0.35566   0.10477   0.38193   0.00000  Uiso   1.00
H546   H     0.58305   0.27827   0.60780   0.00000  Uiso   1.00
H547   H     0.34116   0.16659   0.55461   0.00000  Uiso   1.00
H548   H     0.44036   0.12189   0.61388   0.00000  Uiso   1.00
H549   H     0.55937   0.21168   0.38608   0.00000  Uiso   1.00
H550   H     0.56584   0.03606   0.41697   0.00000  Uiso   1.00
H551   H     0.60862   0.03723   0.46766   0.00000  Uiso   1.00
H552   H     0.43435   0.29727   0.58314   0.00000  Uiso   1.00
H553   H     0.39151   0.29611   0.53249   0.00000  Uiso   1.00
H554   H     0.56656   0.29653   0.41778   0.00000  Uiso   1.00
N555   N     0.50001   0.16668   0.61736   0.00000  Uiso   1.00
N556   N     0.49999   0.16666   0.38264   0.00000  Uiso   1.00
N557   N     0.57108   0.04462   0.45257   0.00000  Uiso   1.00
N558   N     0.42905   0.28872   0.54754   0.00000  Uiso   1.00
N559   N     0.57192   0.28926   0.45355   0.00000  Uiso   1.00
N560   N     0.42819   0.04407   0.54653   0.00000  Uiso   1.00
O561   O     0.50000   0.10655   0.53958   0.00000  Uiso   1.00
O562   O     0.37830   0.12679   0.37012   0.00000  Uiso   1.00
O563   O     0.61395   0.21002   0.62789   0.00000  Uiso   1.00
O564   O     0.55449   0.26113   0.61876   0.00000  Uiso   1.00
O565   O     0.50000   0.22678   0.46042   0.00000  Uiso   1.00
O566   O     0.50000   0.10654   0.46039   0.00000  Uiso   1.00
O567   O     0.50000   0.22679   0.53961   0.00000  Uiso   1.00
O568   O     0.42495   0.16667   0.53046   0.00000  Uiso   1.00
O569   O     0.57505   0.16666   0.46954   0.00000  Uiso   1.00
O570   O     0.42494   0.16666   0.45127   0.00000  Uiso   1.00
O571   O     0.57506   0.16667   0.54873   0.00000  Uiso   1.00
O572   O     0.44129   0.07854   0.38138   0.00000  Uiso   1.00
C573   C     0.83314   0.08752   0.49980   0.00000  Uiso   1.00
C574   C     0.79807   0.02150   0.52376   0.00000  Uiso   1.00
C575   C     0.83374   0.29048   0.50048   0.00000  Uiso   1.00
C576   C     0.83300   0.04285   0.49956   0.00000  Uiso   1.00
C577   C     0.79992   0.14156   0.35274   0.00000  Uiso   1.00
C578   C     0.86656   0.19193   0.64723   0.00000  Uiso   1.00
C579   C     0.80017   0.14177   0.63674   0.00000  Uiso   1.00
C580   C     0.86640   0.19165   0.36325   0.00000  Uiso   1.00
C581   C     0.76242   0.11382   0.37030   0.00000  Uiso   1.00
C582   C     0.90289   0.22064   0.62952   0.00000  Uiso   1.00
C583   C     0.83356   0.24582   0.50021   0.00000  Uiso   1.00
C584   C     0.73458   0.16664   0.48784   0.00000  Uiso   1.00
C585   C     0.93208   0.16670   0.51216   0.00000  Uiso   1.00
C586   C     0.67915   0.16668   0.48125   0.00000  Uiso   1.00
C587   C     0.98752   0.16666   0.51876   0.00000  Uiso   1.00
C588   C     0.86829   0.02175   0.47581   0.00000  Uiso   1.00
C589   C     0.79848   0.31158   0.52426   0.00000  Uiso   1.00
C590   C     0.86870   0.31183   0.47631   0.00000  Uiso   1.00
Cu591  Cu    0.83333   0.16667   0.54689   0.00000  Uiso   1.00
Cu592  Cu    0.83333   0.16666   0.45311   0.00000  Uiso   1.00
H593   H     0.99216   0.16677   0.44540   0.00000  Uiso   1.00
H594   H     0.94263   0.29817   0.46850   0.00000  Uiso   1.00
H595   H     0.76688   0.03679   0.58230   0.00000  Uiso   1.00
H596   H     0.72414   0.03516   0.53158   0.00000  Uiso   1.00
H597   H     0.68899   0.10477   0.38193   0.00000  Uiso   1.00
H598   H     0.91639   0.27827   0.60780   0.00000  Uiso   1.00
H599   H     0.67449   0.16659   0.55461   0.00000  Uiso   1.00
H600   H     0.77370   0.12189   0.61388   0.00000  Uiso   1.00
H601   H     0.89270   0.21168   0.38608   0.00000  Uiso   1.00
H602   H     0.89917   0.03606   0.41697   0.00000  Uiso   1.00
H603   H     0.94195   0.03723   0.46766   0.00000  Uiso   1.00
H604   H     0.76768   0.29727   0.58314   0.00000  Uiso   1.00
H605   H     0.72484   0.29611   0.53249   0.00000  Uiso   1.00
H606   H     0.89989   0.29653   0.41778   0.00000  Uiso   1.00
N607   N     0.83335   0.16668   0.61736   0.00000  Uiso   1.00
N608   N     0.83332   0.16666   0.38264   0.00000  Uiso   1.00
N609   N     0.90442   0.04462   0.45257   0.00000  Uiso   1.00
N610   N     0.76239   0.28872   0.54754   0.00000  Uiso   1.00
N611   N     0.90525   0.28926   0.45355   0.00000  Uiso   1.00
N612   N     0.76153   0.04407   0.54653   0.00000  Uiso   1.00
O613   O     0.83333   0.10655   0.53958   0.00000  Uiso   1.00
O614   O     0.71163   0.12679   0.37012   0.00000  Uiso   1.00
O615   O     0.94728   0.21002   0.62789   0.00000  Uiso   1.00
O616   O     0.88783   0.26113   0.61876   0.00000  Uiso   1.00
O617   O     0.83334   0.22678   0.46042   0.00000  Uiso   1.00
O618   O     0.83333   0.10654   0.46039   0.00000  Uiso   1.00
O619   O     0.83334   0.22679   0.53961   0.00000  Uiso   1.00
O620   O     0.75828   0.16667   0.53046   0.00000  Uiso   1.00
O621   O     0.90839   0.16666   0.46954   0.00000  Uiso   1.00
O622   O     0.75828   0.16666   0.45127   0.00000  Uiso   1.00
O623   O     0.90839   0.16667   0.54873   0.00000  Uiso   1.00
O624   O     0.77462   0.07854   0.38138   0.00000  Uiso   1.00
C625   C     0.16647   0.42085   0.49980   0.00000  Uiso   1.00
C626   C     0.13140   0.35483   0.52376   0.00000  Uiso   1.00
C627   C     0.16708   0.62381   0.50048   0.00000  Uiso   1.00
C628   C     0.16633   0.37619   0.49956   0.00000  Uiso   1.00
C629   C     0.13326   0.47489   0.35274   0.00000  Uiso   1.00
C630   C     0.19990   0.52526   0.64723   0.00000  Uiso   1.00
C631   C     0.13350   0.47510   0.63674   0.00000  Uiso   1.00
C632   C     0.19974   0.52498   0.36325   0.00000  Uiso   1.00
C633   C     0.09575   0.44716   0.37030   0.00000  Uiso   1.00
C634   C     0.23622   0.55398   0.62952   0.00000  Uiso   1.00
C635   C     0.16689   0.57915   0.50021   0.00000  Uiso   1.00
C636   C     0.06791   0.49997   0.48784   0.00000  Uiso   1.00
C637   C     0.26542   0.50003   0.51216   0.00000  Uiso   1.00
C638   C     0.01248   0.50002   0.48125   0.00000  Uiso   1.00
C639   C     0.32085   0.49999   0.51876   0.00000  Uiso   1.00
C640   C     0.20163   0.35509   0.47581   0.00000  Uiso   1.00
C641   C     0.13181   0.64492   0.52426   0.00000  Uiso   1.00
C642   C     0.20203   0.64517   0.47631   0.00000  Uiso   1.00
Cu643  Cu    0.16667   0.50001   0.54689   0.00000  Uiso   1.00
Cu644  Cu    0.16667   0.49999   0.45311   0.00000  Uiso   1.00
H645   H     0.32550   0.50011   0.44540   0.00000  Uiso   1.00
H646   H     0.27596   0.63150   0.46850   0.00000  Uiso   1.00
H647   H     0.10022   0.37013   0.58230   0.00000  Uiso   1.00
H648   H     0.05748   0.36850   0.53158   0.00000  Uiso   1.00
H649   H     0.02232   0.43810   0.38193   0.00000  Uiso   1.00
H650   H     0.24972   0.61161   0.60780   0.00000  Uiso   1.00
H651   H     0.00783   0.49992   0.55461   0.00000  Uiso   1.00
H652   H     0.10703   0.45522   0.61388   0.00000  Uiso   1.00
H653   H     0.22603   0.54501   0.38608   0.00000  Uiso   1.00
H654   H     0.23250   0.36940   0.41697   0.00000  Uiso   1.00
H655   H     0.27528   0.37056   0.46766   0.00000  Uiso   1.00
H656   H     0.10101   0.63061   0.58314   0.00000  Uiso   1.00
H657   H     0.05817   0.62945   0.53249   0.00000  Uiso   1.00
H658   H     0.23323   0.62986   0.41778   0.00000  Uiso   1.00
N659   N     0.16668   0.50001   0.61736   0.00000  Uiso   1.00
N660   N     0.16665   0.49999   0.38264   0.00000  Uiso   1.00
N661   N     0.23775   0.37795   0.45257   0.00000  Uiso   1.00
N662   N     0.09572   0.62205   0.54754   0.00000  Uiso   1.00
N663   N     0.23858   0.62259   0.45355   0.00000  Uiso   1.00
N664   N     0.09486   0.37740   0.54653   0.00000  Uiso   1.00
O665   O     0.16666   0.43989   0.53958   0.00000  Uiso   1.00
O666   O     0.04497   0.46013   0.37012   0.00000  Uiso   1.00
O667   O     0.28062   0.54336   0.62789   0.00000  Uiso   1.00
O668   O     0.22116   0.59446   0.61876   0.00000  Uiso   1.00
O669   O     0.16667   0.56011   0.46042   0.00000  Uiso   1.00
O670   O     0.16666   0.43988   0.46039   0.00000  Uiso   1.00
O671   O     0.16667   0.56012   0.53961   0.00000  Uiso   1.00
O672   O     0.09161   0.50000   0.53046   0.00000  Uiso   1.00
O673   O     0.24172   0.50000   0.46954   0.00000  Uiso   1.00
O674   O     0.09161   0.49999   0.45127   0.00000  Uiso   1.00
O675   O     0.24172   0.50001   0.54873   0.00000  Uiso   1.00
O676   O     0.10795   0.41187   0.38138   0.00000  Uiso   1.00
C677   C     0.49981   0.42085   0.49980   0.00000  Uiso   1.00
C678   C     0.46474   0.35483   0.52376   0.00000  Uiso   1.00
C679   C     0.50041   0.62381   0.50048   0.00000  Uiso   1.00
C680   C     0.49967   0.37619   0.49956   0.00000  Uiso   1.00
C681   C     0.46659   0.47489   0.35274   0.00000  Uiso   1.00
C682   C     0.53323   0.52526   0.64723   0.00000  Uiso   1.00
C683   C     0.46684   0.47510   0.63674   0.00000  Uiso   1.00
C684   C     0.53307   0.52498   0.36325   0.00000  Uiso   1.00
C685   C     0.42909   0.44716   0.37030   0.00000  Uiso   1.00
C686   C     0.56956   0.55398   0.62952   0.00000  Uiso   1.00
C687   C     0.50023   0.57915   0.50021   0.00000  Uiso   1.00
C688   C     0.40125   0.49997   0.48784   0.00000  Uiso   1.00
C689   C     0.59875   0.50003   0.51216   0.00000  Uiso   1.00
C690   C     0.34582   0.50002   0.48125   0.00000  Uiso   1.00
C691   C     0.65418   0.49999   0.51876   0.00000  Uiso   1.00
C692   C     0.53496   0.35509   0.47581   0.00000  Uiso   1.00
C693   C     0.46515   0.64492   0.52426   0.00000  Uiso   1.00
C694   C     0.53537   0.64517   0.47631   0.00000  Uiso   1.00
Cu695  Cu    0.50000   0.50001   0.54689   0.00000  Uiso   1.00
Cu696  Cu    0.50000   0.49999   0.45311   0.00000  Uiso   1.00
H697   H     0.65883   0.50011   0.44540   0.00000  Uiso   1.00
H698   H     0.60930   0.63150   0.46850   0.00000  Uiso   1.00
H699   H     0.43355   0.37013   0.58230   0.00000  Uiso   1.00
H700   H     0.39081   0.36850   0.53158   0.00000  Uiso   1.00
H701   H     0.35566   0.43810   0.38193   0.00000  Uiso   1.00
H702   H     0.58305   0.61161   0.60780   0.00000  Uiso   1.00
H703   H     0.34116   0.49992   0.55461   0.00000  Uiso   1.00
H704   H     0.44036   0.45522   0.61388   0.00000  Uiso   1.00
H705   H     0.55937   0.54501   0.38608   0.00000  Uiso   1.00
H706   H     0.56584   0.36940   0.41697   0.00000  Uiso   1.00
H707   H     0.60862   0.37056   0.46766   0.00000  Uiso   1.00
H708   H     0.43435   0.63061   0.58314   0.00000  Uiso   1.00
H709   H     0.39151   0.62945   0.53249   0.00000  Uiso   1.00
H710   H     0.56656   0.62986   0.41778   0.00000  Uiso   1.00
N711   N     0.50001   0.50001   0.61736   0.00000  Uiso   1.00
N712   N     0.49999   0.49999   0.38264   0.00000  Uiso   1.00
N713   N     0.57108   0.37795   0.45257   0.00000  Uiso   1.00
N714   N     0.42905   0.62205   0.54754   0.00000  Uiso   1.00
N715   N     0.57192   0.62259   0.45355   0.00000  Uiso   1.00
N716   N     0.42819   0.37740   0.54653   0.00000  Uiso   1.00
O717   O     0.50000   0.43989   0.53958   0.00000  Uiso   1.00
O718   O     0.37830   0.46013   0.37012   0.00000  Uiso   1.00
O719   O     0.61395   0.54336   0.62789   0.00000  Uiso   1.00
O720   O     0.55449   0.59446   0.61876   0.00000  Uiso   1.00
O721   O     0.50000   0.56011   0.46042   0.00000  Uiso   1.00
O722   O     0.50000   0.43988   0.46039   0.00000  Uiso   1.00
O723   O     0.50000   0.56012   0.53961   0.00000  Uiso   1.00
O724   O     0.42495   0.50000   0.53046   0.00000  Uiso   1.00
O725   O     0.57505   0.50000   0.46954   0.00000  Uiso   1.00
O726   O     0.42494   0.49999   0.45127   0.00000  Uiso   1.00
O727   O     0.57506   0.50001   0.54873   0.00000  Uiso   1.00
O728   O     0.44129   0.41187   0.38138   0.00000  Uiso   1.00
C729   C     0.83314   0.42085   0.49980   0.00000  Uiso   1.00
C730   C     0.79807   0.35483   0.52376   0.00000  Uiso   1.00
C731   C     0.83374   0.62381   0.50048   0.00000  Uiso   1.00
C732   C     0.83300   0.37619   0.49956   0.00000  Uiso   1.00
C733   C     0.79992   0.47489   0.35274   0.00000  Uiso   1.00
C734   C     0.86656   0.52526   0.64723   0.00000  Uiso   1.00
C735   C     0.80017   0.47510   0.63674   0.00000  Uiso   1.00
C736   C     0.86640   0.52498   0.36325   0.00000  Uiso   1.00
C737   C     0.76242   0.44716   0.37030   0.00000  Uiso   1.00
C738   C     0.90289   0.55398   0.62952   0.00000  Uiso   1.00
C739   C     0.83356   0.57915   0.50021   0.00000  Uiso   1.00
C740   C     0.73458   0.49997   0.48784   0.00000  Uiso   1.00
C741   C     0.93208   0.50003   0.51216   0.00000  Uiso   1.00
C742   C     0.67915   0.50002   0.48125   0.00000  Uiso   1.00
C743   C     0.98752   0.49999   0.51876   0.00000  Uiso   1.00
C744   C     0.86829   0.35509   0.47581   0.00000  Uiso   1.00
C745   C     0.79848   0.64492   0.52426   0.00000  Uiso   1.00
C746   C     0.86870   0.64517   0.47631   0.00000  Uiso   1.00
Cu747  Cu    0.83333   0.50001   0.54689   0.00000  Uiso   1.00
Cu748  Cu    0.83333   0.49999   0.45311   0.00000  Uiso   1.00
H749   H     0.99216   0.50011   0.44540   0.00000  Uiso   1.00
H750   H     0.94263   0.63150   0.46850   0.00000  Uiso   1.00
H751   H     0.76688   0.37013   0.58230   0.00000  Uiso   1.00
H752   H     0.72414   0.36850   0.53158   0.00000  Uiso   1.00
H753   H     0.68899   0.43810   0.38193   0.00000  Uiso   1.00
H754   H     0.91639   0.61161   0.60780   0.00000  Uiso   1.00
H755   H     0.67449   0.49992   0.55461   0.00000  Uiso   1.00
H756   H     0.77370   0.45522   0.61388   0.00000  Uiso   1.00
H757   H     0.89270   0.54501   0.38608   0.00000  Uiso   1.00
H758   H     0.89917   0.36940   0.41697   0.00000  Uiso   1.00
H759   H     0.94195   0.37056   0.46766   0.00000  Uiso   1.00
H760   H     0.76768   0.63061   0.58314   0.00000  Uiso   1.00
H761   H     0.72484   0.62945   0.53249   0.00000  Uiso   1.00
H762   H     0.89989   0.62986   0.41778   0.00000  Uiso   1.00
N763   N     0.83335   0.50001   0.61736   0.00000  Uiso   1.00
N764   N     0.83332   0.49999   0.38264   0.00000  Uiso   1.00
N765   N     0.90442   0.37795   0.45257   0.00000  Uiso   1.00
N766   N     0.76239   0.62205   0.54754   0.00000  Uiso   1.00
N767   N     0.90525   0.62259   0.45355   0.00000  Uiso   1.00
N768   N     0.76153   0.37740   0.54653   0.00000  Uiso   1.00
O769   O     0.83333   0.43989   0.53958   0.00000  Uiso   1.00
O770   O     0.71163   0.46013   0.37012   0.00000  Uiso   1.00
O771   O     0.94728   0.54336   0.62789   0.00000  Uiso   1.00
O772   O     0.88783   0.59446   0.61876   0.00000  Uiso   1.00
O773   O     0.83334   0.56011   0.46042   0.00000  Uiso   1.00
O774   O     0.83333   0.43988   0.46039   0.00000  Uiso   1.00
O775   O     0.83334   0.56012   0.53961   0.00000  Uiso   1.00
O776   O     0.75828   0.50000   0.53046   0.00000  Uiso   1.00
O777   O     0.90839   0.50000   0.46954   0.00000  Uiso   1.00
O778   O     0.75828   0.49999   0.45127   0.00000  Uiso   1.00
O779   O     0.90839   0.50001   0.54873   0.00000  Uiso   1.00
O780   O     0.77462   0.41187   0.38138   0.00000  Uiso   1.00
C781   C     0.16647   0.75418   0.49980   0.00000  Uiso   1.00
C782   C     0.13140   0.68817   0.52376   0.00000  Uiso   1.00
C783   C     0.16708   0.95715   0.50048   0.00000  Uiso   1.00
C784   C     0.16633   0.70952   0.49956   0.00000  Uiso   1.00
C785   C     0.13326   0.80822   0.35274   0.00000  Uiso   1.00
C786   C     0.19990   0.85860   0.64723   0.00000  Uiso   1.00
C787   C     0.13350   0.80843   0.63674   0.00000  Uiso   1.00
C788   C     0.19974   0.85831   0.36325   0.00000  Uiso   1.00
C789   C     0.09575   0.78049   0.37030   0.00000  Uiso   1.00
C790   C     0.23622   0.88731   0.62952   0.00000  Uiso   1.00
C791   C     0.16689   0.91248   0.50021   0.00000  Uiso   1.00
C792   C     0.06791   0.83330   0.48784   0.00000  Uiso   1.00
C793   C     0.26542   0.83336   0.51216   0.00000  Uiso   1.00
C794   C     0.01248   0.83335   0.48125   0.00000  Uiso   1.00
C795   C     0.32085   0.83333   0.51876   0.00000  Uiso   1.00
C796   C     0.20163   0.68842   0.47581   0.00000  Uiso   1.00
C797   C     0.13181   0.97825   0.52426   0.00000  Uiso   1.00
C798   C     0.20203   0.97850   0.47631   0.00000  Uiso   1.00
Cu799  Cu    0.16667   0.83334   0.54689   0.00000  Uiso   1.00
Cu800  Cu    0.16667   0.83333   0.45311   0.00000  Uiso   1.00
H801   H     0.32550   0.83344   0.44540   0.00000  Uiso   1.00
H802   H     0.27596   0.96484   0.46850   0.00000  Uiso   1.00
H803   H     0.10022   0.70346   0.58230   0.00000  Uiso   1.00
H804   H     0.05748   0.70183   0.53158   0.00000  Uiso   1.00
H805   H     0.02232   0.77143   0.38193   0.00000  Uiso   1.00
H806   H     0.24972   0.94494   0.60780   0.00000  Uiso   1.00
H807   H     0.00783   0.83325   0.55461   0.00000  Uiso   1.00
H808   H     0.10703   0.78856   0.61388   0.00000  Uiso   1.00
H809   H     0.22603   0.87834   0.38608   0.00000  Uiso   1.00
H810   H     0.23250   0.70273   0.41697   0.00000  Uiso   1.00
H811   H     0.27528   0.70389   0.46766   0.00000  Uiso   1.00
H812   H     0.10101   0.96394   0.58314   0.00000  Uiso   1.00
H813   H     0.05817   0.96278   0.53249   0.00000  Uiso   1.00
H814   H     0.23323   0.96319   0.41778   0.00000  Uiso   1.00
N815   N     0.16668   0.83334   0.61736   0.00000  Uiso   1.00
N816   N     0.16665   0.83332   0.38264   0.00000  Uiso   1.00
N817   N     0.23775   0.71128   0.45257   0.00000  Uiso   1.00
N818   N     0.09572   0.95539   0.54754   0.00000  Uiso   1.00
N819   N     0.23858   0.95593   0.45355   0.00000  Uiso   1.00
N820   N     0.09486   0.71073   0.54653   0.00000  Uiso   1.00
O821   O     0.16666   0.77322   0.53958   0.00000  Uiso   1.00
O822   O     0.04497   0.79346   0.37012   0.00000  Uiso   1.00
O823   O     0.28062   0.87669   0.62789   0.00000  Uiso   1.00
O824   O     0.22116   0.92780   0.61876   0.00000  Uiso   1.00
O825   O     0.16667   0.89345   0.46042   0.00000  Uiso   1.00
O826   O     0.16666   0.77321   0.46039   0.00000  Uiso   1.00
O827   O     0.16667   0.89346   0.53961   0.00000  Uiso   1.00
O828   O     0.09161   0.83334   0.53046   0.00000  Uiso   1.00
O829   O     0.24172   0.83333   0.46954   0.00000  Uiso   1.00
O830   O     0.09161   0.83333   0.45127   0.00000  Uiso   1.00
O831   O     0.24172   0.83334   0.54873   0.00000  Uiso   1.00
O832   O     0.10795   0.74520   0.38138   0.00000  Uiso   1.00
C833   C     0.49981   0.75418   0.49980   0.00000  Uiso   1.00
C834   C     0.46474   0.68817   0.52376   0.00000  Uiso   1.00
C835   C     0.50041   0.95715   0.50048   0.00000  Uiso   1.00
C836   C     0.49967   0.70952   0.49956   0.00000  Uiso   1.00
C837   C     0.46659   0.80822   0.35274   0.00000  Uiso   1.00
C838   C     0.53323   0.85860   0.64723   0.00000  Uiso   1.00
C839   C     0.46684   0.80843   0.63674   0.00000  Uiso   1.00
C840   C     0.53307   0.85831   0.36325   0.00000  Uiso   1.00
C841   C     0.42909   0.78049   0.37030   0.00000  Uiso   1.00
C842   C     0.56956   0.88731   0.62952   0.00000  Uiso   1.00
C843   C     0.50023   0.91248   0.50021   0.00000  Uiso   1.00
C844   C     0.40125   0.83330   0.48784   0.00000  Uiso   1.00
C845   C     0.59875   0.83336   0.51216   0.00000  Uiso   1.00
C846   C     0.34582   0.83335   0.48125   0.00000  Uiso   1.00
C847   C     0.65418   0.83333   0.51876   0.00000  Uiso   1.00
C848   C     0.53496   0.68842   0.47581   0.00000  Uiso   1.00
C849   C     0.46515   0.97825   0.52426   0.00000  Uiso   1.00
C850   C     0.53537   0.97850   0.47631   0.00000  Uiso   1.00
Cu851  Cu    0.50000   0.83334   0.54689   0.00000  Uiso   1.00
Cu852  Cu    0.50000   0.83333   0.45311   0.00000  Uiso   1.00
H853   H     0.65883   0.83344   0.44540   0.00000  Uiso   1.00
H854   H     0.60930   0.96484   0.46850   0.00000  Uiso   1.00
H855   H     0.43355   0.70346   0.58230   0.00000  Uiso   1.00
H856   H     0.39081   0.70183   0.53158   0.00000  Uiso   1.00
H857   H     0.35566   0.77143   0.38193   0.00000  Uiso   1.00
H858   H     0.58305   0.94494   0.60780   0.00000  Uiso   1.00
H859   H     0.34116   0.83325   0.55461   0.00000  Uiso   1.00
H860   H     0.44036   0.78856   0.61388   0.00000  Uiso   1.00
H861   H     0.55937   0.87834   0.38608   0.00000  Uiso   1.00
H862   H     0.56584   0.70273   0.41697   0.00000  Uiso   1.00
H863   H     0.60862   0.70389   0.46766   0.00000  Uiso   1.00
H864   H     0.43435   0.96394   0.58314   0.00000  Uiso   1.00
H865   H     0.39151   0.96278   0.53249   0.00000  Uiso   1.00
H866   H     0.56656   0.96319   0.41778   0.00000  Uiso   1.00
N867   N     0.50001   0.83334   0.61736   0.00000  Uiso   1.00
N868   N     0.49999   0.83332   0.38264   0.00000  Uiso   1.00
N869   N     0.57108   0.71128   0.45257   0.00000  Uiso   1.00
N870   N     0.42905   0.95539   0.54754   0.00000  Uiso   1.00
N871   N     0.57192   0.95593   0.45355   0.00000  Uiso   1.00
N872   N     0.42819   0.71073   0.54653   0.00000  Uiso   1.00
O873   O     0.50000   0.77322   0.53958   0.00000  Uiso   1.00
O874   O     0.37830   0.79346   0.37012   0.00000  Uiso   1.00
O875   O     0.61395   0.87669   0.62789   0.00000  Uiso   1.00
O876   O     0.55449   0.92780   0.61876   0.00000  Uiso   1.00
O877   O     0.50000   0.89345   0.46042   0.00000  Uiso   1.00
O878   O     0.50000   0.77321   0.46039   0.00000  Uiso   1.00
O879   O     0.50000   0.89346   0.53961   0.00000  Uiso   1.00
O880   O     0.42495   0.83334   0.53046   0.00000  Uiso   1.00
O881   O     0.57505   0.83333   0.46954   0.00000  Uiso   1.00
O882   O     0.42494   0.83333   0.45127   0.00000  Uiso   1.00
O883   O     0.57506   0.83334   0.54873   0.00000  Uiso   1.00
O884   O     0.44129   0.74520   0.38138   0.00000  Uiso   1.00
C885   C     0.83314   0.75418   0.49980   0.00000  Uiso   1.00
C886   C     0.79807   0.68817   0.52376   0.00000  Uiso   1.00
C887   C     0.83374   0.95715   0.50048   0.00000  Uiso   1.00
C888   C     0.83300   0.70952   0.49956   0.00000  Uiso   1.00
C889   C     0.79992   0.80822   0.35274   0.00000  Uiso   1.00
C890   C     0.86656   0.85860   0.64723   0.00000  Uiso   1.00
C891   C     0.80017   0.80843   0.63674   0.00000  Uiso   1.00
C892   C     0.86640   0.85831   0.36325   0.00000  Uiso   1.00
C893   C     0.76242   0.78049   0.37030   0.00000  Uiso   1.00
C894   C     0.90289   0.88731   0.62952   0.00000  Uiso   1.00
C895   C     0.83356   0.91248   0.50021   0.00000  Uiso   1.00
C896   C     0.73458   0.83330   0.48784   0.00000  Uiso   1.00
C897   C     0.93208   0.83336   0.51216   0.00000  Uiso   1.00
C898   C     0.67915   0.83335   0.48125   0.00000  Uiso   1.00
C899   C     0.98752   0.83333   0.51876   0.00000  Uiso   1.00
C900   C     0.86829   0.68842   0.47581   0.00000  Uiso   1.00
C901   C     0.79848   0.97825   0.52426   0.00000  Uiso   1.00
C902   C     0.86870   0.97850   0.47631   0.00000  Uiso   1.00
Cu903  Cu    0.83333   0.83334   0.54689   0.00000  Uiso   1.00
Cu904  Cu    0.83333   0.83333   0.45311   0.00000  Uiso   1.00
H905   H     0.99216   0.83344   0.44540   0.00000  Uiso   1.00
H906   H     0.94263   0.96484   0.46850   0.00000  Uiso   1.00
H907   H     0.76688   0.70346   0.58230   0.00000  Uiso   1.00
H908   H     0.72414   0.70183   0.53158   0.00000  Uiso   1.00
H909   H     0.68899   0.77143   0.38193   0.00000  Uiso   1.00
H910   H     0.91639   0.94494   0.60780   0.00000  Uiso   1.00
H911   H     0.67449   0.83325   0.55461   0.00000  Uiso   1.00
H912   H     0.77370   0.78856   0.61388   0.00000  Uiso   1.00
H913   H     0.89270   0.87834   0.38608   0.00000  Uiso   1.00
H914   H     0.89917   0.70273   0.41697   0.00000  Uiso   1.00
H915   H     0.94195   0.70389   0.46766   0.00000  Uiso   1.00
H916   H     0.76768   0.96394   0.58314   0.00000  Uiso   1.00
H917   H     0.72484   0.96278   0.53249   0.00000  Uiso   1.00
H918   H     0.89989   0.96319   0.41778   0.00000  Uiso   1.00
N919   N     0.83335   0.83334   0.61736   0.00000  Uiso   1.00
N920   N     0.83332   0.83332   0.38264   0.00000  Uiso   1.00
N921   N     0.90442   0.71128   0.45257   0.00000  Uiso   1.00
N922   N     0.76239   0.95539   0.54754   0.00000  Uiso   1.00
N923   N     0.90525   0.95593   0.45355   0.00000  Uiso   1.00
N924   N     0.76153   0.71073   0.54653   0.00000  Uiso   1.00
O925   O     0.83333   0.77322   0.53958   0.00000  Uiso   1.00
O926   O     0.71163   0.79346   0.37012   0.00000  Uiso   1.00
O927   O     0.94728   0.87669   0.62789   0.00000  Uiso   1.00
O928   O     0.88783   0.92780   0.61876   0.00000  Uiso   1.00
O929   O     0.83334   0.89345   0.46042   0.00000  Uiso   1.00
O930   O     0.83333   0.77321   0.46039   0.00000  Uiso   1.00
O931   O     0.83334   0.89346   0.53961   0.00000  Uiso   1.00
O932   O     0.75828   0.83334   0.53046   0.00000  Uiso   1.00
O933   O     0.90839   0.83333   0.46954   0.00000  Uiso   1.00
O934   O     0.75828   0.83333   0.45127   0.00000  Uiso   1.00
O935   O     0.90839   0.83334   0.54873   0.00000  Uiso   1.00
O936   O     0.77462   0.74520   0.38138   0.00000  Uiso   1.00
C937   C     0.16647   0.08752   0.83313   0.00000  Uiso   1.00
C938   C     0.13140   0.02150   0.85710   0.00000  Uiso   1.00
C939   C     0.16708   0.29048   0.83381   0.00000  Uiso   1.00
C940   C     0.16633   0.04285   0.83289   0.00000  Uiso   1.00
C941   C     0.13326   0.14156   0.68608   0.00000  Uiso   1.00
C942   C     0.19990   0.19193   0.98056   0.00000  Uiso   1.00
C943   C     0.13350   0.14177   0.97007   0.00000  Uiso   1.00
C944   C     0.19974   0.19165   0.69658   0.00000  Uiso   1.00
C945   C     0.09575   0.11382   0.70363   0.00000  Uiso   1.00
C946   C     0.23622   0.22064   0.96285   0.00000  Uiso   1.00
C947   C     0.16689   0.24582   0.83355   0.00000  Uiso   1.00
C948   C     0.06791   0.16664   0.82117   0.00000  Uiso   1.00
C949   C     0.26542   0.16670   0.84550   0.00000  Uiso   1.00
C950   C     0.01248   0.16668   0.81458   0.00000  Uiso   1.00
C951   C     0.32085   0.16666   0.85209   0.00000  Uiso   1.00
C952   C     0.20163   0.02175   0.80915   0.00000  Uiso   1.00
C953   C     0.13181   0.31158   0.85759   0.00000  Uiso   1.00
C954   C     0.20203   0.31183   0.80964   0.00000  Uiso   1.00
Cu955  Cu    0.16667   0.16667   0.88022   0.00000  Uiso   1.00
Cu956  Cu    0.16667   0.16666   0.78645   0.00000  Uiso   1.00
H957   H     0.32550   0.16677   0.77873   0.00000  Uiso   1.00
H958   H     0.27596   0.29817   0.80183   0.00000  Uiso   1.00
H959   H     0.10022   0.03679   0.91563   0.00000  Uiso   1.00
H960   H     0.05748   0.03516   0.86492   0.00000  Uiso   1.00
H961   H     0.02232   0.10477   0.71526   0.00000  Uiso   1.00
H962   H     0.24972   0.27827   0.94113   0.00000  Uiso   1.00
H963   H     0.00783   0.16659   0.88795   0.00000  Uiso   1.00
H964   H     0.10703   0.12189   0.94722   0.00000  Uiso   1.00
H965   H     0.22603   0.21168   0.71942   0.00000  Uiso   1.00
H966   H     0.23250   0.03606   0.75030   0.00000  Uiso   1.00
H967   H     0.27528   0.03723   0.80100   0.00000  Uiso   1.00
H968   H     0.10101   0.29727   0.91648   0.00000  Uiso   1.00
H969   H     0.05817   0.29611   0.86582   0.00000  Uiso   1.00
H970   H     0.23323   0.29653   0.75111   0.00000  Uiso   1.00
N971   N     0.16668   0.16668   0.95069   0.00000  Uiso   1.00
N972   N     0.16665   0.16666   0.71597   0.00000  Uiso   1.00
N973   N     0.23775   0.04462   0.78590   0.00000  Uiso   1.00
N974   N     0.09572   0.28872   0.88088   0.00000  Uiso   1.00
N975   N     0.23858   0.28926   0.78688   0.00000  Uiso   1.00
N976   N     0.09486   0.04407   0.87987   0.00000  Uiso   1.00
O977   O     0.16666   0.10655   0.87291   0.00000  Uiso   1.00
O978   O     0.04497   0.12679   0.70345   0.00000  Uiso   1.00
O979   O     0.28062   0.21002   0.96122   0.00000  Uiso   1.00
O980   O     0.22116   0.26113   0.95210   0.00000  Uiso   1.00
O981   O     0.16667   0.22678   0.79375   0.00000  Uiso   1.00
O982   O     0.16666   0.10654   0.79372   0.00000  Uiso   1.00
O983   O     0.16667   0.22679   0.87294   0.00000  Uiso   1.00
O984   O     0.09161   0.16667   0.86379   0.00000  Uiso   1.00
O985   O     0.24172   0.16666   0.80288   0.00000  Uiso   1.00
O986   O     0.09161   0.16666   0.78460   0.00000  Uiso   1.00
O987   O     0.24172   0.16667   0.88207   0.00000  Uiso   1.00
O988   O     0.10795   0.07854   0.71472   0.00000  Uiso   1.00
C989   C     0.49981   0.08752   0.83313   0.00000  Uiso   1.00
C990   C     0.46474   0.02150   0.85710   0.00000  Uiso   1.00
C991   C     0.50041   0.29048   0.83381   0.00000  Uiso   1.00
C992   C     0.49967   0.04285   0.83289   0.00000  Uiso   1.00
C993   C     0.46659   0.14156   0.68608   0.00000  Uiso   1.00
C994   C     0.53323   0.19193   0.98056   0.00000  Uiso   1.00
C995   C     0.46684   0.14177   0.97007   0.00000  Uiso   1.00
C996   C     0.53307   0.19165   0.69658   0.00000  Uiso   1.00
C997   C     0.42909   0.11382   0.70363   0.00000  Uiso   1.00
C998   C     0.56956   0.22064   0.96285   0.00000  Uiso   1.00
C999   C     0.50023   0.24582   0.83355   0.00000  Uiso   1.00
C1000  C     0.40125   0.16664   0.82117   0.00000  Uiso   1.00
C1001  C     0.59875   0.16670   0.84550   0.00000  Uiso   1.00
C1002  C     0.34582   0.16668   0.81458   0.00000  Uiso   1.00
C1003  C     0.65418   0.16666   0.85209   0.00000  Uiso   1.00
C1004  C     0.53496   0.02175   0.80915   0.00000  Uiso   1.00
C1005  C     0.46515   0.31158   0.85759   0.00000  Uiso   1.00
C1006  C     0.53537   0.31183   0.80964   0.00000  Uiso   1.00
Cu1007 Cu    0.50000   0.16667   0.88022   0.00000  Uiso   1.00
Cu1008 Cu    0.50000   0.16666   0.78645   0.00000  Uiso   1.00
H1009  H     0.65883   0.16677   0.77873   0.00000  Uiso   1.00
H1010  H     0.60930   0.29817   0.80183   0.00000  Uiso   1.00
H1011  H     0.43355   0.03679   0.91563   0.00000  Uiso   1.00
H1012  H     0.39081   0.03516   0.86492   0.00000  Uiso   1.00
H1013  H     0.35566   0.10477   0.71526   0.00000  Uiso   1.00
H1014  H     0.58305   0.27827   0.94113   0.00000  Uiso   1.00
H1015  H     0.34116   0.16659   0.88795   0.00000  Uiso   1.00
H1016  H     0.44036   0.12189   0.94722   0.00000  Uiso   1.00
H1017  H     0.55937   0.21168   0.71942   0.00000  Uiso   1.00
H1018  H     0.56584   0.03606   0.75030   0.00000  Uiso   1.00
H1019  H     0.60862   0.03723   0.80100   0.00000  Uiso   1.00
H1020  H     0.43435   0.29727   0.91648   0.00000  Uiso   1.00
H1021  H     0.39151   0.29611   0.86582   0.00000  Uiso   1.00
H1022  H     0.56656   0.29653   0.75111   0.00000  Uiso   1.00
N1023  N     0.50001   0.16668   0.95069   0.00000  Uiso   1.00
N1024  N     0.49999   0.16666   0.71597   0.00000  Uiso   1.00
N1025  N     0.57108   0.04462   0.78590   0.00000  Uiso   1.00
N1026  N     0.42905   0.28872   0.88088   0.00000  Uiso   1.00
N1027  N     0.57192   0.28926   0.78688   0.00000  Uiso   1.00
N1028  N     0.42819   0.04407   0.87987   0.00000  Uiso   1.00
O1029  O     0.50000   0.10655   0.87291   0.00000  Uiso   1.00
O1030  O     0.37830   0.12679   0.70345   0.00000  Uiso   1.00
O1031  O     0.61395   0.21002   0.96122   0.00000  Uiso   1.00
O1032  O     0.55449   0.26113   0.95210   0.00000  Uiso   1.00
O1033  O     0.50000   0.22678   0.79375   0.00000  Uiso   1.00
O1034  O     0.50000   0.10654   0.79372   0.00000  Uiso   1.00
O1035  O     0.50000   0.22679   0.87294   0.00000  Uiso   1.00
O1036  O     0.42495   0.16667   0.86379   0.00000  Uiso   1.00
O1037  O     0.57505   0.16666   0.80288   0.00000  Uiso   1.00
O1038  O     0.42494   0.16666   0.78460   0.00000  Uiso   1.00
O1039  O     0.57506   0.16667   0.88207   0.00000  Uiso   1.00
O1040  O     0.44129   0.07854   0.71472   0.00000  Uiso   1.00
C1041  C     0.83314   0.08752   0.83313   0.00000  Uiso   1.00
C1042  C     0.79807   0.02150   0.85710   0.00000  Uiso   1.00
C1043  C     0.83374   0.29048   0.83381   0.00000  Uiso   1.00
C1044  C     0.83300   0.04285   0.83289   0.00000  Uiso   1.00
C1045  C     0.79992   0.14156   0.68608   0.00000  Uiso   1.00
C1046  C     0.86656   0.19193   0.98056   0.00000  Uiso   1.00
C1047  C     0.80017   0.14177   0.97007   0.00000  Uiso   1.00
C1048  C     0.86640   0.19165   0.69658   0.00000  Uiso   1.00
C1049  C     0.76242   0.11382   0.70363   0.00000  Uiso   1.00
C1050  C     0.90289   0.22064   0.96285   0.00000  Uiso   1.00
C1051  C     0.83356   0.24582   0.83355   0.00000  Uiso   1.00
C1052  C     0.73458   0.16664   0.82117   0.00000  Uiso   1.00
C1053  C     0.93208   0.16670   0.84550   0.00000  Uiso   1.00
C1054  C     0.67915   0.16668   0.81458   0.00000  Uiso   1.00
C1055  C     0.98752   0.16666   0.85209   0.00000  Uiso   1.00
C1056  C     0.86829   0.02175   0.80915   0.00000  Uiso   1.00
C1057  C     0.79848   0.31158   0.85759   0.00000  Uiso   1.00
C1058  C     0.86870   0.31183   0.80964   0.00000  Uiso   1.00
Cu1059 Cu    0.83333   0.16667   0.88022   0.00000  Uiso   1.00
Cu1060 Cu    0.83333   0.16666   0.78645   0.00000  Uiso   1.00
H1061  H     0.99216   0.16677   0.77873   0.00000  Uiso   1.00
H1062  H     0.94263   0.29817   0.80183   0.00000  Uiso   1.00
H1063  H     0.76688   0.03679   0.91563   0.00000  Uiso   1.00
H1064  H     0.72414   0.03516   0.86492   0.00000  Uiso   1.00
H1065  H     0.68899   0.10477   0.71526   0.00000  Uiso   1.00
H1066  H     0.91639   0.27827   0.94113   0.00000  Uiso   1.00
H1067  H     0.67449   0.16659   0.88795   0.00000  Uiso   1.00
H1068  H     0.77370   0.12189   0.94722   0.00000  Uiso   1.00
H1069  H     0.89270   0.21168   0.71942   0.00000  Uiso   1.00
H1070  H     0.89917   0.03606   0.75030   0.00000  Uiso   1.00
H1071  H     0.94195   0.03723   0.80100   0.00000  Uiso   1.00
H1072  H     0.76768   0.29727   0.91648   0.00000  Uiso   1.00
H1073  H     0.72484   0.29611   0.86582   0.00000  Uiso   1.00
H1074  H     0.89989   0.29653   0.75111   0.00000  Uiso   1.00
N1075  N     0.83335   0.16668   0.95069   0.00000  Uiso   1.00
N1076  N     0.83332   0.16666   0.71597   0.00000  Uiso   1.00
N1077  N     0.90442   0.04462   0.78590   0.00000  Uiso   1.00
N1078  N     0.76239   0.28872   0.88088   0.00000  Uiso   1.00
N1079  N     0.90525   0.28926   0.78688   0.00000  Uiso   1.00
N1080  N     0.76153   0.04407   0.87987   0.00000  Uiso   1.00
O1081  O     0.83333   0.10655   0.87291   0.00000  Uiso   1.00
O1082  O     0.71163   0.12679   0.70345   0.00000  Uiso   1.00
O1083  O     0.94728   0.21002   0.96122   0.00000  Uiso   1.00
O1084  O     0.88783   0.26113   0.95210   0.00000  Uiso   1.00
O1085  O     0.83334   0.22678   0.79375   0.00000  Uiso   1.00
O1086  O     0.83333   0.10654   0.79372   0.00000  Uiso   1.00
O1087  O     0.83334   0.22679   0.87294   0.00000  Uiso   1.00
O1088  O     0.75828   0.16667   0.86379   0.00000  Uiso   1.00
O1089  O     0.90839   0.16666   0.80288   0.00000  Uiso   1.00
O1090  O     0.75828   0.16666   0.78460   0.00000  Uiso   1.00
O1091  O     0.90839   0.16667   0.88207   0.00000  Uiso   1.00
O1092  O     0.77462   0.07854   0.71472   0.00000  Uiso   1.00
C1093  C     0.16647   0.42085   0.83313   0.00000  Uiso   1.00
C1094  C     0.13140   0.35483   0.85710   0.00000  Uiso   1.00
C1095  C     0.16708   0.62381   0.83381   0.00000  Uiso   1.00
C1096  C     0.16633   0.37619   0.83289   0.00000  Uiso   1.00
C1097  C     0.13326   0.47489   0.68608   0.00000  Uiso   1.00
C1098  C     0.19990   0.52526   0.98056   0.00000  Uiso   1.00
C1099  C     0.13350   0.47510   0.97007   0.00000  Uiso   1.00
C1100  C     0.19974   0.52498   0.69658   0.00000  Uiso   1.00
C1101  C     0.09575   0.44716   0.70363   0.00000  Uiso   1.00
C1102  C     0.23622   0.55398   0.96285   0.00000  Uiso   1.00
C1103  C     0.16689   0.57915   0.83355   0.00000  Uiso   1.00
C1104  C     0.06791   0.49997   0.82117   0.00000  Uiso   1.00
C1105  C     0.26542   0.50003   0.84550   0.00000  Uiso   1.00
C1106  C     0.01248   0.50002   0.81458   0.00000  Uiso   1.00
C1107  C     0.32085   0.49999   0.85209   0.00000  Uiso   1.00
C1108  C     0.20163   0.35509   0.80915   0.00000  Uiso   1.00
C1109  C     0.13181   0.64492   0.85759   0.00000  Uiso   1.00
C1110  C     0.20203   0.64517   0.80964   0.00000  Uiso   1.00
Cu1111 Cu    0.16667   0.50001   0.88022   0.00000  Uiso   1.00
Cu1112 Cu    0.16667   0.49999   0.78645   0.00000  Uiso   1.00
H1113  H     0.32550   0.50011   0.77873   0.00000  Uiso   1.00
H1114  H     0.27596   0.63150   0.80183   0.00000  Uiso   1.00
H1115  H     0.10022   0.37013   0.91563   0.00000  Uiso   1.00
H1116  H     0.05748   0.36850   0.86492   0.00000  Uiso   1.00
H1117  H     0.02232   0.43810   0.71526   0.00000  Uiso   1.00
H1118  H     0.24972   0.61161   0.94113   0.00000  Uiso   1.00
H1119  H     0.00783   0.49992   0.88795   0.00000  Uiso   1.00
H1120  H     0.10703   0.45522   0.94722   0.00000  Uiso   1.00
H1121  H     0.22603   0.54501   0.71942   0.00000  Uiso   1.00
H1122  H     0.23250   0.36940   0.75030   0.00000  Uiso   1.00
H1123  H     0.27528   0.37056   0.80100   0.00000  Uiso   1.00
H1124  H     0.10101   0.63061   0.91648   0.00000  Uiso   1.00
H1125  H     0.05817   0.62945   0.86582   0.00000  Uiso   1.00
H1126  H     0.23323   0.62986   0.75111   0.00000  Uiso   1.00
N1127  N     0.16668   0.50001   0.95069   0.00000  Uiso   1.00
N1128  N     0.16665   0.49999   0.71597   0.00000  Uiso   1.00
N1129  N     0.23775   0.37795   0.78590   0.00000  Uiso   1.00
N1130  N     0.09572   0.62205   0.88088   0.00000  Uiso   1.00
N1131  N     0.23858   0.62259   0.78688   0.00000  Uiso   1.00
N1132  N     0.09486   0.37740   0.87987   0.00000  Uiso   1.00
O1133  O     0.16666   0.43989   0.87291   0.00000  Uiso   1.00
O1134  O     0.04497   0.46013   0.70345   0.00000  Uiso   1.00
O1135  O     0.28062   0.54336   0.96122   0.00000  Uiso   1.00
O1136  O     0.22116   0.59446   0.95210   0.00000  Uiso   1.00
O1137  O     0.16667   0.56011   0.79375   0.00000  Uiso   1.00
O1138  O     0.16666   0.43988   0.79372   0.00000  Uiso   1.00
O1139  O     0.16667   0.56012   0.87294   0.00000  Uiso   1.00
O1140  O     0.09161   0.50000   0.86379   0.00000  Uiso   1.00
O1141  O     0.24172   0.50000   0.80288   0.00000  Uiso   1.00
O1142  O     0.09161   0.49999   0.78460   0.00000  Uiso   1.00
O1143  O     0.24172   0.50001   0.88207   0.00000  Uiso   1.00
O1144  O     0.10795   0.41187   0.71472   0.00000  Uiso   1.00
C1145  C     0.49981   0.42085   0.83313   0.00000  Uiso   1.00
C1146  C     0.46474   0.35483   0.85710   0.00000  Uiso   1.00
C1147  C     0.50041   0.62381   0.83381   0.00000  Uiso   1.00
C1148  C     0.49967   0.37619   0.83289   0.00000  Uiso   1.00
C1149  C     0.46659   0.47489   0.68608   0.00000  Uiso   1.00
C1150  C     0.53323   0.52526   0.98056   0.00000  Uiso   1.00
C1151  C     0.46684   0.47510   0.97007   0.00000  Uiso   1.00
C1152  C     0.53307   0.52498   0.69658   0.00000  Uiso   1.00
C1153  C     0.42909   0.44716   0.70363   0.00000  Uiso   1.00
C1154  C     0.56956   0.55398   0.96285   0.00000  Uiso   1.00
C1155  C     0.50023   0.57915   0.83355   0.00000  Uiso   1.00
C1156  C     0.40125   0.49997   0.82117   0.00000  Uiso   1.00
C1157  C     0.59875   0.50003   0.84550   0.00000  Uiso   1.00
C1158  C     0.34582   0.50002   0.81458   0.00000  Uiso   1.00
C1159  C     0.65418   0.49999   0.85209   0.00000  Uiso   1.00
C1160  C     0.53496   0.35509   0.80915   0.00000  Uiso   1.00
C1161  C     0.46515   0.64492   0.85759   0.00000  Uiso   1.00
C1162  C     0.53537   0.64517   0.80964   0.00000  Uiso   1.00
Cu1163 Cu    0.50000   0.50001   0.88022   0.00000  Uiso   1.00
Cu1164 Cu    0.50000   0.49999   0.78645   0.00000  Uiso   1.00
H1165  H     0.65883   0.50011   0.77873   0.00000  Uiso   1.00
H1166  H     0.60930   0.63150   0.80183   0.00000  Uiso   1.00
H1167  H     0.43355   0.37013   0.91563   0.00000  Uiso   1.00
H1168  H     0.39081   0.36850   0.86492   0.00000  Uiso   1.00
H1169  H     0.35566   0.43810   0.71526   0.00000  Uiso   1.00
H1170  H     0.58305   0.61161   0.94113   0.00000  Uiso   1.00
H1171  H     0.34116   0.49992   0.88795   0.00000  Uiso   1.00
H1172  H     0.44036   0.45522   0.94722   0.00000  Uiso   1.00
H1173  H     0.55937   0.54501   0.71942   0.00000  Uiso   1.00
H1174  H     0.56584   0.36940   0.75030   0.00000  Uiso   1.00
H1175  H     0.60862   0.37056   0.80100   0.00000  Uiso   1.00
H1176  H     0.43435   0.63061   0.91648   0.00000  Uiso   1.00
H1177  H     0.39151   0.62945   0.86582   0.00000  Uiso   1.00
H1178  H     0.56656   0.62986   0.75111   0.00000  Uiso   1.00
N1179  N     0.50001   0.50001   0.95069   0.00000  Uiso   1.00
N1180  N     0.49999   0.49999   0.71597   0.00000  Uiso   1.00
N1181  N     0.57108   0.37795   0.78590   0.00000  Uiso   1.00
N1182  N     0.42905   0.62205   0.88088   0.00000  Uiso   1.00
N1183  N     0.57192   0.62259   0.78688   0.00000  Uiso   1.00
N1184  N     0.42819   0.37740   0.87987   0.00000  Uiso   1.00
O1185  O     0.50000   0.43989   0.87291   0.00000  Uiso   1.00
O1186  O     0.37830   0.46013   0.70345   0.00000  Uiso   1.00
O1187  O     0.61395   0.54336   0.96122   0.00000  Uiso   1.00
O1188  O     0.55449   0.59446   0.95210   0.00000  Uiso   1.00
O1189  O     0.50000   0.56011   0.79375   0.00000  Uiso   1.00
O1190  O     0.50000   0.43988   0.79372   0.00000  Uiso   1.00
O1191  O     0.50000   0.56012   0.87294   0.00000  Uiso   1.00
O1192  O     0.42495   0.50000   0.86379   0.00000  Uiso   1.00
O1193  O     0.57505   0.50000   0.80288   0.00000  Uiso   1.00
O1194  O     0.42494   0.49999   0.78460   0.00000  Uiso   1.00
O1195  O     0.57506   0.50001   0.88207   0.00000  Uiso   1.00
O1196  O     0.44129   0.41187   0.71472   0.00000  Uiso   1.00
C1197  C     0.83314   0.42085   0.83313   0.00000  Uiso   1.00
C1198  C     0.79807   0.35483   0.85710   0.00000  Uiso   1.00
C1199  C     0.83374   0.62381   0.83381   0.00000  Uiso   1.00
C1200  C     0.83300   0.37619   0.83289   0.00000  Uiso   1.00
C1201  C     0.79992   0.47489   0.68608   0.00000  Uiso   1.00
C1202  C     0.86656   0.52526   0.98056   0.00000  Uiso   1.00
C1203  C     0.80017   0.47510   0.97007   0.00000  Uiso   1.00
C1204  C     0.86640   0.52498   0.69658   0.00000  Uiso   1.00
C1205  C     0.76242   0.44716   0.70363   0.00000  Uiso   1.00
C1206  C     0.90289   0.55398   0.96285   0.00000  Uiso   1.00
C1207  C     0.83356   0.57915   0.83355   0.00000  Uiso   1.00
C1208  C     0.73458   0.49997   0.82117   0.00000  Uiso   1.00
C1209  C     0.93208   0.50003   0.84550   0.00000  Uiso   1.00
C1210  C     0.67915   0.50002   0.81458   0.00000  Uiso   1.00
C1211  C     0.98752   0.49999   0.85209   0.00000  Uiso   1.00
C1212  C     0.86829   0.35509   0.80915   0.00000  Uiso   1.00
C1213  C     0.79848   0.64492   0.85759   0.00000  Uiso   1.00
C1214  C     0.86870   0.64517   0.80964   0.00000  Uiso   1.00
Cu1215 Cu    0.83333   0.50001   0.88022   0.00000  Uiso   1.00
Cu1216 Cu    0.83333   0.49999   0.78645   0.00000  Uiso   1.00
H1217  H     0.99216   0.50011   0.77873   0.00000  Uiso   1.00
H1218  H     0.94263   0.63150   0.80183   0.00000  Uiso   1.00
H1219  H     0.76688   0.37013   0.91563   0.00000  Uiso   1.00
H1220  H     0.72414   0.36850   0.86492   0.00000  Uiso   1.00
H1221  H     0.68899   0.43810   0.71526   0.00000  Uiso   1.00
H1222  H     0.91639   0.61161   0.94113   0.00000  Uiso   1.00
H1223  H     0.67449   0.49992   0.88795   0.00000  Uiso   1.00
H1224  H     0.77370   0.45522   0.94722   0.00000  Uiso   1.00
H1225  H     0.89270   0.54501   0.71942   0.00000  Uiso   1.00
H1226  H     0.89917   0.36940   0.75030   0.00000  Uiso   1.00
H1227  H     0.94195   0.37056   0.80100   0.00000  Uiso   1.00
H1228  H     0.76768   0.63061   0.91648   0.00000  Uiso   1.00
H1229  H     0.72484   0.62945   0.86582   0.00000  Uiso   1.00
H1230  H     0.89989   0.62986   0.75111   0.00000  Uiso   1.00
N1231  N     0.83335   0.50001   0.95069   0.00000  Uiso   1.00
N1232  N     0.83332   0.49999   0.71597   0.00000  Uiso   1.00
N1233  N     0.90442   0.37795   0.78590   0.00000  Uiso   1.00
N1234  N     0.76239   0.62205   0.88088   0.00000  Uiso   1.00
N1235  N     0.90525   0.62259   0.78688   0.00000  Uiso   1.00
N1236  N     0.76153   0.37740   0.87987   0.00000  Uiso   1.00
O1237  O     0.83333   0.43989   0.87291   0.00000  Uiso   1.00
O1238  O     0.71163   0.46013   0.70345   0.00000  Uiso   1.00
O1239  O     0.94728   0.54336   0.96122   0.00000  Uiso   1.00
O1240  O     0.88783   0.59446   0.95210   0.00000  Uiso   1.00
O1241  O     0.83334   0.56011   0.79375   0.00000  Uiso   1.00
O1242  O     0.83333   0.43988   0.79372   0.00000  Uiso   1.00
O1243  O     0.83334   0.56012   0.87294   0.00000  Uiso   1.00
O1244  O     0.75828   0.50000   0.86379   0.00000  Uiso   1.00
O1245  O     0.90839   0.50000   0.80288   0.00000  Uiso   1.00
O1246  O     0.75828   0.49999   0.78460   0.00000  Uiso   1.00
O1247  O     0.90839   0.50001   0.88207   0.00000  Uiso   1.00
O1248  O     0.77462   0.41187   0.71472   0.00000  Uiso   1.00
C1249  C     0.16647   0.75418   0.83313   0.00000  Uiso   1.00
C1250  C     0.13140   0.68817   0.85710   0.00000  Uiso   1.00
C1251  C     0.16708   0.95715   0.83381   0.00000  Uiso   1.00
C1252  C     0.16633   0.70952   0.83289   0.00000  Uiso   1.00
C1253  C     0.13326   0.80822   0.68608   0.00000  Uiso   1.00
C1254  C     0.19990   0.85860   0.98056   0.00000  Uiso   1.00
C1255  C     0.13350   0.80843   0.97007   0.00000  Uiso   1.00
C1256  C     0.19974   0.85831   0.69658   0.00000  Uiso   1.00
C1257  C     0.09575   0.78049   0.70363   0.00000  Uiso   1.00
C1258  C     0.23622   0.88731   0.96285   0.00000  Uiso   1.00
C1259  C     0.16689   0.91248   0.83355   0.00000  Uiso   1.00
C1260  C     0.06791   0.83330   0.82117   0.00000  Uiso   1.00
C1261  C     0.26542   0.83336   0.84550   0.00000  Uiso   1.00
C1262  C     0.01248   0.83335   0.81458   0.00000  Uiso   1.00
C1263  C     0.32085   0.83333   0.85209   0.00000  Uiso   1.00
C1264  C     0.20163   0.68842   0.80915   0.00000  Uiso   1.00
C1265  C     0.13181   0.97825   0.85759   0.00000  Uiso   1.00
C1266  C     0.20203   0.97850   0.80964   0.00000  Uiso   1.00
Cu1267 Cu    0.16667   0.83334   0.88022   0.00000  Uiso   1.00
Cu1268 Cu    0.16667   0.83333   0.78645   0.00000  Uiso   1.00
H1269  H     0.32550   0.83344   0.77873   0.00000  Uiso   1.00
H1270  H     0.27596   0.96484   0.80183   0.00000  Uiso   1.00
H1271  H     0.10022   0.70346   0.91563   0.00000  Uiso   1.00
H1272  H     0.05748   0.70183   0.86492   0.00000  Uiso   1.00
H1273  H     0.02232   0.77143   0.71526   0.00000  Uiso   1.00
H1274  H     0.24972   0.94494   0.94113   0.00000  Uiso   1.00
H1275  H     0.00783   0.83325   0.88795   0.00000  Uiso   1.00
H1276  H     0.10703   0.78856   0.94722   0.00000  Uiso   1.00
H1277  H     0.22603   0.87834   0.71942   0.00000  Uiso   1.00
H1278  H     0.23250   0.70273   0.75030   0.00000  Uiso   1.00
H1279  H     0.27528   0.70389   0.80100   0.00000  Uiso   1.00
H1280  H     0.10101   0.96394   0.91648   0.00000  Uiso   1.00
H1281  H     0.05817   0.96278   0.86582   0.00000  Uiso   1.00
H1282  H     0.23323   0.96319   0.75111   0.00000  Uiso   1.00
N1283  N     0.16668   0.83334   0.95069   0.00000  Uiso   1.00
N1284  N     0.16665   0.83332   0.71597   0.00000  Uiso   1.00
N1285  N     0.23775   0.71128   0.78590   0.00000  Uiso   1.00
N1286  N     0.09572   0.95539   0.88088   0.00000  Uiso   1.00
N1287  N     0.23858   0.95593   0.78688   0.00000  Uiso   1.00
N1288  N     0.09486   0.71073   0.87987   0.00000  Uiso   1.00
O1289  O     0.16666   0.77322   0.87291   0.00000  Uiso   1.00
O1290  O     0.04497   0.79346   0.70345   0.00000  Uiso   1.00
O1291  O     0.28062   0.87669   0.96122   0.00000  Uiso   1.00
O1292  O     0.22116   0.92780   0.95210   0.00000  Uiso   1.00
O1293  O     0.16667   0.89345   0.79375   0.00000  Uiso   1.00
O1294  O     0.16666   0.77321   0.79372   0.00000  Uiso   1.00
O1295  O     0.16667   0.89346   0.87294   0.00000  Uiso   1.00
O1296  O     0.09161   0.83334   0.86379   0.00000  Uiso   1.00
O1297  O     0.24172   0.83333   0.80288   0.00000  Uiso   1.00
O1298  O     0.09161   0.83333   0.78460   0.00000  Uiso   1.00
O1299  O     0.24172   0.83334   0.88207   0.00000  Uiso   1.00
O1300  O     0.10795   0.74520   0.71472   0.00000  Uiso   1.00
C1301  C     0.49981   0.75418   0.83313   0.00000  Uiso   1.00
C1302  C     0.46474   0.68817   0.85710   0.00000  Uiso   1.00
C1303  C     0.50041   0.95715   0.83381   0.00000  Uiso   1.00
C1304  C     0.49967   0.70952   0.83289   0.00000  Uiso   1.00
C1305  C     0.46659   0.80822   0.68608   0.00000  Uiso   1.00
C1306  C     0.53323   0.85860   0.98056   0.00000  Uiso   1.00
C1307  C     0.46684   0.80843   0.97007   0.00000  Uiso   1.00
C1308  C     0.53307   0.85831   0.69658   0.00000  Uiso   1.00
C1309  C     0.42909   0.78049   0.70363   0.00000  Uiso   1.00
C1310  C     0.56956   0.88731   0.96285   0.00000  Uiso   1.00
C1311  C     0.50023   0.91248   0.83355   0.00000  Uiso   1.00
C1312  C     0.40125   0.83330   0.82117   0.00000  Uiso   1.00
C1313  C     0.59875   0.83336   0.84550   0.00000  Uiso   1.00
C1314  C     0.34582   0.83335   0.81458   0.00000  Uiso   1.00
C1315  C     0.65418   0.83333   0.85209   0.00000  Uiso   1.00
C1316  C     0.53496   0.68842   0.80915   0.00000  Uiso   1.00
C1317  C     0.46515   0.97825   0.85759   0.00000  Uiso   1.00
C1318  C     0.53537   0.97850   0.80964   0.00000  Uiso   1.00
Cu1319 Cu    0.50000   0.83334   0.88022   0.00000  Uiso   1.00
Cu1320 Cu    0.50000   0.83333   0.78645   0.00000  Uiso   1.00
H1321  H     0.65883   0.83344   0.77873   0.00000  Uiso   1.00
H1322  H     0.60930   0.96484   0.80183   0.00000  Uiso   1.00
H1323  H     0.43355   0.70346   0.91563   0.00000  Uiso   1.00
H1324  H     0.39081   0.70183   0.86492   0.00000  Uiso   1.00
H1325  H     0.35566   0.77143   0.71526   0.00000  Uiso   1.00
H1326  H     0.58305   0.94494   0.94113   0.00000  Uiso   1.00
H1327  H     0.34116   0.83325   0.88795   0.00000  Uiso   1.00
H1328  H     0.44036   0.78856   0.94722   0.00000  Uiso   1.00
H1329  H     0.55937   0.87834   0.71942   0.00000  Uiso   1.00
H1330  H     0.56584   0.70273   0.75030   0.00000  Uiso   1.00
H1331  H     0.60862   0.70389   0.80100   0.00000  Uiso   1.00
H1332  H     0.43435   0.96394   0.91648   0.00000  Uiso   1.00
H1333  H     0.39151   0.96278   0.86582   0.00000  Uiso   1.00
H1334  H     0.56656   0.96319   0.75111   0.00000  Uiso   1.00
N1335  N     0.50001   0.83334   0.95069   0.00000  Uiso   1.00
N1336  N     0.49999   0.83332   0.71597   0.00000  Uiso   1.00
N1337  N     0.57108   0.71128   0.78590   0.00000  Uiso   1.00
N1338  N     0.42905   0.95539   0.88088   0.00000  Uiso   1.00
N1339  N     0.57192   0.95593   0.78688   0.00000  Uiso   1.00
N1340  N     0.42819   0.71073   0.87987   0.00000  Uiso   1.00
O1341  O     0.50000   0.77322   0.87291   0.00000  Uiso   1.00
O1342  O     0.37830   0.79346   0.70345   0.00000  Uiso   1.00
O1343  O     0.61395   0.87669   0.96122   0.00000  Uiso   1.00
O1344  O     0.55449   0.92780   0.95210   0.00000  Uiso   1.00
O1345  O     0.50000   0.89345   0.79375   0.00000  Uiso   1.00
O1346  O     0.50000   0.77321   0.79372   0.00000  Uiso   1.00
O1347  O     0.50000   0.89346   0.87294   0.00000  Uiso   1.00
O1348  O     0.42495   0.83334   0.86379   0.00000  Uiso   1.00
O1349  O     0.57505   0.83333   0.80288   0.00000  Uiso   1.00
O1350  O     0.42494   0.83333   0.78460   0.00000  Uiso   1.00
O1351  O     0.57506   0.83334   0.88207   0.00000  Uiso   1.00
O1352  O     0.44129   0.74520   0.71472   0.00000  Uiso   1.00
C1353  C     0.83314   0.75418   0.83313   0.00000  Uiso   1.00
C1354  C     0.79807   0.68817   0.85710   0.00000  Uiso   1.00
C1355  C     0.83374   0.95715   0.83381   0.00000  Uiso   1.00
C1356  C     0.83300   0.70952   0.83289   0.00000  Uiso   1.00
C1357  C     0.79992   0.80822   0.68608   0.00000  Uiso   1.00
C1358  C     0.86656   0.85860   0.98056   0.00000  Uiso   1.00
C1359  C     0.80017   0.80843   0.97007   0.00000  Uiso   1.00
C1360  C     0.86640   0.85831   0.69658   0.00000  Uiso   1.00
C1361  C     0.76242   0.78049   0.70363   0.00000  Uiso   1.00
C1362  C     0.90289   0.88731   0.96285   0.00000  Uiso   1.00
C1363  C     0.83356   0.91248   0.83355   0.00000  Uiso   1.00
C1364  C     0.73458   0.83330   0.82117   0.00000  Uiso   1.00
C1365  C     0.93208   0.83336   0.84550   0.00000  Uiso   1.00
C1366  C     0.67915   0.83335   0.81458   0.00000  Uiso   1.00
C1367  C     0.98752   0.83333   0.85209   0.00000  Uiso   1.00
C1368  C     0.86829   0.68842   0.80915   0.00000  Uiso   1.00
C1369  C     0.79848   0.97825   0.85759   0.00000  Uiso   1.00
C1370  C     0.86870   0.97850   0.80964   0.00000  Uiso   1.00
Cu1371 Cu    0.83333   0.83334   0.88022   0.00000  Uiso   1.00
Cu1372 Cu    0.83333   0.83333   0.78645   0.00000  Uiso   1.00
H1373  H     0.99216   0.83344   0.77873   0.00000  Uiso   1.00
H1374  H     0.94263   0.96484   0.80183   0.00000  Uiso   1.00
H1375  H     0.76688   0.70346   0.91563   0.00000  Uiso   1.00
H1376  H     0.72414   0.70183   0.86492   0.00000  Uiso   1.00
H1377  H     0.68899   0.77143   0.71526   0.00000  Uiso   1.00
H1378  H     0.91639   0.94494   0.94113   0.00000  Uiso   1.00
H1379  H     0.67449   0.83325   0.88795   0.00000  Uiso   1.00
H1380  H     0.77370   0.78856   0.94722   0.00000  Uiso   1.00
H1381  H     0.89270   0.87834   0.71942   0.00000  Uiso   1.00
H1382  H     0.89917   0.70273   0.75030   0.00000  Uiso   1.00
H1383  H     0.94195   0.70389   0.80100   0.00000  Uiso   1.00
H1384  H     0.76768   0.96394   0.91648   0.00000  Uiso   1.00
H1385  H     0.72484   0.96278   0.86582   0.00000  Uiso   1.00
H1386  H     0.89989   0.96319   0.75111   0.00000  Uiso   1.00
N1387  N     0.83335   0.83334   0.95069   0.00000  Uiso   1.00
N1388  N     0.83332   0.83332   0.71597   0.00000  Uiso   1.00
N1389  N     0.90442   0.71128   0.78590   0.00000  Uiso   1.00
N1390  N     0.76239   0.95539   0.88088   0.00000  Uiso   1.00
N1391  N     0.90525   0.95593   0.78688   0.00000  Uiso   1.00
N1392  N     0.76153   0.71073   0.87987   0.00000  Uiso   1.00
O1393  O     0.83333   0.77322   0.87291   0.00000  Uiso   1.00
O1394  O     0.71163   0.79346   0.70345   0.00000  Uiso   1.00
O1395  O     0.94728   0.87669   0.96122   0.00000  Uiso   1.00
O1396  O     0.88783   0.92780   0.95210   0.00000  Uiso   1.00
O1397  O     0.83334   0.89345   0.79375   0.00000  Uiso   1.00
O1398  O     0.83333   0.77321   0.79372   0.00000  Uiso   1.00
O1399  O     0.83334   0.89346   0.87294   0.00000  Uiso   1.00
O1400  O     0.75828   0.83334   0.86379   0.00000  Uiso   1.00
O1401  O     0.90839   0.83333   0.80288   0.00000  Uiso   1.00
O1402  O     0.75828   0.83333   0.78460   0.00000  Uiso   1.00
O1403  O     0.90839   0.83334   0.88207   0.00000  Uiso   1.00
O1404  O     0.77462   0.74520   0.71472   0.00000  Uiso   1.00
loop_
_geom_bond_atom_site_label_1
_geom_bond_atom_site_label_2
_geom_bond_distance
_geom_bond_site_symmetry_2
_ccdc_geom_bond_type
C1     C4      1.446   .     S
C1     O41     1.292   .     A
C1     O46     1.294   .     A
C2     C4      1.406   .     A
C2     N40     1.437   .     S
C2     C329    1.400   1_545 S
C3     C17     1.405   .     A
C3     C11     1.446   .     S
C3     C18     1.406   .     A
C4     C16     1.405   .     A
C5     C9      1.468   .     S
C5     N36     1.382   .     A
C5     C943    1.417   1_554 S
C6     C10     1.468   .     S
C6     N35     1.382   .     A
C6     C476    1.417   .     S
C7     N35     1.359   .     A
C7     H28     1.083   .     S
C7     C473    1.417   .     S
C8     H29     1.083   .     S
C8     N36     1.359   .     A
C8     C942    1.417   1_554 S
C9     O42     1.397   .     S
C9     O52     1.222   .     D
C10    O44     1.397   .     S
C10    O43     1.222   .     D
C11    O47     1.294   .     A
C11    O45     1.292   .     A
C12    O48     1.288   .     A
C12    C14     1.435   .     S
C12    O50     1.295   .     A
C13    O49     1.288   .     A
C13    C15     1.435   .     S
C13    O51     1.295   .     A
C14    C119    1.338   1_455 S
C14    H125    1.087   1_455 S
C15    C66     1.338   .     S
C15    H79     1.087   .     S
C16    N37     1.437   .     S
C16    C330    1.400   1_545 S
C17    N38     1.437   .     S
C17    C158    1.400   .     S
C18    N39     1.437   .     S
C18    C172    1.400   .     S
Cu19   N35     2.023   .     S
Cu19   O41     1.955   .     S
Cu19   O47     1.959   .     S
Cu19   O51     1.957   .     S
Cu19   O48     1.951   .     S
Cu19   Cu20    2.692   .     S
Cu20   O49     1.951   .     S
Cu20   O50     1.957   .     S
Cu20   N36     2.023   .     S
Cu20   O45     1.955   .     S
Cu20   O46     1.959   .     S
H21    C66     1.087   .     S
H22    N39     1.045   .     S
H23    N40     1.045   .     S
H24    N40     1.045   .     S
H25    O42     1.014   .     S
H26    O44     1.014   .     S
H27    C119    1.087   1_455 S
H30    N37     1.045   .     S
H31    N37     1.045   .     S
H32    N38     1.045   .     S
H33    N38     1.045   .     S
H34    N39     1.045   .     S
C53    C56     1.446   .     S
C53    O93     1.292   .     A
C53    O98     1.294   .     A
C54    C56     1.406   .     A
C54    N92     1.437   .     S
C54    C381    1.400   1_545 S
C55    C69     1.405   .     A
C55    C63     1.446   .     S
C55    C70     1.406   .     A
C56    C68     1.405   .     A
C57    C61     1.468   .     S
C57    N88     1.382   .     A
C57    C995    1.417   1_554 S
C58    C62     1.468   .     S
C58    N87     1.382   .     A
C58    C528    1.417   .     S
C59    N87     1.359   .     A
C59    H80     1.083   .     S
C59    C525    1.417   .     S
C60    H81     1.083   .     S
C60    N88     1.359   .     A
C60    C994    1.417   1_554 S
C61    O94     1.397   .     S
C61    O104    1.222   .     D
C62    O96     1.397   .     S
C62    O95     1.222   .     D
C63    O99     1.294   .     A
C63    O97     1.292   .     A
C64    O100    1.288   .     A
C64    C66     1.435   .     S
C64    O102    1.295   .     A
C65    O101    1.288   .     A
C65    C67     1.435   .     S
C65    O103    1.295   .     A
C67    C118    1.338   .     S
C67    H131    1.087   .     S
C68    N89     1.437   .     S
C68    C382    1.400   1_545 S
C69    N90     1.437   .     S
C69    C210    1.400   .     S
C70    N91     1.437   .     S
C70    C224    1.400   .     S
Cu71   N87     2.023   .     S
Cu71   O93     1.955   .     S
Cu71   O99     1.959   .     S
Cu71   O103    1.957   .     S
Cu71   O100    1.951   .     S
Cu71   Cu72    2.692   .     S
Cu72   O101    1.951   .     S
Cu72   O102    1.957   .     S
Cu72   N88     2.023   .     S
Cu72   O97     1.955   .     S
Cu72   O98     1.959   .     S
H73    C118    1.087   .     S
H74    N91     1.045   .     S
H75    N92     1.045   .     S
H76    N92     1.045   .     S
H77    O94     1.014   .     S
H78    O96     1.014   .     S
H82    N89     1.045   .     S
H83    N89     1.045   .     S
H84    N90     1.045   .     S
H85    N90     1.045   .     S
H86    N91     1.045   .     S
C105   C108    1.446   .     S
C105   O145    1.292   .     A
C105   O150    1.294   .     A
C106   C108    1.406   .     A
C106   N144    1.437   .     S
C106   C433    1.400   1_545 S
C107   C121    1.405   .     A
C107   C115    1.446   .     S
C107   C122    1.406   .     A
C108   C120    1.405   .     A
C109   C113    1.468   .     S
C109   N140    1.382   .     A
C109   C1047   1.417   1_554 S
C110   C114    1.468   .     S
C110   N139    1.382   .     A
C110   C580    1.417   .     S
C111   N139    1.359   .     A
C111   H132    1.083   .     S
C111   C577    1.417   .     S
C112   H133    1.083   .     S
C112   N140    1.359   .     A
C112   C1046   1.417   1_554 S
C113   O146    1.397   .     S
C113   O156    1.222   .     D
C114   O148    1.397   .     S
C114   O147    1.222   .     D
C115   O151    1.294   .     A
C115   O149    1.292   .     A
C116   O152    1.288   .     A
C116   C118    1.435   .     S
C116   O154    1.295   .     A
C117   O153    1.288   .     A
C117   C119    1.435   .     S
C117   O155    1.295   .     A
C119   C14     1.338   1_655 S
C119   H27     1.087   1_655 S
C120   N141    1.437   .     S
C120   C434    1.400   1_545 S
C121   N142    1.437   .     S
C121   C262    1.400   .     S
C122   N143    1.437   .     S
C122   C276    1.400   .     S
Cu123  N139    2.023   .     S
Cu123  O145    1.955   .     S
Cu123  O151    1.959   .     S
Cu123  O155    1.957   .     S
Cu123  O152    1.951   .     S
Cu123  Cu124   2.692   .     S
Cu124  O153    1.951   .     S
Cu124  O154    1.957   .     S
Cu124  N140    2.023   .     S
Cu124  O149    1.955   .     S
Cu124  O150    1.959   .     S
H125   C14     1.087   1_655 S
H126   N143    1.045   .     S
H127   N144    1.045   .     S
H128   N144    1.045   .     S
H129   O146    1.014   .     S
H130   O148    1.014   .     S
H134   N141    1.045   .     S
H135   N141    1.045   .     S
H136   N142    1.045   .     S
H137   N142    1.045   .     S
H138   N143    1.045   .     S
C157   C160    1.446   .     S
C157   O197    1.292   .     A
C157   O202    1.294   .     A
C158   C160    1.406   .     A
C158   N196    1.437   .     S
C159   C173    1.405   .     A
C159   C167    1.446   .     S
C159   C174    1.406   .     A
C160   C172    1.405   .     A
C161   C165    1.468   .     S
C161   N192    1.382   .     A
C161   C1099   1.417   1_554 S
C162   C166    1.468   .     S
C162   N191    1.382   .     A
C162   C632    1.417   .     S
C163   N191    1.359   .     A
C163   H184    1.083   .     S
C163   C629    1.417   .     S
C164   H185    1.083   .     S
C164   N192    1.359   .     A
C164   C1098   1.417   1_554 S
C165   O198    1.397   .     S
C165   O208    1.222   .     D
C166   O200    1.397   .     S
C166   O199    1.222   .     D
C167   O203    1.294   .     A
C167   O201    1.292   .     A
C168   O204    1.288   .     A
C168   C170    1.435   .     S
C168   O206    1.295   .     A
C169   O205    1.288   .     A
C169   C171    1.435   .     S
C169   O207    1.295   .     A
C170   C275    1.338   1_455 S
C170   H281    1.087   1_455 S
C171   C222    1.338   .     S
C171   H235    1.087   .     S
C172   N193    1.437   .     S
C173   N194    1.437   .     S
C173   C314    1.400   .     S
C174   N195    1.437   .     S
C174   C328    1.400   .     S
Cu175  N191    2.023   .     S
Cu175  O197    1.955   .     S
Cu175  O203    1.959   .     S
Cu175  O207    1.957   .     S
Cu175  O204    1.951   .     S
Cu175  Cu176   2.692   .     S
Cu176  O205    1.951   .     S
Cu176  O206    1.957   .     S
Cu176  N192    2.023   .     S
Cu176  O201    1.955   .     S
Cu176  O202    1.959   .     S
H177   C222    1.087   .     S
H178   N195    1.045   .     S
H179   N196    1.045   .     S
H180   N196    1.045   .     S
H181   O198    1.014   .     S
H182   O200    1.014   .     S
H183   C275    1.087   1_455 S
H186   N193    1.045   .     S
H187   N193    1.045   .     S
H188   N194    1.045   .     S
H189   N194    1.045   .     S
H190   N195    1.045   .     S
C209   C212    1.446   .     S
C209   O249    1.292   .     A
C209   O254    1.294   .     A
C210   C212    1.406   .     A
C210   N248    1.437   .     S
C211   C225    1.405   .     A
C211   C219    1.446   .     S
C211   C226    1.406   .     A
C212   C224    1.405   .     A
C213   C217    1.468   .     S
C213   N244    1.382   .     A
C213   C1151   1.417   1_554 S
C214   C218    1.468   .     S
C214   N243    1.382   .     A
C214   C684    1.417   .     S
C215   N243    1.359   .     A
C215   H236    1.083   .     S
C215   C681    1.417   .     S
C216   H237    1.083   .     S
C216   N244    1.359   .     A
C216   C1150   1.417   1_554 S
C217   O250    1.397   .     S
C217   O260    1.222   .     D
C218   O252    1.397   .     S
C218   O251    1.222   .     D
C219   O255    1.294   .     A
C219   O253    1.292   .     A
C220   O256    1.288   .     A
C220   C222    1.435   .     S
C220   O258    1.295   .     A
C221   O257    1.288   .     A
C221   C223    1.435   .     S
C221   O259    1.295   .     A
C223   C274    1.338   .     S
C223   H287    1.087   .     S
C224   N245    1.437   .     S
C225   N246    1.437   .     S
C225   C366    1.400   .     S
C226   N247    1.437   .     S
C226   C380    1.400   .     S
Cu227  N243    2.023   .     S
Cu227  O249    1.955   .     S
Cu227  O255    1.959   .     S
Cu227  O259    1.957   .     S
Cu227  O256    1.951   .     S
Cu227  Cu228   2.692   .     S
Cu228  O257    1.951   .     S
Cu228  O258    1.957   .     S
Cu228  N244    2.023   .     S
Cu228  O253    1.955   .     S
Cu228  O254    1.959   .     S
H229   C274    1.087   .     S
H230   N247    1.045   .     S
H231   N248    1.045   .     S
H232   N248    1.045   .     S
H233   O250    1.014   .     S
H234   O252    1.014   .     S
H238   N245    1.045   .     S
H239   N245    1.045   .     S
H240   N246    1.045   .     S
H241   N246    1.045   .     S
H242   N247    1.045   .     S
C261   C264    1.446   .     S
C261   O301    1.292   .     A
C261   O306    1.294   .     A
C262   C264    1.406   .     A
C262   N300    1.437   .     S
C263   C277    1.405   .     A
C263   C271    1.446   .     S
C263   C278    1.406   .     A
C264   C276    1.405   .     A
C265   C269    1.468   .     S
C265   N296    1.382   .     A
C265   C1203   1.417   1_554 S
C266   C270    1.468   .     S
C266   N295    1.382   .     A
C266   C736    1.417   .     S
C267   N295    1.359   .     A
C267   H288    1.083   .     S
C267   C733    1.417   .     S
C268   H289    1.083   .     S
C268   N296    1.359   .     A
C268   C1202   1.417   1_554 S
C269   O302    1.397   .     S
C269   O312    1.222   .     D
C270   O304    1.397   .     S
C270   O303    1.222   .     D
C271   O307    1.294   .     A
C271   O305    1.292   .     A
C272   O308    1.288   .     A
C272   C274    1.435   .     S
C272   O310    1.295   .     A
C273   O309    1.288   .     A
C273   C275    1.435   .     S
C273   O311    1.295   .     A
C275   C170    1.338   1_655 S
C275   H183    1.087   1_655 S
C276   N297    1.437   .     S
C277   N298    1.437   .     S
C277   C418    1.400   .     S
C278   N299    1.437   .     S
C278   C432    1.400   .     S
Cu279  N295    2.023   .     S
Cu279  O301    1.955   .     S
Cu279  O307    1.959   .     S
Cu279  O311    1.957   .     S
Cu279  O308    1.951   .     S
Cu279  Cu280   2.692   .     S
Cu280  O309    1.951   .     S
Cu280  O310    1.957   .     S
Cu280  N296    2.023   .     S
Cu280  O305    1.955   .     S
Cu280  O306    1.959   .     S
H281   C170    1.087   1_655 S
H282   N299    1.045   .     S
H283   N300    1.045   .     S
H284   N300    1.045   .     S
H285   O302    1.014   .     S
H286   O304    1.014   .     S
H290   N297    1.045   .     S
H291   N297    1.045   .     S
H292   N298    1.045   .     S
H293   N298    1.045   .     S
H294   N299    1.045   .     S
C313   C316    1.446   .     S
C313   O353    1.292   .     A
C313   O358    1.294   .     A
C314   C316    1.406   .     A
C314   N352    1.437   .     S
C315   C329    1.405   .     A
C315   C323    1.446   .     S
C315   C330    1.406   .     A
C316   C328    1.405   .     A
C317   C321    1.468   .     S
C317   N348    1.382   .     A
C317   C1255   1.417   1_554 S
C318   C322    1.468   .     S
C318   N347    1.382   .     A
C318   C788    1.417   .     S
C319   N347    1.359   .     A
C319   H340    1.083   .     S
C319   C785    1.417   .     S
C320   H341    1.083   .     S
C320   N348    1.359   .     A
C320   C1254   1.417   1_554 S
C321   O354    1.397   .     S
C321   O364    1.222   .     D
C322   O356    1.397   .     S
C322   O355    1.222   .     D
C323   O359    1.294   .     A
C323   O357    1.292   .     A
C324   O360    1.288   .     A
C324   C326    1.435   .     S
C324   O362    1.295   .     A
C325   O361    1.288   .     A
C325   C327    1.435   .     S
C325   O363    1.295   .     A
C326   C431    1.338   1_455 S
C326   H437    1.087   1_455 S
C327   C378    1.338   .     S
C327   H391    1.087   .     S
C328   N349    1.437   .     S
C329   N350    1.437   .     S
C329   C2      1.400   1_565 S
C330   N351    1.437   .     S
C330   C16     1.400   1_565 S
Cu331  N347    2.023   .     S
Cu331  O353    1.955   .     S
Cu331  O359    1.959   .     S
Cu331  O363    1.957   .     S
Cu331  O360    1.951   .     S
Cu331  Cu332   2.692   .     S
Cu332  O361    1.951   .     S
Cu332  O362    1.957   .     S
Cu332  N348    2.023   .     S
Cu332  O357    1.955   .     S
Cu332  O358    1.959   .     S
H333   C378    1.087   .     S
H334   N351    1.045   .     S
H335   N352    1.045   .     S
H336   N352    1.045   .     S
H337   O354    1.014   .     S
H338   O356    1.014   .     S
H339   C431    1.087   1_455 S
H342   N349    1.045   .     S
H343   N349    1.045   .     S
H344   N350    1.045   .     S
H345   N350    1.045   .     S
H346   N351    1.045   .     S
C365   C368    1.446   .     S
C365   O405    1.292   .     A
C365   O410    1.294   .     A
C366   C368    1.406   .     A
C366   N404    1.437   .     S
C367   C381    1.405   .     A
C367   C375    1.446   .     S
C367   C382    1.406   .     A
C368   C380    1.405   .     A
C369   C373    1.468   .     S
C369   N400    1.382   .     A
C369   C1307   1.417   1_554 S
C370   C374    1.468   .     S
C370   N399    1.382   .     A
C370   C840    1.417   .     S
C371   N399    1.359   .     A
C371   H392    1.083   .     S
C371   C837    1.417   .     S
C372   H393    1.083   .     S
C372   N400    1.359   .     A
C372   C1306   1.417   1_554 S
C373   O406    1.397   .     S
C373   O416    1.222   .     D
C374   O408    1.397   .     S
C374   O407    1.222   .     D
C375   O411    1.294   .     A
C375   O409    1.292   .     A
C376   O412    1.288   .     A
C376   C378    1.435   .     S
C376   O414    1.295   .     A
C377   O413    1.288   .     A
C377   C379    1.435   .     S
C377   O415    1.295   .     A
C379   C430    1.338   .     S
C379   H443    1.087   .     S
C380   N401    1.437   .     S
C381   N402    1.437   .     S
C381   C54     1.400   1_565 S
C382   N403    1.437   .     S
C382   C68     1.400   1_565 S
Cu383  N399    2.023   .     S
Cu383  O405    1.955   .     S
Cu383  O411    1.959   .     S
Cu383  O415    1.957   .     S
Cu383  O412    1.951   .     S
Cu383  Cu384   2.692   .     S
Cu384  O413    1.951   .     S
Cu384  O414    1.957   .     S
Cu384  N400    2.023   .     S
Cu384  O409    1.955   .     S
Cu384  O410    1.959   .     S
H385   C430    1.087   .     S
H386   N403    1.045   .     S
H387   N404    1.045   .     S
H388   N404    1.045   .     S
H389   O406    1.014   .     S
H390   O408    1.014   .     S
H394   N401    1.045   .     S
H395   N401    1.045   .     S
H396   N402    1.045   .     S
H397   N402    1.045   .     S
H398   N403    1.045   .     S
C417   C420    1.446   .     S
C417   O457    1.292   .     A
C417   O462    1.294   .     A
C418   C420    1.406   .     A
C418   N456    1.437   .     S
C419   C433    1.405   .     A
C419   C427    1.446   .     S
C419   C434    1.406   .     A
C420   C432    1.405   .     A
C421   C425    1.468   .     S
C421   N452    1.382   .     A
C421   C1359   1.417   1_554 S
C422   C426    1.468   .     S
C422   N451    1.382   .     A
C422   C892    1.417   .     S
C423   N451    1.359   .     A
C423   H444    1.083   .     S
C423   C889    1.417   .     S
C424   H445    1.083   .     S
C424   N452    1.359   .     A
C424   C1358   1.417   1_554 S
C425   O458    1.397   .     S
C425   O468    1.222   .     D
C426   O460    1.397   .     S
C426   O459    1.222   .     D
C427   O463    1.294   .     A
C427   O461    1.292   .     A
C428   O464    1.288   .     A
C428   C430    1.435   .     S
C428   O466    1.295   .     A
C429   O465    1.288   .     A
C429   C431    1.435   .     S
C429   O467    1.295   .     A
C431   C326    1.338   1_655 S
C431   H339    1.087   1_655 S
C432   N453    1.437   .     S
C433   N454    1.437   .     S
C433   C106    1.400   1_565 S
C434   N455    1.437   .     S
C434   C120    1.400   1_565 S
Cu435  N451    2.023   .     S
Cu435  O457    1.955   .     S
Cu435  O463    1.959   .     S
Cu435  O467    1.957   .     S
Cu435  O464    1.951   .     S
Cu435  Cu436   2.692   .     S
Cu436  O465    1.951   .     S
Cu436  O466    1.957   .     S
Cu436  N452    2.023   .     S
Cu436  O461    1.955   .     S
Cu436  O462    1.959   .     S
H437   C326    1.087   1_655 S
H438   N455    1.045   .     S
H439   N456    1.045   .     S
H440   N456    1.045   .     S
H441   O458    1.014   .     S
H442   O460    1.014   .     S
H446   N453    1.045   .     S
H447   N453    1.045   .     S
H448   N454    1.045   .     S
H449   N454    1.045   .     S
H450   N455    1.045   .     S
C469   C472    1.446   .     S
C469   O509    1.292   .     A
C469   O514    1.294   .     A
C470   C472    1.406   .     A
C470   N508    1.437   .     S
C470   C797    1.400   1_545 S
C471   C485    1.405   .     A
C471   C479    1.446   .     S
C471   C486    1.406   .     A
C472   C484    1.405   .     A
C473   C477    1.468   .     S
C473   N504    1.382   .     A
C474   C478    1.468   .     S
C474   N503    1.382   .     A
C474   C944    1.417   .     S
C475   N503    1.359   .     A
C475   H496    1.083   .     S
C475   C941    1.417   .     S
C476   H497    1.083   .     S
C476   N504    1.359   .     A
C477   O510    1.397   .     S
C477   O520    1.222   .     D
C478   O512    1.397   .     S
C478   O511    1.222   .     D
C479   O515    1.294   .     A
C479   O513    1.292   .     A
C480   O516    1.288   .     A
C480   C482    1.435   .     S
C480   O518    1.295   .     A
C481   O517    1.288   .     A
C481   C483    1.435   .     S
C481   O519    1.295   .     A
C482   C587    1.338   1_455 S
C482   H593    1.087   1_455 S
C483   C534    1.338   .     S
C483   H547    1.087   .     S
C484   N505    1.437   .     S
C484   C798    1.400   1_545 S
C485   N506    1.437   .     S
C485   C626    1.400   .     S
C486   N507    1.437   .     S
C486   C640    1.400   .     S
Cu487  N503    2.023   .     S
Cu487  O509    1.955   .     S
Cu487  O515    1.959   .     S
Cu487  O519    1.957   .     S
Cu487  O516    1.951   .     S
Cu487  Cu488   2.692   .     S
Cu488  O517    1.951   .     S
Cu488  O518    1.957   .     S
Cu488  N504    2.023   .     S
Cu488  O513    1.955   .     S
Cu488  O514    1.959   .     S
H489   C534    1.087   .     S
H490   N507    1.045   .     S
H491   N508    1.045   .     S
H492   N508    1.045   .     S
H493   O510    1.014   .     S
H494   O512    1.014   .     S
H495   C587    1.087   1_455 S
H498   N505    1.045   .     S
H499   N505    1.045   .     S
H500   N506    1.045   .     S
H501   N506    1.045   .     S
H502   N507    1.045   .     S
C521   C524    1.446   .     S
C521   O561    1.292   .     A
C521   O566    1.294   .     A
C522   C524    1.406   .     A
C522   N560    1.437   .     S
C522   C849    1.400   1_545 S
C523   C537    1.405   .     A
C523   C531    1.446   .     S
C523   C538    1.406   .     A
C524   C536    1.405   .     A
C525   C529    1.468   .     S
C525   N556    1.382   .     A
C526   C530    1.468   .     S
C526   N555    1.382   .     A
C526   C996    1.417   .     S
C527   N555    1.359   .     A
C527   H548    1.083   .     S
C527   C993    1.417   .     S
C528   H549    1.083   .     S
C528   N556    1.359   .     A
C529   O562    1.397   .     S
C529   O572    1.222   .     D
C530   O564    1.397   .     S
C530   O563    1.222   .     D
C531   O567    1.294   .     A
C531   O565    1.292   .     A
C532   O568    1.288   .     A
C532   C534    1.435   .     S
C532   O570    1.295   .     A
C533   O569    1.288   .     A
C533   C535    1.435   .     S
C533   O571    1.295   .     A
C535   C586    1.338   .     S
C535   H599    1.087   .     S
C536   N557    1.437   .     S
C536   C850    1.400   1_545 S
C537   N558    1.437   .     S
C537   C678    1.400   .     S
C538   N559    1.437   .     S
C538   C692    1.400   .     S
Cu539  N555    2.023   .     S
Cu539  O561    1.955   .     S
Cu539  O567    1.959   .     S
Cu539  O571    1.957   .     S
Cu539  O568    1.951   .     S
Cu539  Cu540   2.692   .     S
Cu540  O569    1.951   .     S
Cu540  O570    1.957   .     S
Cu540  N556    2.023   .     S
Cu540  O565    1.955   .     S
Cu540  O566    1.959   .     S
H541   C586    1.087   .     S
H542   N559    1.045   .     S
H543   N560    1.045   .     S
H544   N560    1.045   .     S
H545   O562    1.014   .     S
H546   O564    1.014   .     S
H550   N557    1.045   .     S
H551   N557    1.045   .     S
H552   N558    1.045   .     S
H553   N558    1.045   .     S
H554   N559    1.045   .     S
C573   C576    1.446   .     S
C573   O613    1.292   .     A
C573   O618    1.294   .     A
C574   C576    1.406   .     A
C574   N612    1.437   .     S
C574   C901    1.400   1_545 S
C575   C589    1.405   .     A
C575   C583    1.446   .     S
C575   C590    1.406   .     A
C576   C588    1.405   .     A
C577   C581    1.468   .     S
C577   N608    1.382   .     A
C578   C582    1.468   .     S
C578   N607    1.382   .     A
C578   C1048   1.417   .     S
C579   N607    1.359   .     A
C579   H600    1.083   .     S
C579   C1045   1.417   .     S
C580   H601    1.083   .     S
C580   N608    1.359   .     A
C581   O614    1.397   .     S
C581   O624    1.222   .     D
C582   O616    1.397   .     S
C582   O615    1.222   .     D
C583   O619    1.294   .     A
C583   O617    1.292   .     A
C584   O620    1.288   .     A
C584   C586    1.435   .     S
C584   O622    1.295   .     A
C585   O621    1.288   .     A
C585   C587    1.435   .     S
C585   O623    1.295   .     A
C587   C482    1.338   1_655 S
C587   H495    1.087   1_655 S
C588   N609    1.437   .     S
C588   C902    1.400   1_545 S
C589   N610    1.437   .     S
C589   C730    1.400   .     S
C590   N611    1.437   .     S
C590   C744    1.400   .     S
Cu591  N607    2.023   .     S
Cu591  O613    1.955   .     S
Cu591  O619    1.959   .     S
Cu591  O623    1.957   .     S
Cu591  O620    1.951   .     S
Cu591  Cu592   2.692   .     S
Cu592  O621    1.951   .     S
Cu592  O622    1.957   .     S
Cu592  N608    2.023   .     S
Cu592  O617    1.955   .     S
Cu592  O618    1.959   .     S
H593   C482    1.087   1_655 S
H594   N611    1.045   .     S
H595   N612    1.045   .     S
H596   N612    1.045   .     S
H597   O614    1.014   .     S
H598   O616    1.014   .     S
H602   N609    1.045   .     S
H603   N609    1.045   .     S
H604   N610    1.045   .     S
H605   N610    1.045   .     S
H606   N611    1.045   .     S
C625   C628    1.446   .     S
C625   O665    1.292   .     A
C625   O670    1.294   .     A
C626   C628    1.406   .     A
C626   N664    1.437   .     S
C627   C641    1.405   .     A
C627   C635    1.446   .     S
C627   C642    1.406   .     A
C628   C640    1.405   .     A
C629   C633    1.468   .     S
C629   N660    1.382   .     A
C630   C634    1.468   .     S
C630   N659    1.382   .     A
C630   C1100   1.417   .     S
C631   N659    1.359   .     A
C631   H652    1.083   .     S
C631   C1097   1.417   .     S
C632   H653    1.083   .     S
C632   N660    1.359   .     A
C633   O666    1.397   .     S
C633   O676    1.222   .     D
C634   O668    1.397   .     S
C634   O667    1.222   .     D
C635   O671    1.294   .     A
C635   O669    1.292   .     A
C636   O672    1.288   .     A
C636   C638    1.435   .     S
C636   O674    1.295   .     A
C637   O673    1.288   .     A
C637   C639    1.435   .     S
C637   O675    1.295   .     A
C638   C743    1.338   1_455 S
C638   H749    1.087   1_455 S
C639   C690    1.338   .     S
C639   H703    1.087   .     S
C640   N661    1.437   .     S
C641   N662    1.437   .     S
C641   C782    1.400   .     S
C642   N663    1.437   .     S
C642   C796    1.400   .     S
Cu643  N659    2.023   .     S
Cu643  O665    1.955   .     S
Cu643  O671    1.959   .     S
Cu643  O675    1.957   .     S
Cu643  O672    1.951   .     S
Cu643  Cu644   2.692   .     S
Cu644  O673    1.951   .     S
Cu644  O674    1.957   .     S
Cu644  N660    2.023   .     S
Cu644  O669    1.955   .     S
Cu644  O670    1.959   .     S
H645   C690    1.087   .     S
H646   N663    1.045   .     S
H647   N664    1.045   .     S
H648   N664    1.045   .     S
H649   O666    1.014   .     S
H650   O668    1.014   .     S
H651   C743    1.087   1_455 S
H654   N661    1.045   .     S
H655   N661    1.045   .     S
H656   N662    1.045   .     S
H657   N662    1.045   .     S
H658   N663    1.045   .     S
C677   C680    1.446   .     S
C677   O717    1.292   .     A
C677   O722    1.294   .     A
C678   C680    1.406   .     A
C678   N716    1.437   .     S
C679   C693    1.405   .     A
C679   C687    1.446   .     S
C679   C694    1.406   .     A
C680   C692    1.405   .     A
C681   C685    1.468   .     S
C681   N712    1.382   .     A
C682   C686    1.468   .     S
C682   N711    1.382   .     A
C682   C1152   1.417   .     S
C683   N711    1.359   .     A
C683   H704    1.083   .     S
C683   C1149   1.417   .     S
C684   H705    1.083   .     S
C684   N712    1.359   .     A
C685   O718    1.397   .     S
C685   O728    1.222   .     D
C686   O720    1.397   .     S
C686   O719    1.222   .     D
C687   O723    1.294   .     A
C687   O721    1.292   .     A
C688   O724    1.288   .     A
C688   C690    1.435   .     S
C688   O726    1.295   .     A
C689   O725    1.288   .     A
C689   C691    1.435   .     S
C689   O727    1.295   .     A
C691   C742    1.338   .     S
C691   H755    1.087   .     S
C692   N713    1.437   .     S
C693   N714    1.437   .     S
C693   C834    1.400   .     S
C694   N715    1.437   .     S
C694   C848    1.400   .     S
Cu695  N711    2.023   .     S
Cu695  O717    1.955   .     S
Cu695  O723    1.959   .     S
Cu695  O727    1.957   .     S
Cu695  O724    1.951   .     S
Cu695  Cu696   2.692   .     S
Cu696  O725    1.951   .     S
Cu696  O726    1.957   .     S
Cu696  N712    2.023   .     S
Cu696  O721    1.955   .     S
Cu696  O722    1.959   .     S
H697   C742    1.087   .     S
H698   N715    1.045   .     S
H699   N716    1.045   .     S
H700   N716    1.045   .     S
H701   O718    1.014   .     S
H702   O720    1.014   .     S
H706   N713    1.045   .     S
H707   N713    1.045   .     S
H708   N714    1.045   .     S
H709   N714    1.045   .     S
H710   N715    1.045   .     S
C729   C732    1.446   .     S
C729   O769    1.292   .     A
C729   O774    1.294   .     A
C730   C732    1.406   .     A
C730   N768    1.437   .     S
C731   C745    1.405   .     A
C731   C739    1.446   .     S
C731   C746    1.406   .     A
C732   C744    1.405   .     A
C733   C737    1.468   .     S
C733   N764    1.382   .     A
C734   C738    1.468   .     S
C734   N763    1.382   .     A
C734   C1204   1.417   .     S
C735   N763    1.359   .     A
C735   H756    1.083   .     S
C735   C1201   1.417   .     S
C736   H757    1.083   .     S
C736   N764    1.359   .     A
C737   O770    1.397   .     S
C737   O780    1.222   .     D
C738   O772    1.397   .     S
C738   O771    1.222   .     D
C739   O775    1.294   .     A
C739   O773    1.292   .     A
C740   O776    1.288   .     A
C740   C742    1.435   .     S
C740   O778    1.295   .     A
C741   O777    1.288   .     A
C741   C743    1.435   .     S
C741   O779    1.295   .     A
C743   C638    1.338   1_655 S
C743   H651    1.087   1_655 S
C744   N765    1.437   .     S
C745   N766    1.437   .     S
C745   C886    1.400   .     S
C746   N767    1.437   .     S
C746   C900    1.400   .     S
Cu747  N763    2.023   .     S
Cu747  O769    1.955   .     S
Cu747  O775    1.959   .     S
Cu747  O779    1.957   .     S
Cu747  O776    1.951   .     S
Cu747  Cu748   2.692   .     S
Cu748  O777    1.951   .     S
Cu748  O778    1.957   .     S
Cu748  N764    2.023   .     S
Cu748  O773    1.955   .     S
Cu748  O774    1.959   .     S
H749   C638    1.087   1_655 S
H750   N767    1.045   .     S
H751   N768    1.045   .     S
H752   N768    1.045   .     S
H753   O770    1.014   .     S
H754   O772    1.014   .     S
H758   N765    1.045   .     S
H759   N765    1.045   .     S
H760   N766    1.045   .     S
H761   N766    1.045   .     S
H762   N767    1.045   .     S
C781   C784    1.446   .     S
C781   O821    1.292   .     A
C781   O826    1.294   .     A
C782   C784    1.406   .     A
C782   N820    1.437   .     S
C783   C797    1.405   .     A
C783   C791    1.446   .     S
C783   C798    1.406   .     A
C784   C796    1.405   .     A
C785   C789    1.468   .     S
C785   N816    1.382   .     A
C786   C790    1.468   .     S
C786   N815    1.382   .     A
C786   C1256   1.417   .     S
C787   N815    1.359   .     A
C787   H808    1.083   .     S
C787   C1253   1.417   .     S
C788   H809    1.083   .     S
C788   N816    1.359   .     A
C789   O822    1.397   .     S
C789   O832    1.222   .     D
C790   O824    1.397   .     S
C790   O823    1.222   .     D
C791   O827    1.294   .     A
C791   O825    1.292   .     A
C792   O828    1.288   .     A
C792   C794    1.435   .     S
C792   O830    1.295   .     A
C793   O829    1.288   .     A
C793   C795    1.435   .     S
C793   O831    1.295   .     A
C794   C899    1.338   1_455 S
C794   H905    1.087   1_455 S
C795   C846    1.338   .     S
C795   H859    1.087   .     S
C796   N817    1.437   .     S
C797   N818    1.437   .     S
C797   C470    1.400   1_565 S
C798   N819    1.437   .     S
C798   C484    1.400   1_565 S
Cu799  N815    2.023   .     S
Cu799  O821    1.955   .     S
Cu799  O827    1.959   .     S
Cu799  O831    1.957   .     S
Cu799  O828    1.951   .     S
Cu799  Cu800   2.692   .     S
Cu800  O829    1.951   .     S
Cu800  O830    1.957   .     S
Cu800  N816    2.023   .     S
Cu800  O825    1.955   .     S
Cu800  O826    1.959   .     S
H801   C846    1.087   .     S
H802   N819    1.045   .     S
H803   N820    1.045   .     S
H804   N820    1.045   .     S
H805   O822    1.014   .     S
H806   O824    1.014   .     S
H807   C899    1.087   1_455 S
H810   N817    1.045   .     S
H811   N817    1.045   .     S
H812   N818    1.045   .     S
H813   N818    1.045   .     S
H814   N819    1.045   .     S
C833   C836    1.446   .     S
C833   O873    1.292   .     A
C833   O878    1.294   .     A
C834   C836    1.406   .     A
C834   N872    1.437   .     S
C835   C849    1.405   .     A
C835   C843    1.446   .     S
C835   C850    1.406   .     A
C836   C848    1.405   .     A
C837   C841    1.468   .     S
C837   N868    1.382   .     A
C838   C842    1.468   .     S
C838   N867    1.382   .     A
C838   C1308   1.417   .     S
C839   N867    1.359   .     A
C839   H860    1.083   .     S
C839   C1305   1.417   .     S
C840   H861    1.083   .     S
C840   N868    1.359   .     A
C841   O874    1.397   .     S
C841   O884    1.222   .     D
C842   O876    1.397   .     S
C842   O875    1.222   .     D
C843   O879    1.294   .     A
C843   O877    1.292   .     A
C844   O880    1.288   .     A
C844   C846    1.435   .     S
C844   O882    1.295   .     A
C845   O881    1.288   .     A
C845   C847    1.435   .     S
C845   O883    1.295   .     A
C847   C898    1.338   .     S
C847   H911    1.087   .     S
C848   N869    1.437   .     S
C849   N870    1.437   .     S
C849   C522    1.400   1_565 S
C850   N871    1.437   .     S
C850   C536    1.400   1_565 S
Cu851  N867    2.023   .     S
Cu851  O873    1.955   .     S
Cu851  O879    1.959   .     S
Cu851  O883    1.957   .     S
Cu851  O880    1.951   .     S
Cu851  Cu852   2.692   .     S
Cu852  O881    1.951   .     S
Cu852  O882    1.957   .     S
Cu852  N868    2.023   .     S
Cu852  O877    1.955   .     S
Cu852  O878    1.959   .     S
H853   C898    1.087   .     S
H854   N871    1.045   .     S
H855   N872    1.045   .     S
H856   N872    1.045   .     S
H857   O874    1.014   .     S
H858   O876    1.014   .     S
H862   N869    1.045   .     S
H863   N869    1.045   .     S
H864   N870    1.045   .     S
H865   N870    1.045   .     S
H866   N871    1.045   .     S
C885   C888    1.446   .     S
C885   O925    1.292   .     A
C885   O930    1.294   .     A
C886   C888    1.406   .     A
C886   N924    1.437   .     S
C887   C901    1.405   .     A
C887   C895    1.446   .     S
C887   C902    1.406   .     A
C888   C900    1.405   .     A
C889   C893    1.468   .     S
C889   N920    1.382   .     A
C890   C894    1.468   .     S
C890   N919    1.382   .     A
C890   C1360   1.417   .     S
C891   N919    1.359   .     A
C891   H912    1.083   .     S
C891   C1357   1.417   .     S
C892   H913    1.083   .     S
C892   N920    1.359   .     A
C893   O926    1.397   .     S
C893   O936    1.222   .     D
C894   O928    1.397   .     S
C894   O927    1.222   .     D
C895   O931    1.294   .     A
C895   O929    1.292   .     A
C896   O932    1.288   .     A
C896   C898    1.435   .     S
C896   O934    1.295   .     A
C897   O933    1.288   .     A
C897   C899    1.435   .     S
C897   O935    1.295   .     A
C899   C794    1.338   1_655 S
C899   H807    1.087   1_655 S
C900   N921    1.437   .     S
C901   N922    1.437   .     S
C901   C574    1.400   1_565 S
C902   N923    1.437   .     S
C902   C588    1.400   1_565 S
Cu903  N919    2.023   .     S
Cu903  O925    1.955   .     S
Cu903  O931    1.959   .     S
Cu903  O935    1.957   .     S
Cu903  O932    1.951   .     S
Cu903  Cu904   2.692   .     S
Cu904  O933    1.951   .     S
Cu904  O934    1.957   .     S
Cu904  N920    2.023   .     S
Cu904  O929    1.955   .     S
Cu904  O930    1.959   .     S
H905   C794    1.087   1_655 S
H906   N923    1.045   .     S
H907   N924    1.045   .     S
H908   N924    1.045   .     S
H909   O926    1.014   .     S
H910   O928    1.014   .     S
H914   N921    1.045   .     S
H915   N921    1.045   .     S
H916   N922    1.045   .     S
H917   N922    1.045   .     S
H918   N923    1.045   .     S
C937   C940    1.446   .     S
C937   O977    1.292   .     A
C937   O982    1.294   .     A
C938   C940    1.406   .     A
C938   N976    1.437   .     S
C938   C1265   1.400   1_545 S
C939   C953    1.405   .     A
C939   C947    1.446   .     S
C939   C954    1.406   .     A
C940   C952    1.405   .     A
C941   C945    1.468   .     S
C941   N972    1.382   .     A
C942   C946    1.468   .     S
C942   N971    1.382   .     A
C942   C8      1.417   1_556 S
C943   N971    1.359   .     A
C943   H964    1.083   .     S
C943   C5      1.417   1_556 S
C944   H965    1.083   .     S
C944   N972    1.359   .     A
C945   O978    1.397   .     S
C945   O988    1.222   .     D
C946   O980    1.397   .     S
C946   O979    1.222   .     D
C947   O983    1.294   .     A
C947   O981    1.292   .     A
C948   O984    1.288   .     A
C948   C950    1.435   .     S
C948   O986    1.295   .     A
C949   O985    1.288   .     A
C949   C951    1.435   .     S
C949   O987    1.295   .     A
C950   C1055   1.338   1_455 S
C950   H1061   1.087   1_455 S
C951   C1002   1.338   .     S
C951   H1015   1.087   .     S
C952   N973    1.437   .     S
C952   C1266   1.400   1_545 S
C953   N974    1.437   .     S
C953   C1094   1.400   .     S
C954   N975    1.437   .     S
C954   C1108   1.400   .     S
Cu955  N971    2.023   .     S
Cu955  O977    1.955   .     S
Cu955  O983    1.959   .     S
Cu955  O987    1.957   .     S
Cu955  O984    1.951   .     S
Cu955  Cu956   2.692   .     S
Cu956  O985    1.951   .     S
Cu956  O986    1.957   .     S
Cu956  N972    2.023   .     S
Cu956  O981    1.955   .     S
Cu956  O982    1.959   .     S
H957   C1002   1.087   .     S
H958   N975    1.045   .     S
H959   N976    1.045   .     S
H960   N976    1.045   .     S
H961   O978    1.014   .     S
H962   O980    1.014   .     S
H963   C1055   1.087   1_455 S
H966   N973    1.045   .     S
H967   N973    1.045   .     S
H968   N974    1.045   .     S
H969   N974    1.045   .     S
H970   N975    1.045   .     S
C989   C992    1.446   .     S
C989   O1029   1.292   .     A
C989   O1034   1.294   .     A
C990   C992    1.406   .     A
C990   N1028   1.437   .     S
C990   C1317   1.400   1_545 S
C991   C1005   1.405   .     A
C991   C999    1.446   .     S
C991   C1006   1.406   .     A
C992   C1004   1.405   .     A
C993   C997    1.468   .     S
C993   N1024   1.382   .     A
C994   C998    1.468   .     S
C994   N1023   1.382   .     A
C994   C60     1.417   1_556 S
C995   N1023   1.359   .     A
C995   H1016   1.083   .     S
C995   C57     1.417   1_556 S
C996   H1017   1.083   .     S
C996   N1024   1.359   .     A
C997   O1030   1.397   .     S
C997   O1040   1.222   .     D
C998   O1032   1.397   .     S
C998   O1031   1.222   .     D
C999   O1035   1.294   .     A
C999   O1033   1.292   .     A
C1000  O1036   1.288   .     A
C1000  C1002   1.435   .     S
C1000  O1038   1.295   .     A
C1001  O1037   1.288   .     A
C1001  C1003   1.435   .     S
C1001  O1039   1.295   .     A
C1003  C1054   1.338   .     S
C1003  H1067   1.087   .     S
C1004  N1025   1.437   .     S
C1004  C1318   1.400   1_545 S
C1005  N1026   1.437   .     S
C1005  C1146   1.400   .     S
C1006  N1027   1.437   .     S
C1006  C1160   1.400   .     S
Cu1007 N1023   2.023   .     S
Cu1007 O1029   1.955   .     S
Cu1007 O1035   1.959   .     S
Cu1007 O1039   1.957   .     S
Cu1007 O1036   1.951   .     S
Cu1007 Cu1008  2.692   .     S
Cu1008 O1037   1.951   .     S
Cu1008 O1038   1.957   .     S
Cu1008 N1024   2.023   .     S
Cu1008 O1033   1.955   .     S
Cu1008 O1034   1.959   .     S
H1009  C1054   1.087   .     S
H1010  N1027   1.045   .     S
H1011  N1028   1.045   .     S
H1012  N1028   1.045   .     S
H1013  O1030   1.014   .     S
H1014  O1032   1.014   .     S
H1018  N1025   1.045   .     S
H1019  N1025   1.045   .     S
H1020  N1026   1.045   .     S
H1021  N1026   1.045   .     S
H1022  N1027   1.045   .     S
C1041  C1044   1.446   .     S
C1041  O1081   1.292   .     A
C1041  O1086   1.294   .     A
C1042  C1044   1.406   .     A
C1042  N1080   1.437   .     S
C1042  C1369   1.400   1_545 S
C1043  C1057   1.405   .     A
C1043  C1051   1.446   .     S
C1043  C1058   1.406   .     A
C1044  C1056   1.405   .     A
C1045  C1049   1.468   .     S
C1045  N1076   1.382   .     A
C1046  C1050   1.468   .     S
C1046  N1075   1.382   .     A
C1046  C112    1.417   1_556 S
C1047  N1075   1.359   .     A
C1047  H1068   1.083   .     S
C1047  C109    1.417   1_556 S
C1048  H1069   1.083   .     S
C1048  N1076   1.359   .     A
C1049  O1082   1.397   .     S
C1049  O1092   1.222   .     D
C1050  O1084   1.397   .     S
C1050  O1083   1.222   .     D
C1051  O1087   1.294   .     A
C1051  O1085   1.292   .     A
C1052  O1088   1.288   .     A
C1052  C1054   1.435   .     S
C1052  O1090   1.295   .     A
C1053  O1089   1.288   .     A
C1053  C1055   1.435   .     S
C1053  O1091   1.295   .     A
C1055  C950    1.338   1_655 S
C1055  H963    1.087   1_655 S
C1056  N1077   1.437   .     S
C1056  C1370   1.400   1_545 S
C1057  N1078   1.437   .     S
C1057  C1198   1.400   .     S
C1058  N1079   1.437   .     S
C1058  C1212   1.400   .     S
Cu1059 N1075   2.023   .     S
Cu1059 O1081   1.955   .     S
Cu1059 O1087   1.959   .     S
Cu1059 O1091   1.957   .     S
Cu1059 O1088   1.951   .     S
Cu1059 Cu1060  2.692   .     S
Cu1060 O1089   1.951   .     S
Cu1060 O1090   1.957   .     S
Cu1060 N1076   2.023   .     S
Cu1060 O1085   1.955   .     S
Cu1060 O1086   1.959   .     S
H1061  C950    1.087   1_655 S
H1062  N1079   1.045   .     S
H1063  N1080   1.045   .     S
H1064  N1080   1.045   .     S
H1065  O1082   1.014   .     S
H1066  O1084   1.014   .     S
H1070  N1077   1.045   .     S
H1071  N1077   1.045   .     S
H1072  N1078   1.045   .     S
H1073  N1078   1.045   .     S
H1074  N1079   1.045   .     S
C1093  C1096   1.446   .     S
C1093  O1133   1.292   .     A
C1093  O1138   1.294   .     A
C1094  C1096   1.406   .     A
C1094  N1132   1.437   .     S
C1095  C1109   1.405   .     A
C1095  C1103   1.446   .     S
C1095  C1110   1.406   .     A
C1096  C1108   1.405   .     A
C1097  C1101   1.468   .     S
C1097  N1128   1.382   .     A
C1098  C1102   1.468   .     S
C1098  N1127   1.382   .     A
C1098  C164    1.417   1_556 S
C1099  N1127   1.359   .     A
C1099  H1120   1.083   .     S
C1099  C161    1.417   1_556 S
C1100  H1121   1.083   .     S
C1100  N1128   1.359   .     A
C1101  O1134   1.397   .     S
C1101  O1144   1.222   .     D
C1102  O1136   1.397   .     S
C1102  O1135   1.222   .     D
C1103  O1139   1.294   .     A
C1103  O1137   1.292   .     A
C1104  O1140   1.288   .     A
C1104  C1106   1.435   .     S
C1104  O1142   1.295   .     A
C1105  O1141   1.288   .     A
C1105  C1107   1.435   .     S
C1105  O1143   1.295   .     A
C1106  C1211   1.338   1_455 S
C1106  H1217   1.087   1_455 S
C1107  C1158   1.338   .     S
C1107  H1171   1.087   .     S
C1108  N1129   1.437   .     S
C1109  N1130   1.437   .     S
C1109  C1250   1.400   .     S
C1110  N1131   1.437   .     S
C1110  C1264   1.400   .     S
Cu1111 N1127   2.023   .     S
Cu1111 O1133   1.955   .     S
Cu1111 O1139   1.959   .     S
Cu1111 O1143   1.957   .     S
Cu1111 O1140   1.951   .     S
Cu1111 Cu1112  2.692   .     S
Cu1112 O1141   1.951   .     S
Cu1112 O1142   1.957   .     S
Cu1112 N1128   2.023   .     S
Cu1112 O1137   1.955   .     S
Cu1112 O1138   1.959   .     S
H1113  C1158   1.087   .     S
H1114  N1131   1.045   .     S
H1115  N1132   1.045   .     S
H1116  N1132   1.045   .     S
H1117  O1134   1.014   .     S
H1118  O1136   1.014   .     S
H1119  C1211   1.087   1_455 S
H1122  N1129   1.045   .     S
H1123  N1129   1.045   .     S
H1124  N1130   1.045   .     S
H1125  N1130   1.045   .     S
H1126  N1131   1.045   .     S
C1145  C1148   1.446   .     S
C1145  O1185   1.292   .     A
C1145  O1190   1.294   .     A
C1146  C1148   1.406   .     A
C1146  N1184   1.437   .     S
C1147  C1161   1.405   .     A
C1147  C1155   1.446   .     S
C1147  C1162   1.406   .     A
C1148  C1160   1.405   .     A
C1149  C1153   1.468   .     S
C1149  N1180   1.382   .     A
C1150  C1154   1.468   .     S
C1150  N1179   1.382   .     A
C1150  C216    1.417   1_556 S
C1151  N1179   1.359   .     A
C1151  H1172   1.083   .     S
C1151  C213    1.417   1_556 S
C1152  H1173   1.083   .     S
C1152  N1180   1.359   .     A
C1153  O1186   1.397   .     S
C1153  O1196   1.222   .     D
C1154  O1188   1.397   .     S
C1154  O1187   1.222   .     D
C1155  O1191   1.294   .     A
C1155  O1189   1.292   .     A
C1156  O1192   1.288   .     A
C1156  C1158   1.435   .     S
C1156  O1194   1.295   .     A
C1157  O1193   1.288   .     A
C1157  C1159   1.435   .     S
C1157  O1195   1.295   .     A
C1159  C1210   1.338   .     S
C1159  H1223   1.087   .     S
C1160  N1181   1.437   .     S
C1161  N1182   1.437   .     S
C1161  C1302   1.400   .     S
C1162  N1183   1.437   .     S
C1162  C1316   1.400   .     S
Cu1163 N1179   2.023   .     S
Cu1163 O1185   1.955   .     S
Cu1163 O1191   1.959   .     S
Cu1163 O1195   1.957   .     S
Cu1163 O1192   1.951   .     S
Cu1163 Cu1164  2.692   .     S
Cu1164 O1193   1.951   .     S
Cu1164 O1194   1.957   .     S
Cu1164 N1180   2.023   .     S
Cu1164 O1189   1.955   .     S
Cu1164 O1190   1.959   .     S
H1165  C1210   1.087   .     S
H1166  N1183   1.045   .     S
H1167  N1184   1.045   .     S
H1168  N1184   1.045   .     S
H1169  O1186   1.014   .     S
H1170  O1188   1.014   .     S
H1174  N1181   1.045   .     S
H1175  N1181   1.045   .     S
H1176  N1182   1.045   .     S
H1177  N1182   1.045   .     S
H1178  N1183   1.045   .     S
C1197  C1200   1.446   .     S
C1197  O1237   1.292   .     A
C1197  O1242   1.294   .     A
C1198  C1200   1.406   .     A
C1198  N1236   1.437   .     S
C1199  C1213   1.405   .     A
C1199  C1207   1.446   .     S
C1199  C1214   1.406   .     A
C1200  C1212   1.405   .     A
C1201  C1205   1.468   .     S
C1201  N1232   1.382   .     A
C1202  C1206   1.468   .     S
C1202  N1231   1.382   .     A
C1202  C268    1.417   1_556 S
C1203  N1231   1.359   .     A
C1203  H1224   1.083   .     S
C1203  C265    1.417   1_556 S
C1204  H1225   1.083   .     S
C1204  N1232   1.359   .     A
C1205  O1238   1.397   .     S
C1205  O1248   1.222   .     D
C1206  O1240   1.397   .     S
C1206  O1239   1.222   .     D
C1207  O1243   1.294   .     A
C1207  O1241   1.292   .     A
C1208  O1244   1.288   .     A
C1208  C1210   1.435   .     S
C1208  O1246   1.295   .     A
C1209  O1245   1.288   .     A
C1209  C1211   1.435   .     S
C1209  O1247   1.295   .     A
C1211  C1106   1.338   1_655 S
C1211  H1119   1.087   1_655 S
C1212  N1233   1.437   .     S
C1213  N1234   1.437   .     S
C1213  C1354   1.400   .     S
C1214  N1235   1.437   .     S
C1214  C1368   1.400   .     S
Cu1215 N1231   2.023   .     S
Cu1215 O1237   1.955   .     S
Cu1215 O1243   1.959   .     S
Cu1215 O1247   1.957   .     S
Cu1215 O1244   1.951   .     S
Cu1215 Cu1216  2.692   .     S
Cu1216 O1245   1.951   .     S
Cu1216 O1246   1.957   .     S
Cu1216 N1232   2.023   .     S
Cu1216 O1241   1.955   .     S
Cu1216 O1242   1.959   .     S
H1217  C1106   1.087   1_655 S
H1218  N1235   1.045   .     S
H1219  N1236   1.045   .     S
H1220  N1236   1.045   .     S
H1221  O1238   1.014   .     S
H1222  O1240   1.014   .     S
H1226  N1233   1.045   .     S
H1227  N1233   1.045   .     S
H1228  N1234   1.045   .     S
H1229  N1234   1.045   .     S
H1230  N1235   1.045   .     S
C1249  C1252   1.446   .     S
C1249  O1289   1.292   .     A
C1249  O1294   1.294   .     A
C1250  C1252   1.406   .     A
C1250  N1288   1.437   .     S
C1251  C1265   1.405   .     A
C1251  C1259   1.446   .     S
C1251  C1266   1.406   .     A
C1252  C1264   1.405   .     A
C1253  C1257   1.468   .     S
C1253  N1284   1.382   .     A
C1254  C1258   1.468   .     S
C1254  N1283   1.382   .     A
C1254  C320    1.417   1_556 S
C1255  N1283   1.359   .     A
C1255  H1276   1.083   .     S
C1255  C317    1.417   1_556 S
C1256  H1277   1.083   .     S
C1256  N1284   1.359   .     A
C1257  O1290   1.397   .     S
C1257  O1300   1.222   .     D
C1258  O1292   1.397   .     S
C1258  O1291   1.222   .     D
C1259  O1295   1.294   .     A
C1259  O1293   1.292   .     A
C1260  O1296   1.288   .     A
C1260  C1262   1.435   .     S
C1260  O1298   1.295   .     A
C1261  O1297   1.288   .     A
C1261  C1263   1.435   .     S
C1261  O1299   1.295   .     A
C1262  C1367   1.338   1_455 S
C1262  H1373   1.087   1_455 S
C1263  C1314   1.338   .     S
C1263  H1327   1.087   .     S
C1264  N1285   1.437   .     S
C1265  N1286   1.437   .     S
C1265  C938    1.400   1_565 S
C1266  N1287   1.437   .     S
C1266  C952    1.400   1_565 S
Cu1267 N1283   2.023   .     S
Cu1267 O1289   1.955   .     S
Cu1267 O1295   1.959   .     S
Cu1267 O1299   1.957   .     S
Cu1267 O1296   1.951   .     S
Cu1267 Cu1268  2.692   .     S
Cu1268 O1297   1.951   .     S
Cu1268 O1298   1.957   .     S
Cu1268 N1284   2.023   .     S
Cu1268 O1293   1.955   .     S
Cu1268 O1294   1.959   .     S
H1269  C1314   1.087   .     S
H1270  N1287   1.045   .     S
H1271  N1288   1.045   .     S
H1272  N1288   1.045   .     S
H1273  O1290   1.014   .     S
H1274  O1292   1.014   .     S
H1275  C1367   1.087   1_455 S
H1278  N1285   1.045   .     S
H1279  N1285   1.045   .     S
H1280  N1286   1.045   .     S
H1281  N1286   1.045   .     S
H1282  N1287   1.045   .     S
C1301  C1304   1.446   .     S
C1301  O1341   1.292   .     A
C1301  O1346   1.294   .     A
C1302  C1304   1.406   .     A
C1302  N1340   1.437   .     S
C1303  C1317   1.405   .     A
C1303  C1311   1.446   .     S
C1303  C1318   1.406   .     A
C1304  C1316   1.405   .     A
C1305  C1309   1.468   .     S
C1305  N1336   1.382   .     A
C1306  C1310   1.468   .     S
C1306  N1335   1.382   .     A
C1306  C372    1.417   1_556 S
C1307  N1335   1.359   .     A
C1307  H1328   1.083   .     S
C1307  C369    1.417   1_556 S
C1308  H1329   1.083   .     S
C1308  N1336   1.359   .     A
C1309  O1342   1.397   .     S
C1309  O1352   1.222   .     D
C1310  O1344   1.397   .     S
C1310  O1343   1.222   .     D
C1311  O1347   1.294   .     A
C1311  O1345   1.292   .     A
C1312  O1348   1.288   .     A
C1312  C1314   1.435   .     S
C1312  O1350   1.295   .     A
C1313  O1349   1.288   .     A
C1313  C1315   1.435   .     S
C1313  O1351   1.295   .     A
C1315  C1366   1.338   .     S
C1315  H1379   1.087   .     S
C1316  N1337   1.437   .     S
C1317  N1338   1.437   .     S
C1317  C990    1.400   1_565 S
C1318  N1339   1.437   .     S
C1318  C1004   1.400   1_565 S
Cu1319 N1335   2.023   .     S
Cu1319 O1341   1.955   .     S
Cu1319 O1347   1.959   .     S
Cu1319 O1351   1.957   .     S
Cu1319 O1348   1.951   .     S
Cu1319 Cu1320  2.692   .     S
Cu1320 O1349   1.951   .     S
Cu1320 O1350   1.957   .     S
Cu1320 N1336   2.023   .     S
Cu1320 O1345   1.955   .     S
Cu1320 O1346   1.959   .     S
H1321  C1366   1.087   .     S
H1322  N1339   1.045   .     S
H1323  N1340   1.045   .     S
H1324  N1340   1.045   .     S
H1325  O1342   1.014   .     S
H1326  O1344   1.014   .     S
H1330  N1337   1.045   .     S
H1331  N1337   1.045   .     S
H1332  N1338   1.045   .     S
H1333  N1338   1.045   .     S
H1334  N1339   1.045   .     S
C1353  C1356   1.446   .     S
C1353  O1393   1.292   .     A
C1353  O1398   1.294   .     A
C1354  C1356   1.406   .     A
C1354  N1392   1.437   .     S
C1355  C1369   1.405   .     A
C1355  C1363   1.446   .     S
C1355  C1370   1.406   .     A
C1356  C1368   1.405   .     A
C1357  C1361   1.468   .     S
C1357  N1388   1.382   .     A
C1358  C1362   1.468   .     S
C1358  N1387   1.382   .     A
C1358  C424    1.417   1_556 S
C1359  N1387   1.359   .     A
C1359  H1380   1.083   .     S
C1359  C421    1.417   1_556 S
C1360  H1381   1.083   .     S
C1360  N1388   1.359   .     A
C1361  O1394   1.397   .     S
C1361  O1404   1.222   .     D
C1362  O1396   1.397   .     S
C1362  O1395   1.222   .     D
C1363  O1399   1.294   .     A
C1363  O1397   1.292   .     A
C1364  O1400   1.288   .     A
C1364  C1366   1.435   .     S
C1364  O1402   1.295   .     A
C1365  O1401   1.288   .     A
C1365  C1367   1.435   .     S
C1365  O1403   1.295   .     A
C1367  C1262   1.338   1_655 S
C1367  H1275   1.087   1_655 S
C1368  N1389   1.437   .     S
C1369  N1390   1.437   .     S
C1369  C1042   1.400   1_565 S
C1370  N1391   1.437   .     S
C1370  C1056   1.400   1_565 S
Cu1371 N1387   2.023   .     S
Cu1371 O1393   1.955   .     S
Cu1371 O1399   1.959   .     S
Cu1371 O1403   1.957   .     S
Cu1371 O1400   1.951   .     S
Cu1371 Cu1372  2.692   .     S
Cu1372 O1401   1.951   .     S
Cu1372 O1402   1.957   .     S
Cu1372 N1388   2.023   .     S
Cu1372 O1397   1.955   .     S
Cu1372 O1398   1.959   .     S
H1373  C1262   1.087   1_655 S
H1374  N1391   1.045   .     S
H1375  N1392   1.045   .     S
H1376  N1392   1.045   .     S
H1377  O1394   1.014   .     S
H1378  O1396   1.014   .     S
H1382  N1389   1.045   .     S
H1383  N1389   1.045   .     S
H1384  N1390   1.045   .     S
H1385  N1390   1.045   .     S
H1386  N1391   1.045   .     S
