data_str_m2_o2_o10_pcu_sym.184
_audit_creation_date              2020-01-03
_audit_creation_method            'Materials Studio'
_symmetry_space_group_name_H-M    'P1'
_symmetry_Int_Tables_number       1
_symmetry_cell_setting            triclinic
loop_
_symmetry_equiv_pos_as_xyz
  x,y,z
_cell_length_a                    26.1905
_cell_length_b                    30.1714
_cell_length_c                    27.6608
_cell_angle_alpha                 89.4469
_cell_angle_beta                  97.9619
_cell_angle_gamma                 90.0556
loop_
_atom_site_label
_atom_site_type_symbol
_atom_site_fract_x
_atom_site_fract_y
_atom_site_fract_z
_atom_site_U_iso_or_equiv
_atom_site_adp_type
_atom_site_occupancy
C1     C     0.16554   0.16492   0.25011   0.00000  Uiso   1.00
C2     C     0.16546   0.33510   0.24958   0.00000  Uiso   1.00
C3     C     0.12856   0.27398   0.04868   0.00000  Uiso   1.00
C4     C     0.12884   0.22575   0.44137   0.00000  Uiso   1.00
C5     C     0.12981   0.27329   0.09982   0.00000  Uiso   1.00
C6     C     0.13009   0.22641   0.39056   0.00000  Uiso   1.00
C7     C     0.20332   0.22707   0.10928   0.00000  Uiso   1.00
C8     C     0.20304   0.27323   0.40028   0.00000  Uiso   1.00
C9     C     0.20377   0.22704   0.05839   0.00000  Uiso   1.00
C10    C     0.20350   0.27330   0.45129   0.00000  Uiso   1.00
C11    C     0.16594   0.25035   0.02713   0.00000  Uiso   1.00
C12    C     0.16594   0.24969   0.47267   0.00000  Uiso   1.00
C13    C     0.06786   0.24997   0.23753   0.00000  Uiso   1.00
C14    C     0.26547   0.24995   0.26247   0.00000  Uiso   1.00
C15    C     0.01261   0.24994   0.23063   0.00000  Uiso   1.00
C16    C     0.32073   0.24985   0.26938   0.00000  Uiso   1.00
C17    C     0.13027   0.04684   0.27794   0.00000  Uiso   1.00
C18    C     0.13182   0.45342   0.21160   0.00000  Uiso   1.00
C19    C     0.13041   0.09337   0.27790   0.00000  Uiso   1.00
C20    C     0.13186   0.40689   0.21155   0.00000  Uiso   1.00
C21    C     0.16373   0.11660   0.25059   0.00000  Uiso   1.00
C22    C     0.16367   0.38348   0.24866   0.00000  Uiso   1.00
C23    C     0.19586   0.09346   0.22320   0.00000  Uiso   1.00
C24    C     0.19426   0.40653   0.28567   0.00000  Uiso   1.00
C25    C     0.19586   0.04749   0.22344   0.00000  Uiso   1.00
C26    C     0.19426   0.45250   0.28561   0.00000  Uiso   1.00
C27    C     0.16329   0.02419   0.25058   0.00000  Uiso   1.00
C28    C     0.16326   0.47593   0.24886   0.00000  Uiso   1.00
Cu29   Cu    0.16667   0.24999   0.29822   0.00000  Uiso   1.00
Cu30   Cu    0.16667   0.25000   0.20179   0.00000  Uiso   1.00
H31    H     0.32594   0.25003   0.19346   0.00000  Uiso   1.00
H32    H     0.00741   0.24972   0.30655   0.00000  Uiso   1.00
H33    H     0.22146   0.11105   0.20207   0.00000  Uiso   1.00
H34    H     0.21869   0.38887   0.31435   0.00000  Uiso   1.00
H35    H     0.22105   0.02995   0.20221   0.00000  Uiso   1.00
H36    H     0.21825   0.46994   0.31438   0.00000  Uiso   1.00
H37    H     0.10109   0.29156   0.11600   0.00000  Uiso   1.00
H38    H     0.10161   0.20786   0.36690   0.00000  Uiso   1.00
H39    H     0.23242   0.20857   0.13271   0.00000  Uiso   1.00
H40    H     0.23193   0.29194   0.38442   0.00000  Uiso   1.00
H41    H     0.23325   0.20852   0.04345   0.00000  Uiso   1.00
H42    H     0.23277   0.29206   0.47392   0.00000  Uiso   1.00
N43    N     0.16667   0.25001   0.12935   0.00000  Uiso   1.00
N44    N     0.16667   0.24999   0.37066   0.00000  Uiso   1.00
O45    O     0.16667   0.18572   0.29072   0.00000  Uiso   1.00
O46    O     0.16666   0.31427   0.20929   0.00000  Uiso   1.00
O47    O     0.16667   0.18573   0.20928   0.00000  Uiso   1.00
O48    O     0.16666   0.31427   0.29072   0.00000  Uiso   1.00
O49    O     0.09161   0.24999   0.28132   0.00000  Uiso   1.00
O50    O     0.24172   0.25000   0.21868   0.00000  Uiso   1.00
O51    O     0.09161   0.25000   0.19989   0.00000  Uiso   1.00
O52    O     0.24172   0.25000   0.30012   0.00000  Uiso   1.00
I53    I     0.07942   0.01064   0.31794   0.00000  Uiso   1.00
I54    I     0.08350   0.48987   0.15645   0.00000  Uiso   1.00
Cl55   Cl    0.08666   0.12218   0.30953   0.00000  Uiso   1.00
Cl56   Cl    0.08974   0.37839   0.16683   0.00000  Uiso   1.00
Cl57   Cl    0.08058   0.30546   0.01300   0.00000  Uiso   1.00
Cl58   Cl    0.08123   0.19389   0.46452   0.00000  Uiso   1.00
C59    C     0.49887   0.16492   0.25011   0.00000  Uiso   1.00
C60    C     0.49879   0.33510   0.24958   0.00000  Uiso   1.00
C61    C     0.46190   0.27398   0.04868   0.00000  Uiso   1.00
C62    C     0.46218   0.22575   0.44137   0.00000  Uiso   1.00
C63    C     0.46314   0.27329   0.09982   0.00000  Uiso   1.00
C64    C     0.46342   0.22641   0.39056   0.00000  Uiso   1.00
C65    C     0.53665   0.22707   0.10928   0.00000  Uiso   1.00
C66    C     0.53638   0.27323   0.40028   0.00000  Uiso   1.00
C67    C     0.53711   0.22704   0.05839   0.00000  Uiso   1.00
C68    C     0.53683   0.27330   0.45129   0.00000  Uiso   1.00
C69    C     0.49927   0.25035   0.02713   0.00000  Uiso   1.00
C70    C     0.49927   0.24969   0.47267   0.00000  Uiso   1.00
C71    C     0.40120   0.24997   0.23753   0.00000  Uiso   1.00
C72    C     0.59881   0.24995   0.26247   0.00000  Uiso   1.00
C73    C     0.34595   0.24994   0.23063   0.00000  Uiso   1.00
C74    C     0.65406   0.24985   0.26938   0.00000  Uiso   1.00
C75    C     0.46361   0.04684   0.27794   0.00000  Uiso   1.00
C76    C     0.46515   0.45342   0.21160   0.00000  Uiso   1.00
C77    C     0.46375   0.09337   0.27790   0.00000  Uiso   1.00
C78    C     0.46520   0.40689   0.21155   0.00000  Uiso   1.00
C79    C     0.49707   0.11660   0.25059   0.00000  Uiso   1.00
C80    C     0.49700   0.38348   0.24866   0.00000  Uiso   1.00
C81    C     0.52920   0.09346   0.22320   0.00000  Uiso   1.00
C82    C     0.52760   0.40653   0.28567   0.00000  Uiso   1.00
C83    C     0.52920   0.04749   0.22344   0.00000  Uiso   1.00
C84    C     0.52759   0.45250   0.28561   0.00000  Uiso   1.00
C85    C     0.49662   0.02419   0.25058   0.00000  Uiso   1.00
C86    C     0.49659   0.47593   0.24886   0.00000  Uiso   1.00
Cu87   Cu    0.50000   0.24999   0.29822   0.00000  Uiso   1.00
Cu88   Cu    0.50000   0.25000   0.20179   0.00000  Uiso   1.00
H89    H     0.65928   0.25003   0.19346   0.00000  Uiso   1.00
H90    H     0.34074   0.24972   0.30655   0.00000  Uiso   1.00
H91    H     0.55479   0.11105   0.20207   0.00000  Uiso   1.00
H92    H     0.55202   0.38887   0.31435   0.00000  Uiso   1.00
H93    H     0.55438   0.02995   0.20221   0.00000  Uiso   1.00
H94    H     0.55159   0.46994   0.31438   0.00000  Uiso   1.00
H95    H     0.43442   0.29156   0.11600   0.00000  Uiso   1.00
H96    H     0.43494   0.20786   0.36690   0.00000  Uiso   1.00
H97    H     0.56576   0.20857   0.13271   0.00000  Uiso   1.00
H98    H     0.56526   0.29194   0.38442   0.00000  Uiso   1.00
H99    H     0.56659   0.20852   0.04345   0.00000  Uiso   1.00
H100   H     0.56610   0.29206   0.47392   0.00000  Uiso   1.00
N101   N     0.50000   0.25001   0.12935   0.00000  Uiso   1.00
N102   N     0.50000   0.24999   0.37066   0.00000  Uiso   1.00
O103   O     0.50000   0.18572   0.29072   0.00000  Uiso   1.00
O104   O     0.50000   0.31427   0.20929   0.00000  Uiso   1.00
O105   O     0.50000   0.18573   0.20928   0.00000  Uiso   1.00
O106   O     0.50000   0.31427   0.29072   0.00000  Uiso   1.00
O107   O     0.42495   0.24999   0.28132   0.00000  Uiso   1.00
O108   O     0.57505   0.25000   0.21868   0.00000  Uiso   1.00
O109   O     0.42495   0.25000   0.19989   0.00000  Uiso   1.00
O110   O     0.57505   0.25000   0.30012   0.00000  Uiso   1.00
I111   I     0.41276   0.01064   0.31794   0.00000  Uiso   1.00
I112   I     0.41683   0.48987   0.15645   0.00000  Uiso   1.00
Cl113  Cl    0.41999   0.12218   0.30953   0.00000  Uiso   1.00
Cl114  Cl    0.42307   0.37839   0.16683   0.00000  Uiso   1.00
Cl115  Cl    0.41391   0.30546   0.01300   0.00000  Uiso   1.00
Cl116  Cl    0.41456   0.19389   0.46452   0.00000  Uiso   1.00
C117   C     0.83220   0.16492   0.25011   0.00000  Uiso   1.00
C118   C     0.83213   0.33510   0.24958   0.00000  Uiso   1.00
C119   C     0.79523   0.27398   0.04868   0.00000  Uiso   1.00
C120   C     0.79551   0.22575   0.44137   0.00000  Uiso   1.00
C121   C     0.79647   0.27329   0.09982   0.00000  Uiso   1.00
C122   C     0.79676   0.22641   0.39056   0.00000  Uiso   1.00
C123   C     0.86998   0.22707   0.10928   0.00000  Uiso   1.00
C124   C     0.86971   0.27323   0.40028   0.00000  Uiso   1.00
C125   C     0.87044   0.22704   0.05839   0.00000  Uiso   1.00
C126   C     0.87016   0.27330   0.45129   0.00000  Uiso   1.00
C127   C     0.83261   0.25035   0.02713   0.00000  Uiso   1.00
C128   C     0.83260   0.24969   0.47267   0.00000  Uiso   1.00
C129   C     0.73453   0.24997   0.23753   0.00000  Uiso   1.00
C130   C     0.93214   0.24995   0.26247   0.00000  Uiso   1.00
C131   C     0.67928   0.24994   0.23063   0.00000  Uiso   1.00
C132   C     0.98740   0.24985   0.26938   0.00000  Uiso   1.00
C133   C     0.79694   0.04684   0.27794   0.00000  Uiso   1.00
C134   C     0.79848   0.45342   0.21160   0.00000  Uiso   1.00
C135   C     0.79708   0.09337   0.27790   0.00000  Uiso   1.00
C136   C     0.79853   0.40689   0.21155   0.00000  Uiso   1.00
C137   C     0.83040   0.11660   0.25059   0.00000  Uiso   1.00
C138   C     0.83034   0.38348   0.24866   0.00000  Uiso   1.00
C139   C     0.86253   0.09346   0.22320   0.00000  Uiso   1.00
C140   C     0.86093   0.40653   0.28567   0.00000  Uiso   1.00
C141   C     0.86253   0.04749   0.22344   0.00000  Uiso   1.00
C142   C     0.86092   0.45250   0.28561   0.00000  Uiso   1.00
C143   C     0.82996   0.02419   0.25058   0.00000  Uiso   1.00
C144   C     0.82992   0.47593   0.24886   0.00000  Uiso   1.00
Cu145  Cu    0.83333   0.24999   0.29822   0.00000  Uiso   1.00
Cu146  Cu    0.83333   0.25000   0.20179   0.00000  Uiso   1.00
H147   H     0.99261   0.25003   0.19346   0.00000  Uiso   1.00
H148   H     0.67407   0.24972   0.30655   0.00000  Uiso   1.00
H149   H     0.88812   0.11105   0.20207   0.00000  Uiso   1.00
H150   H     0.88536   0.38887   0.31435   0.00000  Uiso   1.00
H151   H     0.88771   0.02995   0.20221   0.00000  Uiso   1.00
H152   H     0.88492   0.46994   0.31438   0.00000  Uiso   1.00
H153   H     0.76775   0.29156   0.11600   0.00000  Uiso   1.00
H154   H     0.76828   0.20786   0.36690   0.00000  Uiso   1.00
H155   H     0.89909   0.20857   0.13271   0.00000  Uiso   1.00
H156   H     0.89860   0.29194   0.38442   0.00000  Uiso   1.00
H157   H     0.89992   0.20852   0.04345   0.00000  Uiso   1.00
H158   H     0.89943   0.29206   0.47392   0.00000  Uiso   1.00
N159   N     0.83333   0.25001   0.12935   0.00000  Uiso   1.00
N160   N     0.83333   0.24999   0.37066   0.00000  Uiso   1.00
O161   O     0.83334   0.18572   0.29072   0.00000  Uiso   1.00
O162   O     0.83333   0.31427   0.20929   0.00000  Uiso   1.00
O163   O     0.83334   0.18573   0.20928   0.00000  Uiso   1.00
O164   O     0.83333   0.31427   0.29072   0.00000  Uiso   1.00
O165   O     0.75828   0.24999   0.28132   0.00000  Uiso   1.00
O166   O     0.90839   0.25000   0.21868   0.00000  Uiso   1.00
O167   O     0.75828   0.25000   0.19989   0.00000  Uiso   1.00
O168   O     0.90839   0.25000   0.30012   0.00000  Uiso   1.00
I169   I     0.74609   0.01064   0.31794   0.00000  Uiso   1.00
I170   I     0.75017   0.48987   0.15645   0.00000  Uiso   1.00
Cl171  Cl    0.75333   0.12218   0.30953   0.00000  Uiso   1.00
Cl172  Cl    0.75640   0.37839   0.16683   0.00000  Uiso   1.00
Cl173  Cl    0.74725   0.30546   0.01300   0.00000  Uiso   1.00
Cl174  Cl    0.74789   0.19389   0.46452   0.00000  Uiso   1.00
C175   C     0.16554   0.66492   0.25011   0.00000  Uiso   1.00
C176   C     0.16546   0.83510   0.24958   0.00000  Uiso   1.00
C177   C     0.12856   0.77398   0.04868   0.00000  Uiso   1.00
C178   C     0.12884   0.72575   0.44137   0.00000  Uiso   1.00
C179   C     0.12981   0.77329   0.09982   0.00000  Uiso   1.00
C180   C     0.13009   0.72641   0.39056   0.00000  Uiso   1.00
C181   C     0.20332   0.72707   0.10928   0.00000  Uiso   1.00
C182   C     0.20304   0.77323   0.40028   0.00000  Uiso   1.00
C183   C     0.20377   0.72704   0.05839   0.00000  Uiso   1.00
C184   C     0.20350   0.77330   0.45129   0.00000  Uiso   1.00
C185   C     0.16594   0.75035   0.02713   0.00000  Uiso   1.00
C186   C     0.16594   0.74969   0.47267   0.00000  Uiso   1.00
C187   C     0.06786   0.74997   0.23753   0.00000  Uiso   1.00
C188   C     0.26547   0.74995   0.26247   0.00000  Uiso   1.00
C189   C     0.01261   0.74994   0.23063   0.00000  Uiso   1.00
C190   C     0.32073   0.74985   0.26938   0.00000  Uiso   1.00
C191   C     0.13027   0.54684   0.27794   0.00000  Uiso   1.00
C192   C     0.13182   0.95342   0.21160   0.00000  Uiso   1.00
C193   C     0.13041   0.59337   0.27790   0.00000  Uiso   1.00
C194   C     0.13186   0.90689   0.21155   0.00000  Uiso   1.00
C195   C     0.16373   0.61660   0.25059   0.00000  Uiso   1.00
C196   C     0.16367   0.88348   0.24866   0.00000  Uiso   1.00
C197   C     0.19586   0.59346   0.22320   0.00000  Uiso   1.00
C198   C     0.19426   0.90653   0.28567   0.00000  Uiso   1.00
C199   C     0.19586   0.54749   0.22344   0.00000  Uiso   1.00
C200   C     0.19426   0.95250   0.28561   0.00000  Uiso   1.00
C201   C     0.16329   0.52419   0.25058   0.00000  Uiso   1.00
C202   C     0.16326   0.97593   0.24886   0.00000  Uiso   1.00
Cu203  Cu    0.16667   0.74999   0.29822   0.00000  Uiso   1.00
Cu204  Cu    0.16667   0.75000   0.20179   0.00000  Uiso   1.00
H205   H     0.32594   0.75003   0.19346   0.00000  Uiso   1.00
H206   H     0.00741   0.74972   0.30655   0.00000  Uiso   1.00
H207   H     0.22146   0.61105   0.20207   0.00000  Uiso   1.00
H208   H     0.21869   0.88887   0.31435   0.00000  Uiso   1.00
H209   H     0.22105   0.52995   0.20221   0.00000  Uiso   1.00
H210   H     0.21825   0.96994   0.31438   0.00000  Uiso   1.00
H211   H     0.10109   0.79156   0.11600   0.00000  Uiso   1.00
H212   H     0.10161   0.70786   0.36690   0.00000  Uiso   1.00
H213   H     0.23242   0.70857   0.13271   0.00000  Uiso   1.00
H214   H     0.23193   0.79194   0.38442   0.00000  Uiso   1.00
H215   H     0.23325   0.70852   0.04345   0.00000  Uiso   1.00
H216   H     0.23277   0.79206   0.47392   0.00000  Uiso   1.00
N217   N     0.16667   0.75001   0.12935   0.00000  Uiso   1.00
N218   N     0.16667   0.74999   0.37066   0.00000  Uiso   1.00
O219   O     0.16667   0.68572   0.29072   0.00000  Uiso   1.00
O220   O     0.16666   0.81427   0.20929   0.00000  Uiso   1.00
O221   O     0.16667   0.68573   0.20928   0.00000  Uiso   1.00
O222   O     0.16666   0.81427   0.29072   0.00000  Uiso   1.00
O223   O     0.09161   0.74999   0.28132   0.00000  Uiso   1.00
O224   O     0.24172   0.75000   0.21868   0.00000  Uiso   1.00
O225   O     0.09161   0.75000   0.19989   0.00000  Uiso   1.00
O226   O     0.24172   0.75000   0.30012   0.00000  Uiso   1.00
I227   I     0.07942   0.51064   0.31794   0.00000  Uiso   1.00
I228   I     0.08350   0.98987   0.15645   0.00000  Uiso   1.00
Cl229  Cl    0.08666   0.62218   0.30953   0.00000  Uiso   1.00
Cl230  Cl    0.08974   0.87839   0.16683   0.00000  Uiso   1.00
Cl231  Cl    0.08058   0.80546   0.01300   0.00000  Uiso   1.00
Cl232  Cl    0.08123   0.69389   0.46452   0.00000  Uiso   1.00
C233   C     0.49887   0.66492   0.25011   0.00000  Uiso   1.00
C234   C     0.49879   0.83510   0.24958   0.00000  Uiso   1.00
C235   C     0.46190   0.77398   0.04868   0.00000  Uiso   1.00
C236   C     0.46218   0.72575   0.44137   0.00000  Uiso   1.00
C237   C     0.46314   0.77329   0.09982   0.00000  Uiso   1.00
C238   C     0.46342   0.72641   0.39056   0.00000  Uiso   1.00
C239   C     0.53665   0.72707   0.10928   0.00000  Uiso   1.00
C240   C     0.53638   0.77323   0.40028   0.00000  Uiso   1.00
C241   C     0.53711   0.72704   0.05839   0.00000  Uiso   1.00
C242   C     0.53683   0.77330   0.45129   0.00000  Uiso   1.00
C243   C     0.49927   0.75035   0.02713   0.00000  Uiso   1.00
C244   C     0.49927   0.74969   0.47267   0.00000  Uiso   1.00
C245   C     0.40120   0.74997   0.23753   0.00000  Uiso   1.00
C246   C     0.59881   0.74995   0.26247   0.00000  Uiso   1.00
C247   C     0.34595   0.74994   0.23063   0.00000  Uiso   1.00
C248   C     0.65406   0.74985   0.26938   0.00000  Uiso   1.00
C249   C     0.46361   0.54684   0.27794   0.00000  Uiso   1.00
C250   C     0.46515   0.95342   0.21160   0.00000  Uiso   1.00
C251   C     0.46375   0.59337   0.27790   0.00000  Uiso   1.00
C252   C     0.46520   0.90689   0.21155   0.00000  Uiso   1.00
C253   C     0.49707   0.61660   0.25059   0.00000  Uiso   1.00
C254   C     0.49700   0.88348   0.24866   0.00000  Uiso   1.00
C255   C     0.52920   0.59346   0.22320   0.00000  Uiso   1.00
C256   C     0.52760   0.90653   0.28567   0.00000  Uiso   1.00
C257   C     0.52920   0.54749   0.22344   0.00000  Uiso   1.00
C258   C     0.52759   0.95250   0.28561   0.00000  Uiso   1.00
C259   C     0.49662   0.52419   0.25058   0.00000  Uiso   1.00
C260   C     0.49659   0.97593   0.24886   0.00000  Uiso   1.00
Cu261  Cu    0.50000   0.74999   0.29822   0.00000  Uiso   1.00
Cu262  Cu    0.50000   0.75000   0.20179   0.00000  Uiso   1.00
H263   H     0.65928   0.75003   0.19346   0.00000  Uiso   1.00
H264   H     0.34074   0.74972   0.30655   0.00000  Uiso   1.00
H265   H     0.55479   0.61105   0.20207   0.00000  Uiso   1.00
H266   H     0.55202   0.88887   0.31435   0.00000  Uiso   1.00
H267   H     0.55438   0.52995   0.20221   0.00000  Uiso   1.00
H268   H     0.55159   0.96994   0.31438   0.00000  Uiso   1.00
H269   H     0.43442   0.79156   0.11600   0.00000  Uiso   1.00
H270   H     0.43494   0.70786   0.36690   0.00000  Uiso   1.00
H271   H     0.56576   0.70857   0.13271   0.00000  Uiso   1.00
H272   H     0.56526   0.79194   0.38442   0.00000  Uiso   1.00
H273   H     0.56659   0.70852   0.04345   0.00000  Uiso   1.00
H274   H     0.56610   0.79206   0.47392   0.00000  Uiso   1.00
N275   N     0.50000   0.75001   0.12935   0.00000  Uiso   1.00
N276   N     0.50000   0.74999   0.37066   0.00000  Uiso   1.00
O277   O     0.50000   0.68572   0.29072   0.00000  Uiso   1.00
O278   O     0.50000   0.81427   0.20929   0.00000  Uiso   1.00
O279   O     0.50000   0.68573   0.20928   0.00000  Uiso   1.00
O280   O     0.50000   0.81427   0.29072   0.00000  Uiso   1.00
O281   O     0.42495   0.74999   0.28132   0.00000  Uiso   1.00
O282   O     0.57505   0.75000   0.21868   0.00000  Uiso   1.00
O283   O     0.42495   0.75000   0.19989   0.00000  Uiso   1.00
O284   O     0.57505   0.75000   0.30012   0.00000  Uiso   1.00
I285   I     0.41276   0.51064   0.31794   0.00000  Uiso   1.00
I286   I     0.41683   0.98987   0.15645   0.00000  Uiso   1.00
Cl287  Cl    0.41999   0.62218   0.30953   0.00000  Uiso   1.00
Cl288  Cl    0.42307   0.87839   0.16683   0.00000  Uiso   1.00
Cl289  Cl    0.41391   0.80546   0.01300   0.00000  Uiso   1.00
Cl290  Cl    0.41456   0.69389   0.46452   0.00000  Uiso   1.00
C291   C     0.83220   0.66492   0.25011   0.00000  Uiso   1.00
C292   C     0.83213   0.83510   0.24958   0.00000  Uiso   1.00
C293   C     0.79523   0.77398   0.04868   0.00000  Uiso   1.00
C294   C     0.79551   0.72575   0.44137   0.00000  Uiso   1.00
C295   C     0.79647   0.77329   0.09982   0.00000  Uiso   1.00
C296   C     0.79676   0.72641   0.39056   0.00000  Uiso   1.00
C297   C     0.86998   0.72707   0.10928   0.00000  Uiso   1.00
C298   C     0.86971   0.77323   0.40028   0.00000  Uiso   1.00
C299   C     0.87044   0.72704   0.05839   0.00000  Uiso   1.00
C300   C     0.87016   0.77330   0.45129   0.00000  Uiso   1.00
C301   C     0.83261   0.75035   0.02713   0.00000  Uiso   1.00
C302   C     0.83260   0.74969   0.47267   0.00000  Uiso   1.00
C303   C     0.73453   0.74997   0.23753   0.00000  Uiso   1.00
C304   C     0.93214   0.74995   0.26247   0.00000  Uiso   1.00
C305   C     0.67928   0.74994   0.23063   0.00000  Uiso   1.00
C306   C     0.98740   0.74985   0.26938   0.00000  Uiso   1.00
C307   C     0.79694   0.54684   0.27794   0.00000  Uiso   1.00
C308   C     0.79848   0.95342   0.21160   0.00000  Uiso   1.00
C309   C     0.79708   0.59337   0.27790   0.00000  Uiso   1.00
C310   C     0.79853   0.90689   0.21155   0.00000  Uiso   1.00
C311   C     0.83040   0.61660   0.25059   0.00000  Uiso   1.00
C312   C     0.83034   0.88348   0.24866   0.00000  Uiso   1.00
C313   C     0.86253   0.59346   0.22320   0.00000  Uiso   1.00
C314   C     0.86093   0.90653   0.28567   0.00000  Uiso   1.00
C315   C     0.86253   0.54749   0.22344   0.00000  Uiso   1.00
C316   C     0.86092   0.95250   0.28561   0.00000  Uiso   1.00
C317   C     0.82996   0.52419   0.25058   0.00000  Uiso   1.00
C318   C     0.82992   0.97593   0.24886   0.00000  Uiso   1.00
Cu319  Cu    0.83333   0.74999   0.29822   0.00000  Uiso   1.00
Cu320  Cu    0.83333   0.75000   0.20179   0.00000  Uiso   1.00
H321   H     0.99261   0.75003   0.19346   0.00000  Uiso   1.00
H322   H     0.67407   0.74972   0.30655   0.00000  Uiso   1.00
H323   H     0.88812   0.61105   0.20207   0.00000  Uiso   1.00
H324   H     0.88536   0.88887   0.31435   0.00000  Uiso   1.00
H325   H     0.88771   0.52995   0.20221   0.00000  Uiso   1.00
H326   H     0.88492   0.96994   0.31438   0.00000  Uiso   1.00
H327   H     0.76775   0.79156   0.11600   0.00000  Uiso   1.00
H328   H     0.76828   0.70786   0.36690   0.00000  Uiso   1.00
H329   H     0.89909   0.70857   0.13271   0.00000  Uiso   1.00
H330   H     0.89860   0.79194   0.38442   0.00000  Uiso   1.00
H331   H     0.89992   0.70852   0.04345   0.00000  Uiso   1.00
H332   H     0.89943   0.79206   0.47392   0.00000  Uiso   1.00
N333   N     0.83333   0.75001   0.12935   0.00000  Uiso   1.00
N334   N     0.83333   0.74999   0.37066   0.00000  Uiso   1.00
O335   O     0.83334   0.68572   0.29072   0.00000  Uiso   1.00
O336   O     0.83333   0.81427   0.20929   0.00000  Uiso   1.00
O337   O     0.83334   0.68573   0.20928   0.00000  Uiso   1.00
O338   O     0.83333   0.81427   0.29072   0.00000  Uiso   1.00
O339   O     0.75828   0.74999   0.28132   0.00000  Uiso   1.00
O340   O     0.90839   0.75000   0.21868   0.00000  Uiso   1.00
O341   O     0.75828   0.75000   0.19989   0.00000  Uiso   1.00
O342   O     0.90839   0.75000   0.30012   0.00000  Uiso   1.00
I343   I     0.74609   0.51064   0.31794   0.00000  Uiso   1.00
I344   I     0.75017   0.98987   0.15645   0.00000  Uiso   1.00
Cl345  Cl    0.75333   0.62218   0.30953   0.00000  Uiso   1.00
Cl346  Cl    0.75640   0.87839   0.16683   0.00000  Uiso   1.00
Cl347  Cl    0.74725   0.80546   0.01300   0.00000  Uiso   1.00
Cl348  Cl    0.74789   0.69389   0.46452   0.00000  Uiso   1.00
C349   C     0.16554   0.16492   0.75011   0.00000  Uiso   1.00
C350   C     0.16546   0.33510   0.74958   0.00000  Uiso   1.00
C351   C     0.12856   0.27398   0.54868   0.00000  Uiso   1.00
C352   C     0.12884   0.22575   0.94137   0.00000  Uiso   1.00
C353   C     0.12981   0.27329   0.59982   0.00000  Uiso   1.00
C354   C     0.13009   0.22641   0.89056   0.00000  Uiso   1.00
C355   C     0.20332   0.22707   0.60928   0.00000  Uiso   1.00
C356   C     0.20304   0.27323   0.90028   0.00000  Uiso   1.00
C357   C     0.20377   0.22704   0.55839   0.00000  Uiso   1.00
C358   C     0.20350   0.27330   0.95129   0.00000  Uiso   1.00
C359   C     0.16594   0.25035   0.52713   0.00000  Uiso   1.00
C360   C     0.16594   0.24969   0.97267   0.00000  Uiso   1.00
C361   C     0.06786   0.24997   0.73753   0.00000  Uiso   1.00
C362   C     0.26547   0.24995   0.76247   0.00000  Uiso   1.00
C363   C     0.01261   0.24994   0.73063   0.00000  Uiso   1.00
C364   C     0.32073   0.24985   0.76938   0.00000  Uiso   1.00
C365   C     0.13027   0.04684   0.77794   0.00000  Uiso   1.00
C366   C     0.13182   0.45342   0.71160   0.00000  Uiso   1.00
C367   C     0.13041   0.09337   0.77790   0.00000  Uiso   1.00
C368   C     0.13186   0.40689   0.71155   0.00000  Uiso   1.00
C369   C     0.16373   0.11660   0.75059   0.00000  Uiso   1.00
C370   C     0.16367   0.38348   0.74866   0.00000  Uiso   1.00
C371   C     0.19586   0.09346   0.72320   0.00000  Uiso   1.00
C372   C     0.19426   0.40653   0.78567   0.00000  Uiso   1.00
C373   C     0.19586   0.04749   0.72344   0.00000  Uiso   1.00
C374   C     0.19426   0.45250   0.78561   0.00000  Uiso   1.00
C375   C     0.16329   0.02419   0.75058   0.00000  Uiso   1.00
C376   C     0.16326   0.47593   0.74886   0.00000  Uiso   1.00
Cu377  Cu    0.16667   0.24999   0.79822   0.00000  Uiso   1.00
Cu378  Cu    0.16667   0.25000   0.70179   0.00000  Uiso   1.00
H379   H     0.32594   0.25003   0.69346   0.00000  Uiso   1.00
H380   H     0.00741   0.24972   0.80655   0.00000  Uiso   1.00
H381   H     0.22146   0.11105   0.70207   0.00000  Uiso   1.00
H382   H     0.21869   0.38887   0.81435   0.00000  Uiso   1.00
H383   H     0.22105   0.02995   0.70221   0.00000  Uiso   1.00
H384   H     0.21825   0.46994   0.81438   0.00000  Uiso   1.00
H385   H     0.10109   0.29156   0.61600   0.00000  Uiso   1.00
H386   H     0.10161   0.20786   0.86690   0.00000  Uiso   1.00
H387   H     0.23242   0.20857   0.63271   0.00000  Uiso   1.00
H388   H     0.23193   0.29194   0.88442   0.00000  Uiso   1.00
H389   H     0.23325   0.20852   0.54345   0.00000  Uiso   1.00
H390   H     0.23277   0.29206   0.97392   0.00000  Uiso   1.00
N391   N     0.16667   0.25001   0.62935   0.00000  Uiso   1.00
N392   N     0.16667   0.24999   0.87066   0.00000  Uiso   1.00
O393   O     0.16667   0.18572   0.79072   0.00000  Uiso   1.00
O394   O     0.16666   0.31427   0.70929   0.00000  Uiso   1.00
O395   O     0.16667   0.18573   0.70928   0.00000  Uiso   1.00
O396   O     0.16666   0.31427   0.79072   0.00000  Uiso   1.00
O397   O     0.09161   0.24999   0.78132   0.00000  Uiso   1.00
O398   O     0.24172   0.25000   0.71868   0.00000  Uiso   1.00
O399   O     0.09161   0.25000   0.69989   0.00000  Uiso   1.00
O400   O     0.24172   0.25000   0.80012   0.00000  Uiso   1.00
I401   I     0.07942   0.01064   0.81794   0.00000  Uiso   1.00
I402   I     0.08350   0.48987   0.65645   0.00000  Uiso   1.00
Cl403  Cl    0.08666   0.12218   0.80953   0.00000  Uiso   1.00
Cl404  Cl    0.08974   0.37839   0.66683   0.00000  Uiso   1.00
Cl405  Cl    0.08058   0.30546   0.51300   0.00000  Uiso   1.00
Cl406  Cl    0.08123   0.19389   0.96452   0.00000  Uiso   1.00
C407   C     0.49887   0.16492   0.75011   0.00000  Uiso   1.00
C408   C     0.49879   0.33510   0.74958   0.00000  Uiso   1.00
C409   C     0.46190   0.27398   0.54868   0.00000  Uiso   1.00
C410   C     0.46218   0.22575   0.94137   0.00000  Uiso   1.00
C411   C     0.46314   0.27329   0.59982   0.00000  Uiso   1.00
C412   C     0.46342   0.22641   0.89056   0.00000  Uiso   1.00
C413   C     0.53665   0.22707   0.60928   0.00000  Uiso   1.00
C414   C     0.53638   0.27323   0.90028   0.00000  Uiso   1.00
C415   C     0.53711   0.22704   0.55839   0.00000  Uiso   1.00
C416   C     0.53683   0.27330   0.95129   0.00000  Uiso   1.00
C417   C     0.49927   0.25035   0.52713   0.00000  Uiso   1.00
C418   C     0.49927   0.24969   0.97267   0.00000  Uiso   1.00
C419   C     0.40120   0.24997   0.73753   0.00000  Uiso   1.00
C420   C     0.59881   0.24995   0.76247   0.00000  Uiso   1.00
C421   C     0.34595   0.24994   0.73063   0.00000  Uiso   1.00
C422   C     0.65406   0.24985   0.76938   0.00000  Uiso   1.00
C423   C     0.46361   0.04684   0.77794   0.00000  Uiso   1.00
C424   C     0.46515   0.45342   0.71160   0.00000  Uiso   1.00
C425   C     0.46375   0.09337   0.77790   0.00000  Uiso   1.00
C426   C     0.46520   0.40689   0.71155   0.00000  Uiso   1.00
C427   C     0.49707   0.11660   0.75059   0.00000  Uiso   1.00
C428   C     0.49700   0.38348   0.74866   0.00000  Uiso   1.00
C429   C     0.52920   0.09346   0.72320   0.00000  Uiso   1.00
C430   C     0.52760   0.40653   0.78567   0.00000  Uiso   1.00
C431   C     0.52920   0.04749   0.72344   0.00000  Uiso   1.00
C432   C     0.52759   0.45250   0.78561   0.00000  Uiso   1.00
C433   C     0.49662   0.02419   0.75058   0.00000  Uiso   1.00
C434   C     0.49659   0.47593   0.74886   0.00000  Uiso   1.00
Cu435  Cu    0.50000   0.24999   0.79822   0.00000  Uiso   1.00
Cu436  Cu    0.50000   0.25000   0.70179   0.00000  Uiso   1.00
H437   H     0.65928   0.25003   0.69346   0.00000  Uiso   1.00
H438   H     0.34074   0.24972   0.80655   0.00000  Uiso   1.00
H439   H     0.55479   0.11105   0.70207   0.00000  Uiso   1.00
H440   H     0.55202   0.38887   0.81435   0.00000  Uiso   1.00
H441   H     0.55438   0.02995   0.70221   0.00000  Uiso   1.00
H442   H     0.55159   0.46994   0.81438   0.00000  Uiso   1.00
H443   H     0.43442   0.29156   0.61600   0.00000  Uiso   1.00
H444   H     0.43494   0.20786   0.86690   0.00000  Uiso   1.00
H445   H     0.56576   0.20857   0.63271   0.00000  Uiso   1.00
H446   H     0.56526   0.29194   0.88442   0.00000  Uiso   1.00
H447   H     0.56659   0.20852   0.54345   0.00000  Uiso   1.00
H448   H     0.56610   0.29206   0.97392   0.00000  Uiso   1.00
N449   N     0.50000   0.25001   0.62935   0.00000  Uiso   1.00
N450   N     0.50000   0.24999   0.87066   0.00000  Uiso   1.00
O451   O     0.50000   0.18572   0.79072   0.00000  Uiso   1.00
O452   O     0.50000   0.31427   0.70929   0.00000  Uiso   1.00
O453   O     0.50000   0.18573   0.70928   0.00000  Uiso   1.00
O454   O     0.50000   0.31427   0.79072   0.00000  Uiso   1.00
O455   O     0.42495   0.24999   0.78132   0.00000  Uiso   1.00
O456   O     0.57505   0.25000   0.71868   0.00000  Uiso   1.00
O457   O     0.42495   0.25000   0.69989   0.00000  Uiso   1.00
O458   O     0.57505   0.25000   0.80012   0.00000  Uiso   1.00
I459   I     0.41276   0.01064   0.81794   0.00000  Uiso   1.00
I460   I     0.41683   0.48987   0.65645   0.00000  Uiso   1.00
Cl461  Cl    0.41999   0.12218   0.80953   0.00000  Uiso   1.00
Cl462  Cl    0.42307   0.37839   0.66683   0.00000  Uiso   1.00
Cl463  Cl    0.41391   0.30546   0.51300   0.00000  Uiso   1.00
Cl464  Cl    0.41456   0.19389   0.96452   0.00000  Uiso   1.00
C465   C     0.83220   0.16492   0.75011   0.00000  Uiso   1.00
C466   C     0.83213   0.33510   0.74958   0.00000  Uiso   1.00
C467   C     0.79523   0.27398   0.54868   0.00000  Uiso   1.00
C468   C     0.79551   0.22575   0.94137   0.00000  Uiso   1.00
C469   C     0.79647   0.27329   0.59982   0.00000  Uiso   1.00
C470   C     0.79676   0.22641   0.89056   0.00000  Uiso   1.00
C471   C     0.86998   0.22707   0.60928   0.00000  Uiso   1.00
C472   C     0.86971   0.27323   0.90028   0.00000  Uiso   1.00
C473   C     0.87044   0.22704   0.55839   0.00000  Uiso   1.00
C474   C     0.87016   0.27330   0.95129   0.00000  Uiso   1.00
C475   C     0.83261   0.25035   0.52713   0.00000  Uiso   1.00
C476   C     0.83260   0.24969   0.97267   0.00000  Uiso   1.00
C477   C     0.73453   0.24997   0.73753   0.00000  Uiso   1.00
C478   C     0.93214   0.24995   0.76247   0.00000  Uiso   1.00
C479   C     0.67928   0.24994   0.73063   0.00000  Uiso   1.00
C480   C     0.98740   0.24985   0.76938   0.00000  Uiso   1.00
C481   C     0.79694   0.04684   0.77794   0.00000  Uiso   1.00
C482   C     0.79848   0.45342   0.71160   0.00000  Uiso   1.00
C483   C     0.79708   0.09337   0.77790   0.00000  Uiso   1.00
C484   C     0.79853   0.40689   0.71155   0.00000  Uiso   1.00
C485   C     0.83040   0.11660   0.75059   0.00000  Uiso   1.00
C486   C     0.83034   0.38348   0.74866   0.00000  Uiso   1.00
C487   C     0.86253   0.09346   0.72320   0.00000  Uiso   1.00
C488   C     0.86093   0.40653   0.78567   0.00000  Uiso   1.00
C489   C     0.86253   0.04749   0.72344   0.00000  Uiso   1.00
C490   C     0.86092   0.45250   0.78561   0.00000  Uiso   1.00
C491   C     0.82996   0.02419   0.75058   0.00000  Uiso   1.00
C492   C     0.82992   0.47593   0.74886   0.00000  Uiso   1.00
Cu493  Cu    0.83333   0.24999   0.79822   0.00000  Uiso   1.00
Cu494  Cu    0.83333   0.25000   0.70179   0.00000  Uiso   1.00
H495   H     0.99261   0.25003   0.69346   0.00000  Uiso   1.00
H496   H     0.67407   0.24972   0.80655   0.00000  Uiso   1.00
H497   H     0.88812   0.11105   0.70207   0.00000  Uiso   1.00
H498   H     0.88536   0.38887   0.81435   0.00000  Uiso   1.00
H499   H     0.88771   0.02995   0.70221   0.00000  Uiso   1.00
H500   H     0.88492   0.46994   0.81438   0.00000  Uiso   1.00
H501   H     0.76775   0.29156   0.61600   0.00000  Uiso   1.00
H502   H     0.76828   0.20786   0.86690   0.00000  Uiso   1.00
H503   H     0.89909   0.20857   0.63271   0.00000  Uiso   1.00
H504   H     0.89860   0.29194   0.88442   0.00000  Uiso   1.00
H505   H     0.89992   0.20852   0.54345   0.00000  Uiso   1.00
H506   H     0.89943   0.29206   0.97392   0.00000  Uiso   1.00
N507   N     0.83333   0.25001   0.62935   0.00000  Uiso   1.00
N508   N     0.83333   0.24999   0.87066   0.00000  Uiso   1.00
O509   O     0.83334   0.18572   0.79072   0.00000  Uiso   1.00
O510   O     0.83333   0.31427   0.70929   0.00000  Uiso   1.00
O511   O     0.83334   0.18573   0.70928   0.00000  Uiso   1.00
O512   O     0.83333   0.31427   0.79072   0.00000  Uiso   1.00
O513   O     0.75828   0.24999   0.78132   0.00000  Uiso   1.00
O514   O     0.90839   0.25000   0.71868   0.00000  Uiso   1.00
O515   O     0.75828   0.25000   0.69989   0.00000  Uiso   1.00
O516   O     0.90839   0.25000   0.80012   0.00000  Uiso   1.00
I517   I     0.74609   0.01064   0.81794   0.00000  Uiso   1.00
I518   I     0.75017   0.48987   0.65645   0.00000  Uiso   1.00
Cl519  Cl    0.75333   0.12218   0.80953   0.00000  Uiso   1.00
Cl520  Cl    0.75640   0.37839   0.66683   0.00000  Uiso   1.00
Cl521  Cl    0.74725   0.30546   0.51300   0.00000  Uiso   1.00
Cl522  Cl    0.74789   0.19389   0.96452   0.00000  Uiso   1.00
C523   C     0.16554   0.66492   0.75011   0.00000  Uiso   1.00
C524   C     0.16546   0.83510   0.74958   0.00000  Uiso   1.00
C525   C     0.12856   0.77398   0.54868   0.00000  Uiso   1.00
C526   C     0.12884   0.72575   0.94137   0.00000  Uiso   1.00
C527   C     0.12981   0.77329   0.59982   0.00000  Uiso   1.00
C528   C     0.13009   0.72641   0.89056   0.00000  Uiso   1.00
C529   C     0.20332   0.72707   0.60928   0.00000  Uiso   1.00
C530   C     0.20304   0.77323   0.90028   0.00000  Uiso   1.00
C531   C     0.20377   0.72704   0.55839   0.00000  Uiso   1.00
C532   C     0.20350   0.77330   0.95129   0.00000  Uiso   1.00
C533   C     0.16594   0.75035   0.52713   0.00000  Uiso   1.00
C534   C     0.16594   0.74969   0.97267   0.00000  Uiso   1.00
C535   C     0.06786   0.74997   0.73753   0.00000  Uiso   1.00
C536   C     0.26547   0.74995   0.76247   0.00000  Uiso   1.00
C537   C     0.01261   0.74994   0.73063   0.00000  Uiso   1.00
C538   C     0.32073   0.74985   0.76938   0.00000  Uiso   1.00
C539   C     0.13027   0.54684   0.77794   0.00000  Uiso   1.00
C540   C     0.13182   0.95342   0.71160   0.00000  Uiso   1.00
C541   C     0.13041   0.59337   0.77790   0.00000  Uiso   1.00
C542   C     0.13186   0.90689   0.71155   0.00000  Uiso   1.00
C543   C     0.16373   0.61660   0.75059   0.00000  Uiso   1.00
C544   C     0.16367   0.88348   0.74866   0.00000  Uiso   1.00
C545   C     0.19586   0.59346   0.72320   0.00000  Uiso   1.00
C546   C     0.19426   0.90653   0.78567   0.00000  Uiso   1.00
C547   C     0.19586   0.54749   0.72344   0.00000  Uiso   1.00
C548   C     0.19426   0.95250   0.78561   0.00000  Uiso   1.00
C549   C     0.16329   0.52419   0.75058   0.00000  Uiso   1.00
C550   C     0.16326   0.97593   0.74886   0.00000  Uiso   1.00
Cu551  Cu    0.16667   0.74999   0.79822   0.00000  Uiso   1.00
Cu552  Cu    0.16667   0.75000   0.70179   0.00000  Uiso   1.00
H553   H     0.32594   0.75003   0.69346   0.00000  Uiso   1.00
H554   H     0.00741   0.74972   0.80655   0.00000  Uiso   1.00
H555   H     0.22146   0.61105   0.70207   0.00000  Uiso   1.00
H556   H     0.21869   0.88887   0.81435   0.00000  Uiso   1.00
H557   H     0.22105   0.52995   0.70221   0.00000  Uiso   1.00
H558   H     0.21825   0.96994   0.81438   0.00000  Uiso   1.00
H559   H     0.10109   0.79156   0.61600   0.00000  Uiso   1.00
H560   H     0.10161   0.70786   0.86690   0.00000  Uiso   1.00
H561   H     0.23242   0.70857   0.63271   0.00000  Uiso   1.00
H562   H     0.23193   0.79194   0.88442   0.00000  Uiso   1.00
H563   H     0.23325   0.70852   0.54345   0.00000  Uiso   1.00
H564   H     0.23277   0.79206   0.97392   0.00000  Uiso   1.00
N565   N     0.16667   0.75001   0.62935   0.00000  Uiso   1.00
N566   N     0.16667   0.74999   0.87066   0.00000  Uiso   1.00
O567   O     0.16667   0.68572   0.79072   0.00000  Uiso   1.00
O568   O     0.16666   0.81427   0.70929   0.00000  Uiso   1.00
O569   O     0.16667   0.68573   0.70928   0.00000  Uiso   1.00
O570   O     0.16666   0.81427   0.79072   0.00000  Uiso   1.00
O571   O     0.09161   0.74999   0.78132   0.00000  Uiso   1.00
O572   O     0.24172   0.75000   0.71868   0.00000  Uiso   1.00
O573   O     0.09161   0.75000   0.69989   0.00000  Uiso   1.00
O574   O     0.24172   0.75000   0.80012   0.00000  Uiso   1.00
I575   I     0.07942   0.51064   0.81794   0.00000  Uiso   1.00
I576   I     0.08350   0.98987   0.65645   0.00000  Uiso   1.00
Cl577  Cl    0.08666   0.62218   0.80953   0.00000  Uiso   1.00
Cl578  Cl    0.08974   0.87839   0.66683   0.00000  Uiso   1.00
Cl579  Cl    0.08058   0.80546   0.51300   0.00000  Uiso   1.00
Cl580  Cl    0.08123   0.69389   0.96452   0.00000  Uiso   1.00
C581   C     0.49887   0.66492   0.75011   0.00000  Uiso   1.00
C582   C     0.49879   0.83510   0.74958   0.00000  Uiso   1.00
C583   C     0.46190   0.77398   0.54868   0.00000  Uiso   1.00
C584   C     0.46218   0.72575   0.94137   0.00000  Uiso   1.00
C585   C     0.46314   0.77329   0.59982   0.00000  Uiso   1.00
C586   C     0.46342   0.72641   0.89056   0.00000  Uiso   1.00
C587   C     0.53665   0.72707   0.60928   0.00000  Uiso   1.00
C588   C     0.53638   0.77323   0.90028   0.00000  Uiso   1.00
C589   C     0.53711   0.72704   0.55839   0.00000  Uiso   1.00
C590   C     0.53683   0.77330   0.95129   0.00000  Uiso   1.00
C591   C     0.49927   0.75035   0.52713   0.00000  Uiso   1.00
C592   C     0.49927   0.74969   0.97267   0.00000  Uiso   1.00
C593   C     0.40120   0.74997   0.73753   0.00000  Uiso   1.00
C594   C     0.59881   0.74995   0.76247   0.00000  Uiso   1.00
C595   C     0.34595   0.74994   0.73063   0.00000  Uiso   1.00
C596   C     0.65406   0.74985   0.76938   0.00000  Uiso   1.00
C597   C     0.46361   0.54684   0.77794   0.00000  Uiso   1.00
C598   C     0.46515   0.95342   0.71160   0.00000  Uiso   1.00
C599   C     0.46375   0.59337   0.77790   0.00000  Uiso   1.00
C600   C     0.46520   0.90689   0.71155   0.00000  Uiso   1.00
C601   C     0.49707   0.61660   0.75059   0.00000  Uiso   1.00
C602   C     0.49700   0.88348   0.74866   0.00000  Uiso   1.00
C603   C     0.52920   0.59346   0.72320   0.00000  Uiso   1.00
C604   C     0.52760   0.90653   0.78567   0.00000  Uiso   1.00
C605   C     0.52920   0.54749   0.72344   0.00000  Uiso   1.00
C606   C     0.52759   0.95250   0.78561   0.00000  Uiso   1.00
C607   C     0.49662   0.52419   0.75058   0.00000  Uiso   1.00
C608   C     0.49659   0.97593   0.74886   0.00000  Uiso   1.00
Cu609  Cu    0.50000   0.74999   0.79822   0.00000  Uiso   1.00
Cu610  Cu    0.50000   0.75000   0.70179   0.00000  Uiso   1.00
H611   H     0.65928   0.75003   0.69346   0.00000  Uiso   1.00
H612   H     0.34074   0.74972   0.80655   0.00000  Uiso   1.00
H613   H     0.55479   0.61105   0.70207   0.00000  Uiso   1.00
H614   H     0.55202   0.88887   0.81435   0.00000  Uiso   1.00
H615   H     0.55438   0.52995   0.70221   0.00000  Uiso   1.00
H616   H     0.55159   0.96994   0.81438   0.00000  Uiso   1.00
H617   H     0.43442   0.79156   0.61600   0.00000  Uiso   1.00
H618   H     0.43494   0.70786   0.86690   0.00000  Uiso   1.00
H619   H     0.56576   0.70857   0.63271   0.00000  Uiso   1.00
H620   H     0.56526   0.79194   0.88442   0.00000  Uiso   1.00
H621   H     0.56659   0.70852   0.54345   0.00000  Uiso   1.00
H622   H     0.56610   0.79206   0.97392   0.00000  Uiso   1.00
N623   N     0.50000   0.75001   0.62935   0.00000  Uiso   1.00
N624   N     0.50000   0.74999   0.87066   0.00000  Uiso   1.00
O625   O     0.50000   0.68572   0.79072   0.00000  Uiso   1.00
O626   O     0.50000   0.81427   0.70929   0.00000  Uiso   1.00
O627   O     0.50000   0.68573   0.70928   0.00000  Uiso   1.00
O628   O     0.50000   0.81427   0.79072   0.00000  Uiso   1.00
O629   O     0.42495   0.74999   0.78132   0.00000  Uiso   1.00
O630   O     0.57505   0.75000   0.71868   0.00000  Uiso   1.00
O631   O     0.42495   0.75000   0.69989   0.00000  Uiso   1.00
O632   O     0.57505   0.75000   0.80012   0.00000  Uiso   1.00
I633   I     0.41276   0.51064   0.81794   0.00000  Uiso   1.00
I634   I     0.41683   0.98987   0.65645   0.00000  Uiso   1.00
Cl635  Cl    0.41999   0.62218   0.80953   0.00000  Uiso   1.00
Cl636  Cl    0.42307   0.87839   0.66683   0.00000  Uiso   1.00
Cl637  Cl    0.41391   0.80546   0.51300   0.00000  Uiso   1.00
Cl638  Cl    0.41456   0.69389   0.96452   0.00000  Uiso   1.00
C639   C     0.83220   0.66492   0.75011   0.00000  Uiso   1.00
C640   C     0.83213   0.83510   0.74958   0.00000  Uiso   1.00
C641   C     0.79523   0.77398   0.54868   0.00000  Uiso   1.00
C642   C     0.79551   0.72575   0.94137   0.00000  Uiso   1.00
C643   C     0.79647   0.77329   0.59982   0.00000  Uiso   1.00
C644   C     0.79676   0.72641   0.89056   0.00000  Uiso   1.00
C645   C     0.86998   0.72707   0.60928   0.00000  Uiso   1.00
C646   C     0.86971   0.77323   0.90028   0.00000  Uiso   1.00
C647   C     0.87044   0.72704   0.55839   0.00000  Uiso   1.00
C648   C     0.87016   0.77330   0.95129   0.00000  Uiso   1.00
C649   C     0.83261   0.75035   0.52713   0.00000  Uiso   1.00
C650   C     0.83260   0.74969   0.97267   0.00000  Uiso   1.00
C651   C     0.73453   0.74997   0.73753   0.00000  Uiso   1.00
C652   C     0.93214   0.74995   0.76247   0.00000  Uiso   1.00
C653   C     0.67928   0.74994   0.73063   0.00000  Uiso   1.00
C654   C     0.98740   0.74985   0.76938   0.00000  Uiso   1.00
C655   C     0.79694   0.54684   0.77794   0.00000  Uiso   1.00
C656   C     0.79848   0.95342   0.71160   0.00000  Uiso   1.00
C657   C     0.79708   0.59337   0.77790   0.00000  Uiso   1.00
C658   C     0.79853   0.90689   0.71155   0.00000  Uiso   1.00
C659   C     0.83040   0.61660   0.75059   0.00000  Uiso   1.00
C660   C     0.83034   0.88348   0.74866   0.00000  Uiso   1.00
C661   C     0.86253   0.59346   0.72320   0.00000  Uiso   1.00
C662   C     0.86093   0.90653   0.78567   0.00000  Uiso   1.00
C663   C     0.86253   0.54749   0.72344   0.00000  Uiso   1.00
C664   C     0.86092   0.95250   0.78561   0.00000  Uiso   1.00
C665   C     0.82996   0.52419   0.75058   0.00000  Uiso   1.00
C666   C     0.82992   0.97593   0.74886   0.00000  Uiso   1.00
Cu667  Cu    0.83333   0.74999   0.79822   0.00000  Uiso   1.00
Cu668  Cu    0.83333   0.75000   0.70179   0.00000  Uiso   1.00
H669   H     0.99261   0.75003   0.69346   0.00000  Uiso   1.00
H670   H     0.67407   0.74972   0.80655   0.00000  Uiso   1.00
H671   H     0.88812   0.61105   0.70207   0.00000  Uiso   1.00
H672   H     0.88536   0.88887   0.81435   0.00000  Uiso   1.00
H673   H     0.88771   0.52995   0.70221   0.00000  Uiso   1.00
H674   H     0.88492   0.96994   0.81438   0.00000  Uiso   1.00
H675   H     0.76775   0.79156   0.61600   0.00000  Uiso   1.00
H676   H     0.76828   0.70786   0.86690   0.00000  Uiso   1.00
H677   H     0.89909   0.70857   0.63271   0.00000  Uiso   1.00
H678   H     0.89860   0.79194   0.88442   0.00000  Uiso   1.00
H679   H     0.89992   0.70852   0.54345   0.00000  Uiso   1.00
H680   H     0.89943   0.79206   0.97392   0.00000  Uiso   1.00
N681   N     0.83333   0.75001   0.62935   0.00000  Uiso   1.00
N682   N     0.83333   0.74999   0.87066   0.00000  Uiso   1.00
O683   O     0.83334   0.68572   0.79072   0.00000  Uiso   1.00
O684   O     0.83333   0.81427   0.70929   0.00000  Uiso   1.00
O685   O     0.83334   0.68573   0.70928   0.00000  Uiso   1.00
O686   O     0.83333   0.81427   0.79072   0.00000  Uiso   1.00
O687   O     0.75828   0.74999   0.78132   0.00000  Uiso   1.00
O688   O     0.90839   0.75000   0.71868   0.00000  Uiso   1.00
O689   O     0.75828   0.75000   0.69989   0.00000  Uiso   1.00
O690   O     0.90839   0.75000   0.80012   0.00000  Uiso   1.00
I691   I     0.74609   0.51064   0.81794   0.00000  Uiso   1.00
I692   I     0.75017   0.98987   0.65645   0.00000  Uiso   1.00
Cl693  Cl    0.75333   0.62218   0.80953   0.00000  Uiso   1.00
Cl694  Cl    0.75640   0.87839   0.66683   0.00000  Uiso   1.00
Cl695  Cl    0.74725   0.80546   0.51300   0.00000  Uiso   1.00
Cl696  Cl    0.74789   0.69389   0.96452   0.00000  Uiso   1.00
loop_
_geom_bond_atom_site_label_1
_geom_bond_atom_site_label_2
_geom_bond_distance
_geom_bond_site_symmetry_2
_ccdc_geom_bond_type
C1     C21     1.459   .     S
C1     O45     1.289   .     A
C1     O47     1.291   .     A
C2     C22     1.460   .     S
C2     O46     1.289   .     A
C2     O48     1.291   .     A
C3     C5      1.411   .     A
C3     Cl57    1.760   .     S
C3     C11     1.412   .     A
C4     C12     1.412   .     A
C4     C6      1.410   .     A
C4     Cl58    1.760   .     S
C5     H37     1.081   .     S
C5     N43     1.365   .     A
C6     H38     1.081   .     S
C6     N44     1.365   .     A
C7     N43     1.366   .     A
C7     C9      1.409   .     A
C7     H39     1.082   .     S
C8     C10     1.409   .     A
C8     H40     1.082   .     S
C8     N44     1.365   .     A
C9     H41     1.083   .     S
C9     C11     1.406   .     A
C10    H42     1.083   .     S
C10    C12     1.406   .     A
C11    C360    1.507   1_554 S
C12    C359    1.507   .     S
C13    C15     1.433   .     S
C13    O49     1.283   .     A
C13    O51     1.285   .     A
C14    O50     1.283   .     A
C14    C16     1.433   .     S
C14    O52     1.285   .     A
C15    C132    1.335   1_455 S
C15    H147    1.087   1_455 S
C16    C73     1.335   .     S
C16    H90     1.087   .     S
C17    C27     1.407   .     A
C17    C19     1.404   .     A
C17    I53     2.138   .     S
C18    C28     1.407   .     A
C18    C20     1.404   .     A
C18    I54     2.138   .     S
C19    C21     1.412   .     A
C19    Cl55    1.769   .     S
C20    Cl56    1.768   .     S
C20    C22     1.413   .     A
C21    C23     1.399   .     A
C22    C24     1.400   .     A
C23    C25     1.387   .     A
C23    H33     1.084   .     S
C24    C26     1.387   .     A
C24    H34     1.084   .     S
C25    H35     1.084   .     S
C25    C27     1.397   .     A
C26    H36     1.084   .     S
C26    C28     1.397   .     A
C27    C202    1.458   1_545 S
C28    C201    1.458   .     S
Cu29   Cu30    2.667   .     S
Cu29   O45     1.952   .     S
Cu29   N44     2.004   .     S
Cu29   O48     1.948   .     S
Cu29   O49     1.956   .     S
Cu29   O52     1.959   .     S
Cu30   O51     1.959   .     S
Cu30   O50     1.956   .     S
Cu30   N43     2.004   .     S
Cu30   O47     1.948   .     S
Cu30   O46     1.952   .     S
H31    C73     1.087   .     S
H32    C132    1.087   1_455 S
C59    C79     1.459   .     S
C59    O103    1.289   .     A
C59    O105    1.291   .     A
C60    C80     1.460   .     S
C60    O104    1.289   .     A
C60    O106    1.291   .     A
C61    C63     1.411   .     A
C61    Cl115   1.760   .     S
C61    C69     1.412   .     A
C62    C70     1.412   .     A
C62    C64     1.410   .     A
C62    Cl116   1.760   .     S
C63    H95     1.081   .     S
C63    N101    1.365   .     A
C64    H96     1.081   .     S
C64    N102    1.365   .     A
C65    N101    1.366   .     A
C65    C67     1.409   .     A
C65    H97     1.082   .     S
C66    C68     1.409   .     A
C66    H98     1.082   .     S
C66    N102    1.365   .     A
C67    H99     1.083   .     S
C67    C69     1.406   .     A
C68    H100    1.083   .     S
C68    C70     1.406   .     A
C69    C418    1.507   1_554 S
C70    C417    1.507   .     S
C71    C73     1.433   .     S
C71    O107    1.283   .     A
C71    O109    1.285   .     A
C72    O108    1.283   .     A
C72    C74     1.433   .     S
C72    O110    1.285   .     A
C74    C131    1.335   .     S
C74    H148    1.087   .     S
C75    C85     1.407   .     A
C75    C77     1.404   .     A
C75    I111    2.138   .     S
C76    C86     1.407   .     A
C76    C78     1.404   .     A
C76    I112    2.138   .     S
C77    C79     1.412   .     A
C77    Cl113   1.769   .     S
C78    Cl114   1.768   .     S
C78    C80     1.413   .     A
C79    C81     1.399   .     A
C80    C82     1.400   .     A
C81    C83     1.387   .     A
C81    H91     1.084   .     S
C82    C84     1.387   .     A
C82    H92     1.084   .     S
C83    H93     1.084   .     S
C83    C85     1.397   .     A
C84    H94     1.084   .     S
C84    C86     1.397   .     A
C85    C260    1.458   1_545 S
C86    C259    1.458   .     S
Cu87   Cu88    2.667   .     S
Cu87   O103    1.952   .     S
Cu87   N102    2.004   .     S
Cu87   O106    1.948   .     S
Cu87   O107    1.956   .     S
Cu87   O110    1.959   .     S
Cu88   O109    1.959   .     S
Cu88   O108    1.956   .     S
Cu88   N101    2.004   .     S
Cu88   O105    1.948   .     S
Cu88   O104    1.952   .     S
H89    C131    1.087   .     S
C117   C137    1.459   .     S
C117   O161    1.289   .     A
C117   O163    1.291   .     A
C118   C138    1.460   .     S
C118   O162    1.289   .     A
C118   O164    1.291   .     A
C119   C121    1.411   .     A
C119   Cl173   1.760   .     S
C119   C127    1.412   .     A
C120   C128    1.412   .     A
C120   C122    1.410   .     A
C120   Cl174   1.760   .     S
C121   H153    1.081   .     S
C121   N159    1.365   .     A
C122   H154    1.081   .     S
C122   N160    1.365   .     A
C123   N159    1.366   .     A
C123   C125    1.409   .     A
C123   H155    1.082   .     S
C124   C126    1.409   .     A
C124   H156    1.082   .     S
C124   N160    1.365   .     A
C125   H157    1.083   .     S
C125   C127    1.406   .     A
C126   H158    1.083   .     S
C126   C128    1.406   .     A
C127   C476    1.507   1_554 S
C128   C475    1.507   .     S
C129   C131    1.433   .     S
C129   O165    1.283   .     A
C129   O167    1.285   .     A
C130   O166    1.283   .     A
C130   C132    1.433   .     S
C130   O168    1.285   .     A
C132   C15     1.335   1_655 S
C132   H32     1.087   1_655 S
C133   C143    1.407   .     A
C133   C135    1.404   .     A
C133   I169    2.138   .     S
C134   C144    1.407   .     A
C134   C136    1.404   .     A
C134   I170    2.138   .     S
C135   C137    1.412   .     A
C135   Cl171   1.769   .     S
C136   Cl172   1.768   .     S
C136   C138    1.413   .     A
C137   C139    1.399   .     A
C138   C140    1.400   .     A
C139   C141    1.387   .     A
C139   H149    1.084   .     S
C140   C142    1.387   .     A
C140   H150    1.084   .     S
C141   H151    1.084   .     S
C141   C143    1.397   .     A
C142   H152    1.084   .     S
C142   C144    1.397   .     A
C143   C318    1.458   1_545 S
C144   C317    1.458   .     S
Cu145  Cu146   2.667   .     S
Cu145  O161    1.952   .     S
Cu145  N160    2.004   .     S
Cu145  O164    1.948   .     S
Cu145  O165    1.956   .     S
Cu145  O168    1.959   .     S
Cu146  O167    1.959   .     S
Cu146  O166    1.956   .     S
Cu146  N159    2.004   .     S
Cu146  O163    1.948   .     S
Cu146  O162    1.952   .     S
H147   C15     1.087   1_655 S
C175   C195    1.459   .     S
C175   O219    1.289   .     A
C175   O221    1.291   .     A
C176   C196    1.460   .     S
C176   O220    1.289   .     A
C176   O222    1.291   .     A
C177   C179    1.411   .     A
C177   Cl231   1.760   .     S
C177   C185    1.412   .     A
C178   C186    1.412   .     A
C178   C180    1.410   .     A
C178   Cl232   1.760   .     S
C179   H211    1.081   .     S
C179   N217    1.365   .     A
C180   H212    1.081   .     S
C180   N218    1.365   .     A
C181   N217    1.366   .     A
C181   C183    1.409   .     A
C181   H213    1.082   .     S
C182   C184    1.409   .     A
C182   H214    1.082   .     S
C182   N218    1.365   .     A
C183   H215    1.083   .     S
C183   C185    1.406   .     A
C184   H216    1.083   .     S
C184   C186    1.406   .     A
C185   C534    1.507   1_554 S
C186   C533    1.507   .     S
C187   C189    1.433   .     S
C187   O223    1.283   .     A
C187   O225    1.285   .     A
C188   O224    1.283   .     A
C188   C190    1.433   .     S
C188   O226    1.285   .     A
C189   C306    1.335   1_455 S
C189   H321    1.087   1_455 S
C190   C247    1.335   .     S
C190   H264    1.087   .     S
C191   C201    1.407   .     A
C191   C193    1.404   .     A
C191   I227    2.138   .     S
C192   C202    1.407   .     A
C192   C194    1.404   .     A
C192   I228    2.138   .     S
C193   C195    1.412   .     A
C193   Cl229   1.769   .     S
C194   Cl230   1.768   .     S
C194   C196    1.413   .     A
C195   C197    1.399   .     A
C196   C198    1.400   .     A
C197   C199    1.387   .     A
C197   H207    1.084   .     S
C198   C200    1.387   .     A
C198   H208    1.084   .     S
C199   H209    1.084   .     S
C199   C201    1.397   .     A
C200   H210    1.084   .     S
C200   C202    1.397   .     A
C202   C27     1.458   1_565 S
Cu203  Cu204   2.667   .     S
Cu203  O219    1.952   .     S
Cu203  N218    2.004   .     S
Cu203  O222    1.948   .     S
Cu203  O223    1.956   .     S
Cu203  O226    1.959   .     S
Cu204  O225    1.959   .     S
Cu204  O224    1.956   .     S
Cu204  N217    2.004   .     S
Cu204  O221    1.948   .     S
Cu204  O220    1.952   .     S
H205   C247    1.087   .     S
H206   C306    1.087   1_455 S
C233   C253    1.459   .     S
C233   O277    1.289   .     A
C233   O279    1.291   .     A
C234   C254    1.460   .     S
C234   O278    1.289   .     A
C234   O280    1.291   .     A
C235   C237    1.411   .     A
C235   Cl289   1.760   .     S
C235   C243    1.412   .     A
C236   C244    1.412   .     A
C236   C238    1.410   .     A
C236   Cl290   1.760   .     S
C237   H269    1.081   .     S
C237   N275    1.365   .     A
C238   H270    1.081   .     S
C238   N276    1.365   .     A
C239   N275    1.366   .     A
C239   C241    1.409   .     A
C239   H271    1.082   .     S
C240   C242    1.409   .     A
C240   H272    1.082   .     S
C240   N276    1.365   .     A
C241   H273    1.083   .     S
C241   C243    1.406   .     A
C242   H274    1.083   .     S
C242   C244    1.406   .     A
C243   C592    1.507   1_554 S
C244   C591    1.507   .     S
C245   C247    1.433   .     S
C245   O281    1.283   .     A
C245   O283    1.285   .     A
C246   O282    1.283   .     A
C246   C248    1.433   .     S
C246   O284    1.285   .     A
C248   C305    1.335   .     S
C248   H322    1.087   .     S
C249   C259    1.407   .     A
C249   C251    1.404   .     A
C249   I285    2.138   .     S
C250   C260    1.407   .     A
C250   C252    1.404   .     A
C250   I286    2.138   .     S
C251   C253    1.412   .     A
C251   Cl287   1.769   .     S
C252   Cl288   1.768   .     S
C252   C254    1.413   .     A
C253   C255    1.399   .     A
C254   C256    1.400   .     A
C255   C257    1.387   .     A
C255   H265    1.084   .     S
C256   C258    1.387   .     A
C256   H266    1.084   .     S
C257   H267    1.084   .     S
C257   C259    1.397   .     A
C258   H268    1.084   .     S
C258   C260    1.397   .     A
C260   C85     1.458   1_565 S
Cu261  Cu262   2.667   .     S
Cu261  O277    1.952   .     S
Cu261  N276    2.004   .     S
Cu261  O280    1.948   .     S
Cu261  O281    1.956   .     S
Cu261  O284    1.959   .     S
Cu262  O283    1.959   .     S
Cu262  O282    1.956   .     S
Cu262  N275    2.004   .     S
Cu262  O279    1.948   .     S
Cu262  O278    1.952   .     S
H263   C305    1.087   .     S
C291   C311    1.459   .     S
C291   O335    1.289   .     A
C291   O337    1.291   .     A
C292   C312    1.460   .     S
C292   O336    1.289   .     A
C292   O338    1.291   .     A
C293   C295    1.411   .     A
C293   Cl347   1.760   .     S
C293   C301    1.412   .     A
C294   C302    1.412   .     A
C294   C296    1.410   .     A
C294   Cl348   1.760   .     S
C295   H327    1.081   .     S
C295   N333    1.365   .     A
C296   H328    1.081   .     S
C296   N334    1.365   .     A
C297   N333    1.366   .     A
C297   C299    1.409   .     A
C297   H329    1.082   .     S
C298   C300    1.409   .     A
C298   H330    1.082   .     S
C298   N334    1.365   .     A
C299   H331    1.083   .     S
C299   C301    1.406   .     A
C300   H332    1.083   .     S
C300   C302    1.406   .     A
C301   C650    1.507   1_554 S
C302   C649    1.507   .     S
C303   C305    1.433   .     S
C303   O339    1.283   .     A
C303   O341    1.285   .     A
C304   O340    1.283   .     A
C304   C306    1.433   .     S
C304   O342    1.285   .     A
C306   C189    1.335   1_655 S
C306   H206    1.087   1_655 S
C307   C317    1.407   .     A
C307   C309    1.404   .     A
C307   I343    2.138   .     S
C308   C318    1.407   .     A
C308   C310    1.404   .     A
C308   I344    2.138   .     S
C309   C311    1.412   .     A
C309   Cl345   1.769   .     S
C310   Cl346   1.768   .     S
C310   C312    1.413   .     A
C311   C313    1.399   .     A
C312   C314    1.400   .     A
C313   C315    1.387   .     A
C313   H323    1.084   .     S
C314   C316    1.387   .     A
C314   H324    1.084   .     S
C315   H325    1.084   .     S
C315   C317    1.397   .     A
C316   H326    1.084   .     S
C316   C318    1.397   .     A
C318   C143    1.458   1_565 S
Cu319  Cu320   2.667   .     S
Cu319  O335    1.952   .     S
Cu319  N334    2.004   .     S
Cu319  O338    1.948   .     S
Cu319  O339    1.956   .     S
Cu319  O342    1.959   .     S
Cu320  O341    1.959   .     S
Cu320  O340    1.956   .     S
Cu320  N333    2.004   .     S
Cu320  O337    1.948   .     S
Cu320  O336    1.952   .     S
H321   C189    1.087   1_655 S
C349   C369    1.459   .     S
C349   O393    1.289   .     A
C349   O395    1.291   .     A
C350   C370    1.460   .     S
C350   O394    1.289   .     A
C350   O396    1.291   .     A
C351   C353    1.411   .     A
C351   Cl405   1.760   .     S
C351   C359    1.412   .     A
C352   C360    1.412   .     A
C352   C354    1.410   .     A
C352   Cl406   1.760   .     S
C353   H385    1.081   .     S
C353   N391    1.365   .     A
C354   H386    1.081   .     S
C354   N392    1.365   .     A
C355   N391    1.366   .     A
C355   C357    1.409   .     A
C355   H387    1.082   .     S
C356   C358    1.409   .     A
C356   H388    1.082   .     S
C356   N392    1.365   .     A
C357   H389    1.083   .     S
C357   C359    1.406   .     A
C358   H390    1.083   .     S
C358   C360    1.406   .     A
C360   C11     1.507   1_556 S
C361   C363    1.433   .     S
C361   O397    1.283   .     A
C361   O399    1.285   .     A
C362   O398    1.283   .     A
C362   C364    1.433   .     S
C362   O400    1.285   .     A
C363   C480    1.335   1_455 S
C363   H495    1.087   1_455 S
C364   C421    1.335   .     S
C364   H438    1.087   .     S
C365   C375    1.407   .     A
C365   C367    1.404   .     A
C365   I401    2.138   .     S
C366   C376    1.407   .     A
C366   C368    1.404   .     A
C366   I402    2.138   .     S
C367   C369    1.412   .     A
C367   Cl403   1.769   .     S
C368   Cl404   1.768   .     S
C368   C370    1.413   .     A
C369   C371    1.399   .     A
C370   C372    1.400   .     A
C371   C373    1.387   .     A
C371   H381    1.084   .     S
C372   C374    1.387   .     A
C372   H382    1.084   .     S
C373   H383    1.084   .     S
C373   C375    1.397   .     A
C374   H384    1.084   .     S
C374   C376    1.397   .     A
C375   C550    1.458   1_545 S
C376   C549    1.458   .     S
Cu377  Cu378   2.667   .     S
Cu377  O393    1.952   .     S
Cu377  N392    2.004   .     S
Cu377  O396    1.948   .     S
Cu377  O397    1.956   .     S
Cu377  O400    1.959   .     S
Cu378  O399    1.959   .     S
Cu378  O398    1.956   .     S
Cu378  N391    2.004   .     S
Cu378  O395    1.948   .     S
Cu378  O394    1.952   .     S
H379   C421    1.087   .     S
H380   C480    1.087   1_455 S
C407   C427    1.459   .     S
C407   O451    1.289   .     A
C407   O453    1.291   .     A
C408   C428    1.460   .     S
C408   O452    1.289   .     A
C408   O454    1.291   .     A
C409   C411    1.411   .     A
C409   Cl463   1.760   .     S
C409   C417    1.412   .     A
C410   C418    1.412   .     A
C410   C412    1.410   .     A
C410   Cl464   1.760   .     S
C411   H443    1.081   .     S
C411   N449    1.365   .     A
C412   H444    1.081   .     S
C412   N450    1.365   .     A
C413   N449    1.366   .     A
C413   C415    1.409   .     A
C413   H445    1.082   .     S
C414   C416    1.409   .     A
C414   H446    1.082   .     S
C414   N450    1.365   .     A
C415   H447    1.083   .     S
C415   C417    1.406   .     A
C416   H448    1.083   .     S
C416   C418    1.406   .     A
C418   C69     1.507   1_556 S
C419   C421    1.433   .     S
C419   O455    1.283   .     A
C419   O457    1.285   .     A
C420   O456    1.283   .     A
C420   C422    1.433   .     S
C420   O458    1.285   .     A
C422   C479    1.335   .     S
C422   H496    1.087   .     S
C423   C433    1.407   .     A
C423   C425    1.404   .     A
C423   I459    2.138   .     S
C424   C434    1.407   .     A
C424   C426    1.404   .     A
C424   I460    2.138   .     S
C425   C427    1.412   .     A
C425   Cl461   1.769   .     S
C426   Cl462   1.768   .     S
C426   C428    1.413   .     A
C427   C429    1.399   .     A
C428   C430    1.400   .     A
C429   C431    1.387   .     A
C429   H439    1.084   .     S
C430   C432    1.387   .     A
C430   H440    1.084   .     S
C431   H441    1.084   .     S
C431   C433    1.397   .     A
C432   H442    1.084   .     S
C432   C434    1.397   .     A
C433   C608    1.458   1_545 S
C434   C607    1.458   .     S
Cu435  Cu436   2.667   .     S
Cu435  O451    1.952   .     S
Cu435  N450    2.004   .     S
Cu435  O454    1.948   .     S
Cu435  O455    1.956   .     S
Cu435  O458    1.959   .     S
Cu436  O457    1.959   .     S
Cu436  O456    1.956   .     S
Cu436  N449    2.004   .     S
Cu436  O453    1.948   .     S
Cu436  O452    1.952   .     S
H437   C479    1.087   .     S
C465   C485    1.459   .     S
C465   O509    1.289   .     A
C465   O511    1.291   .     A
C466   C486    1.460   .     S
C466   O510    1.289   .     A
C466   O512    1.291   .     A
C467   C469    1.411   .     A
C467   Cl521   1.760   .     S
C467   C475    1.412   .     A
C468   C476    1.412   .     A
C468   C470    1.410   .     A
C468   Cl522   1.760   .     S
C469   H501    1.081   .     S
C469   N507    1.365   .     A
C470   H502    1.081   .     S
C470   N508    1.365   .     A
C471   N507    1.366   .     A
C471   C473    1.409   .     A
C471   H503    1.082   .     S
C472   C474    1.409   .     A
C472   H504    1.082   .     S
C472   N508    1.365   .     A
C473   H505    1.083   .     S
C473   C475    1.406   .     A
C474   H506    1.083   .     S
C474   C476    1.406   .     A
C476   C127    1.507   1_556 S
C477   C479    1.433   .     S
C477   O513    1.283   .     A
C477   O515    1.285   .     A
C478   O514    1.283   .     A
C478   C480    1.433   .     S
C478   O516    1.285   .     A
C480   C363    1.335   1_655 S
C480   H380    1.087   1_655 S
C481   C491    1.407   .     A
C481   C483    1.404   .     A
C481   I517    2.138   .     S
C482   C492    1.407   .     A
C482   C484    1.404   .     A
C482   I518    2.138   .     S
C483   C485    1.412   .     A
C483   Cl519   1.769   .     S
C484   Cl520   1.768   .     S
C484   C486    1.413   .     A
C485   C487    1.399   .     A
C486   C488    1.400   .     A
C487   C489    1.387   .     A
C487   H497    1.084   .     S
C488   C490    1.387   .     A
C488   H498    1.084   .     S
C489   H499    1.084   .     S
C489   C491    1.397   .     A
C490   H500    1.084   .     S
C490   C492    1.397   .     A
C491   C666    1.458   1_545 S
C492   C665    1.458   .     S
Cu493  Cu494   2.667   .     S
Cu493  O509    1.952   .     S
Cu493  N508    2.004   .     S
Cu493  O512    1.948   .     S
Cu493  O513    1.956   .     S
Cu493  O516    1.959   .     S
Cu494  O515    1.959   .     S
Cu494  O514    1.956   .     S
Cu494  N507    2.004   .     S
Cu494  O511    1.948   .     S
Cu494  O510    1.952   .     S
H495   C363    1.087   1_655 S
C523   C543    1.459   .     S
C523   O567    1.289   .     A
C523   O569    1.291   .     A
C524   C544    1.460   .     S
C524   O568    1.289   .     A
C524   O570    1.291   .     A
C525   C527    1.411   .     A
C525   Cl579   1.760   .     S
C525   C533    1.412   .     A
C526   C534    1.412   .     A
C526   C528    1.410   .     A
C526   Cl580   1.760   .     S
C527   H559    1.081   .     S
C527   N565    1.365   .     A
C528   H560    1.081   .     S
C528   N566    1.365   .     A
C529   N565    1.366   .     A
C529   C531    1.409   .     A
C529   H561    1.082   .     S
C530   C532    1.409   .     A
C530   H562    1.082   .     S
C530   N566    1.365   .     A
C531   H563    1.083   .     S
C531   C533    1.406   .     A
C532   H564    1.083   .     S
C532   C534    1.406   .     A
C534   C185    1.507   1_556 S
C535   C537    1.433   .     S
C535   O571    1.283   .     A
C535   O573    1.285   .     A
C536   O572    1.283   .     A
C536   C538    1.433   .     S
C536   O574    1.285   .     A
C537   C654    1.335   1_455 S
C537   H669    1.087   1_455 S
C538   C595    1.335   .     S
C538   H612    1.087   .     S
C539   C549    1.407   .     A
C539   C541    1.404   .     A
C539   I575    2.138   .     S
C540   C550    1.407   .     A
C540   C542    1.404   .     A
C540   I576    2.138   .     S
C541   C543    1.412   .     A
C541   Cl577   1.769   .     S
C542   Cl578   1.768   .     S
C542   C544    1.413   .     A
C543   C545    1.399   .     A
C544   C546    1.400   .     A
C545   C547    1.387   .     A
C545   H555    1.084   .     S
C546   C548    1.387   .     A
C546   H556    1.084   .     S
C547   H557    1.084   .     S
C547   C549    1.397   .     A
C548   H558    1.084   .     S
C548   C550    1.397   .     A
C550   C375    1.458   1_565 S
Cu551  Cu552   2.667   .     S
Cu551  O567    1.952   .     S
Cu551  N566    2.004   .     S
Cu551  O570    1.948   .     S
Cu551  O571    1.956   .     S
Cu551  O574    1.959   .     S
Cu552  O573    1.959   .     S
Cu552  O572    1.956   .     S
Cu552  N565    2.004   .     S
Cu552  O569    1.948   .     S
Cu552  O568    1.952   .     S
H553   C595    1.087   .     S
H554   C654    1.087   1_455 S
C581   C601    1.459   .     S
C581   O625    1.289   .     A
C581   O627    1.291   .     A
C582   C602    1.460   .     S
C582   O626    1.289   .     A
C582   O628    1.291   .     A
C583   C585    1.411   .     A
C583   Cl637   1.760   .     S
C583   C591    1.412   .     A
C584   C592    1.412   .     A
C584   C586    1.410   .     A
C584   Cl638   1.760   .     S
C585   H617    1.081   .     S
C585   N623    1.365   .     A
C586   H618    1.081   .     S
C586   N624    1.365   .     A
C587   N623    1.366   .     A
C587   C589    1.409   .     A
C587   H619    1.082   .     S
C588   C590    1.409   .     A
C588   H620    1.082   .     S
C588   N624    1.365   .     A
C589   H621    1.083   .     S
C589   C591    1.406   .     A
C590   H622    1.083   .     S
C590   C592    1.406   .     A
C592   C243    1.507   1_556 S
C593   C595    1.433   .     S
C593   O629    1.283   .     A
C593   O631    1.285   .     A
C594   O630    1.283   .     A
C594   C596    1.433   .     S
C594   O632    1.285   .     A
C596   C653    1.335   .     S
C596   H670    1.087   .     S
C597   C607    1.407   .     A
C597   C599    1.404   .     A
C597   I633    2.138   .     S
C598   C608    1.407   .     A
C598   C600    1.404   .     A
C598   I634    2.138   .     S
C599   C601    1.412   .     A
C599   Cl635   1.769   .     S
C600   Cl636   1.768   .     S
C600   C602    1.413   .     A
C601   C603    1.399   .     A
C602   C604    1.400   .     A
C603   C605    1.387   .     A
C603   H613    1.084   .     S
C604   C606    1.387   .     A
C604   H614    1.084   .     S
C605   H615    1.084   .     S
C605   C607    1.397   .     A
C606   H616    1.084   .     S
C606   C608    1.397   .     A
C608   C433    1.458   1_565 S
Cu609  Cu610   2.667   .     S
Cu609  O625    1.952   .     S
Cu609  N624    2.004   .     S
Cu609  O628    1.948   .     S
Cu609  O629    1.956   .     S
Cu609  O632    1.959   .     S
Cu610  O631    1.959   .     S
Cu610  O630    1.956   .     S
Cu610  N623    2.004   .     S
Cu610  O627    1.948   .     S
Cu610  O626    1.952   .     S
H611   C653    1.087   .     S
C639   C659    1.459   .     S
C639   O683    1.289   .     A
C639   O685    1.291   .     A
C640   C660    1.460   .     S
C640   O684    1.289   .     A
C640   O686    1.291   .     A
C641   C643    1.411   .     A
C641   Cl695   1.760   .     S
C641   C649    1.412   .     A
C642   C650    1.412   .     A
C642   C644    1.410   .     A
C642   Cl696   1.760   .     S
C643   H675    1.081   .     S
C643   N681    1.365   .     A
C644   H676    1.081   .     S
C644   N682    1.365   .     A
C645   N681    1.366   .     A
C645   C647    1.409   .     A
C645   H677    1.082   .     S
C646   C648    1.409   .     A
C646   H678    1.082   .     S
C646   N682    1.365   .     A
C647   H679    1.083   .     S
C647   C649    1.406   .     A
C648   H680    1.083   .     S
C648   C650    1.406   .     A
C650   C301    1.507   1_556 S
C651   C653    1.433   .     S
C651   O687    1.283   .     A
C651   O689    1.285   .     A
C652   O688    1.283   .     A
C652   C654    1.433   .     S
C652   O690    1.285   .     A
C654   C537    1.335   1_655 S
C654   H554    1.087   1_655 S
C655   C665    1.407   .     A
C655   C657    1.404   .     A
C655   I691    2.138   .     S
C656   C666    1.407   .     A
C656   C658    1.404   .     A
C656   I692    2.138   .     S
C657   C659    1.412   .     A
C657   Cl693   1.769   .     S
C658   Cl694   1.768   .     S
C658   C660    1.413   .     A
C659   C661    1.399   .     A
C660   C662    1.400   .     A
C661   C663    1.387   .     A
C661   H671    1.084   .     S
C662   C664    1.387   .     A
C662   H672    1.084   .     S
C663   H673    1.084   .     S
C663   C665    1.397   .     A
C664   H674    1.084   .     S
C664   C666    1.397   .     A
C666   C491    1.458   1_565 S
Cu667  Cu668   2.667   .     S
Cu667  O683    1.952   .     S
Cu667  N682    2.004   .     S
Cu667  O686    1.948   .     S
Cu667  O687    1.956   .     S
Cu667  O690    1.959   .     S
Cu668  O689    1.959   .     S
Cu668  O688    1.956   .     S
Cu668  N681    2.004   .     S
Cu668  O685    1.948   .     S
Cu668  O684    1.952   .     S
H669   C537    1.087   1_655 S
