data_str_m3_o10_o17_pcu_sym.136
_audit_creation_date              2020-01-03
_audit_creation_method            'Materials Studio'
_symmetry_space_group_name_H-M    'P1'
_symmetry_Int_Tables_number       1
_symmetry_cell_setting            triclinic
loop_
_symmetry_equiv_pos_as_xyz
  x,y,z
_cell_length_a                    23.4904
_cell_length_b                    25.6758
_cell_length_c                    29.9036
_cell_angle_alpha                 92.2943
_cell_angle_beta                  84.9601
_cell_angle_gamma                 93.6197
loop_
_atom_site_label
_atom_site_type_symbol
_atom_site_fract_x
_atom_site_fract_y
_atom_site_fract_z
_atom_site_U_iso_or_equiv
_atom_site_adp_type
_atom_site_occupancy
C1     C     0.18183   0.26482   0.24888   0.00000  Uiso   1.00
C2     C     0.21747   0.18104   0.40430   0.00000  Uiso   1.00
C3     C     0.16618   0.16741   0.11561   0.00000  Uiso   1.00
C4     C     0.16716   0.16592   0.38439   0.00000  Uiso   1.00
C5     C     0.21655   0.18271   0.08987   0.00000  Uiso   1.00
C6     C     0.11679   0.15063   0.41013   0.00000  Uiso   1.00
C7     C     0.21705   0.18282   0.04362   0.00000  Uiso   1.00
C8     C     0.11629   0.15051   0.45638   0.00000  Uiso   1.00
C9     C     0.16653   0.16694   0.02326   0.00000  Uiso   1.00
C10    C     0.16680   0.16639   0.47674   0.00000  Uiso   1.00
C11    C     0.11575   0.15158   0.04944   0.00000  Uiso   1.00
C12    C     0.15151   0.06851   0.25112   0.00000  Uiso   1.00
C13    C     0.21759   0.18175   0.45056   0.00000  Uiso   1.00
C14    C     0.26712   0.19843   0.01748   0.00000  Uiso   1.00
C15    C     0.06622   0.13490   0.48252   0.00000  Uiso   1.00
C16    C     0.26742   0.19783   0.47099   0.00000  Uiso   1.00
C17    C     0.06592   0.13550   0.02901   0.00000  Uiso   1.00
C18    C     0.18980   0.31934   0.24821   0.00000  Uiso   1.00
C19    C     0.14354   0.01399   0.25179   0.00000  Uiso   1.00
C20    C     0.16689   0.16653   0.33652   0.00000  Uiso   1.00
C21    C     0.16645   0.16680   0.16348   0.00000  Uiso   1.00
C22    C     0.11587   0.15229   0.09570   0.00000  Uiso   1.00
Cl23   Cl    0.01279   0.10542   0.20192   0.00000  Uiso   1.00
Cl24   Cl    0.32055   0.22791   0.29808   0.00000  Uiso   1.00
H25    H     0.07719   0.14027   0.11609   0.00000  Uiso   1.00
H26    H     0.09979   0.33041   0.25524   0.00000  Uiso   1.00
H27    H     0.25615   0.19306   0.38391   0.00000  Uiso   1.00
H28    H     0.25518   0.19485   0.10585   0.00000  Uiso   1.00
H29    H     0.07816   0.13848   0.39415   0.00000  Uiso   1.00
H30    H     0.30590   0.21102   0.03299   0.00000  Uiso   1.00
H31    H     0.02743   0.12231   0.46701   0.00000  Uiso   1.00
H32    H     0.30646   0.20988   0.45106   0.00000  Uiso   1.00
H33    H     0.02687   0.12345   0.04894   0.00000  Uiso   1.00
H34    H     0.23354   0.00293   0.24476   0.00000  Uiso   1.00
N35    N     0.31678   0.15265   0.23783   0.00000  Uiso   1.00
N36    N     0.01656   0.18068   0.26217   0.00000  Uiso   1.00
O37    O     0.12975   0.24619   0.25298   0.00000  Uiso   1.00
O38    O     0.20358   0.08714   0.24702   0.00000  Uiso   1.00
O39    O     0.22613   0.23721   0.24519   0.00000  Uiso   1.00
O40    O     0.10720   0.09613   0.25481   0.00000  Uiso   1.00
O41    O     0.11847   0.17117   0.31997   0.00000  Uiso   1.00
O42    O     0.21486   0.16216   0.18003   0.00000  Uiso   1.00
O43    O     0.21485   0.16219   0.31218   0.00000  Uiso   1.00
O44    O     0.11848   0.17115   0.18782   0.00000  Uiso   1.00
Zn45   Zn    0.10231   0.17266   0.25521   0.00000  Uiso   1.00
Zn46   Zn    0.23102   0.16067   0.24479   0.00000  Uiso   1.00
C47    C     0.51516   0.26482   0.24888   0.00000  Uiso   1.00
C48    C     0.55080   0.18104   0.40430   0.00000  Uiso   1.00
C49    C     0.49951   0.16741   0.11561   0.00000  Uiso   1.00
C50    C     0.50049   0.16592   0.38439   0.00000  Uiso   1.00
C51    C     0.54988   0.18271   0.08987   0.00000  Uiso   1.00
C52    C     0.45012   0.15063   0.41013   0.00000  Uiso   1.00
C53    C     0.55038   0.18282   0.04362   0.00000  Uiso   1.00
C54    C     0.44962   0.15051   0.45638   0.00000  Uiso   1.00
C55    C     0.49986   0.16694   0.02326   0.00000  Uiso   1.00
C56    C     0.50014   0.16639   0.47674   0.00000  Uiso   1.00
C57    C     0.44908   0.15158   0.04944   0.00000  Uiso   1.00
C58    C     0.48484   0.06851   0.25112   0.00000  Uiso   1.00
C59    C     0.55092   0.18175   0.45056   0.00000  Uiso   1.00
C60    C     0.60045   0.19843   0.01748   0.00000  Uiso   1.00
C61    C     0.39955   0.13490   0.48252   0.00000  Uiso   1.00
C62    C     0.60075   0.19783   0.47099   0.00000  Uiso   1.00
C63    C     0.39925   0.13550   0.02901   0.00000  Uiso   1.00
C64    C     0.52313   0.31934   0.24821   0.00000  Uiso   1.00
C65    C     0.47687   0.01399   0.25179   0.00000  Uiso   1.00
C66    C     0.50022   0.16653   0.33652   0.00000  Uiso   1.00
C67    C     0.49978   0.16680   0.16348   0.00000  Uiso   1.00
C68    C     0.44920   0.15229   0.09570   0.00000  Uiso   1.00
Cl69   Cl    0.34612   0.10542   0.20192   0.00000  Uiso   1.00
Cl70   Cl    0.65388   0.22791   0.29808   0.00000  Uiso   1.00
H71    H     0.41052   0.14027   0.11609   0.00000  Uiso   1.00
H72    H     0.43313   0.33041   0.25524   0.00000  Uiso   1.00
H73    H     0.58948   0.19306   0.38391   0.00000  Uiso   1.00
H74    H     0.58851   0.19485   0.10585   0.00000  Uiso   1.00
H75    H     0.41149   0.13848   0.39415   0.00000  Uiso   1.00
H76    H     0.63923   0.21102   0.03299   0.00000  Uiso   1.00
H77    H     0.36077   0.12231   0.46701   0.00000  Uiso   1.00
H78    H     0.63979   0.20988   0.45106   0.00000  Uiso   1.00
H79    H     0.36021   0.12345   0.04894   0.00000  Uiso   1.00
H80    H     0.56687   0.00293   0.24476   0.00000  Uiso   1.00
N81    N     0.65011   0.15265   0.23783   0.00000  Uiso   1.00
N82    N     0.34989   0.18068   0.26217   0.00000  Uiso   1.00
O83    O     0.46308   0.24619   0.25298   0.00000  Uiso   1.00
O84    O     0.53692   0.08714   0.24702   0.00000  Uiso   1.00
O85    O     0.55946   0.23721   0.24519   0.00000  Uiso   1.00
O86    O     0.44054   0.09613   0.25481   0.00000  Uiso   1.00
O87    O     0.45181   0.17117   0.31997   0.00000  Uiso   1.00
O88    O     0.54819   0.16216   0.18003   0.00000  Uiso   1.00
O89    O     0.54819   0.16219   0.31218   0.00000  Uiso   1.00
O90    O     0.45181   0.17115   0.18782   0.00000  Uiso   1.00
Zn91   Zn    0.43565   0.17266   0.25521   0.00000  Uiso   1.00
Zn92   Zn    0.56435   0.16067   0.24479   0.00000  Uiso   1.00
C93    C     0.84849   0.26482   0.24888   0.00000  Uiso   1.00
C94    C     0.88413   0.18104   0.40430   0.00000  Uiso   1.00
C95    C     0.83285   0.16741   0.11561   0.00000  Uiso   1.00
C96    C     0.83382   0.16592   0.38439   0.00000  Uiso   1.00
C97    C     0.88321   0.18271   0.08987   0.00000  Uiso   1.00
C98    C     0.78345   0.15063   0.41013   0.00000  Uiso   1.00
C99    C     0.88371   0.18282   0.04362   0.00000  Uiso   1.00
C100   C     0.78295   0.15051   0.45638   0.00000  Uiso   1.00
C101   C     0.83320   0.16694   0.02326   0.00000  Uiso   1.00
C102   C     0.83347   0.16639   0.47674   0.00000  Uiso   1.00
C103   C     0.78241   0.15158   0.04944   0.00000  Uiso   1.00
C104   C     0.81817   0.06851   0.25112   0.00000  Uiso   1.00
C105   C     0.88425   0.18175   0.45056   0.00000  Uiso   1.00
C106   C     0.93378   0.19843   0.01748   0.00000  Uiso   1.00
C107   C     0.73288   0.13490   0.48252   0.00000  Uiso   1.00
C108   C     0.93408   0.19783   0.47099   0.00000  Uiso   1.00
C109   C     0.73259   0.13550   0.02901   0.00000  Uiso   1.00
C110   C     0.85647   0.31934   0.24821   0.00000  Uiso   1.00
C111   C     0.81020   0.01399   0.25179   0.00000  Uiso   1.00
C112   C     0.83355   0.16653   0.33652   0.00000  Uiso   1.00
C113   C     0.83311   0.16680   0.16348   0.00000  Uiso   1.00
C114   C     0.78253   0.15229   0.09570   0.00000  Uiso   1.00
Cl115  Cl    0.67946   0.10542   0.20192   0.00000  Uiso   1.00
Cl116  Cl    0.98721   0.22791   0.29808   0.00000  Uiso   1.00
H117   H     0.74385   0.14027   0.11609   0.00000  Uiso   1.00
H118   H     0.76646   0.33041   0.25524   0.00000  Uiso   1.00
H119   H     0.92281   0.19306   0.38391   0.00000  Uiso   1.00
H120   H     0.92184   0.19485   0.10585   0.00000  Uiso   1.00
H121   H     0.74482   0.13848   0.39415   0.00000  Uiso   1.00
H122   H     0.97257   0.21102   0.03299   0.00000  Uiso   1.00
H123   H     0.69410   0.12231   0.46701   0.00000  Uiso   1.00
H124   H     0.97313   0.20988   0.45106   0.00000  Uiso   1.00
H125   H     0.69354   0.12345   0.04894   0.00000  Uiso   1.00
H126   H     0.90021   0.00293   0.24476   0.00000  Uiso   1.00
N127   N     0.98344   0.15265   0.23783   0.00000  Uiso   1.00
N128   N     0.68322   0.18068   0.26217   0.00000  Uiso   1.00
O129   O     0.79642   0.24619   0.25298   0.00000  Uiso   1.00
O130   O     0.87025   0.08714   0.24702   0.00000  Uiso   1.00
O131   O     0.89280   0.23721   0.24519   0.00000  Uiso   1.00
O132   O     0.77387   0.09613   0.25481   0.00000  Uiso   1.00
O133   O     0.78514   0.17117   0.31997   0.00000  Uiso   1.00
O134   O     0.88153   0.16216   0.18003   0.00000  Uiso   1.00
O135   O     0.88152   0.16219   0.31218   0.00000  Uiso   1.00
O136   O     0.78515   0.17115   0.18782   0.00000  Uiso   1.00
Zn137  Zn    0.76898   0.17266   0.25521   0.00000  Uiso   1.00
Zn138  Zn    0.89769   0.16067   0.24479   0.00000  Uiso   1.00
C139   C     0.18183   0.59815   0.24888   0.00000  Uiso   1.00
C140   C     0.21747   0.51437   0.40430   0.00000  Uiso   1.00
C141   C     0.16618   0.50074   0.11561   0.00000  Uiso   1.00
C142   C     0.16716   0.49926   0.38439   0.00000  Uiso   1.00
C143   C     0.21655   0.51604   0.08987   0.00000  Uiso   1.00
C144   C     0.11679   0.48396   0.41013   0.00000  Uiso   1.00
C145   C     0.21705   0.51615   0.04362   0.00000  Uiso   1.00
C146   C     0.11629   0.48385   0.45638   0.00000  Uiso   1.00
C147   C     0.16653   0.50027   0.02326   0.00000  Uiso   1.00
C148   C     0.16680   0.49973   0.47674   0.00000  Uiso   1.00
C149   C     0.11575   0.48491   0.04944   0.00000  Uiso   1.00
C150   C     0.15151   0.40185   0.25112   0.00000  Uiso   1.00
C151   C     0.21759   0.51508   0.45056   0.00000  Uiso   1.00
C152   C     0.26712   0.53177   0.01748   0.00000  Uiso   1.00
C153   C     0.06622   0.46823   0.48252   0.00000  Uiso   1.00
C154   C     0.26742   0.53117   0.47099   0.00000  Uiso   1.00
C155   C     0.06592   0.46883   0.02901   0.00000  Uiso   1.00
C156   C     0.18980   0.65267   0.24821   0.00000  Uiso   1.00
C157   C     0.14354   0.34733   0.25179   0.00000  Uiso   1.00
C158   C     0.16689   0.49986   0.33652   0.00000  Uiso   1.00
C159   C     0.16645   0.50014   0.16348   0.00000  Uiso   1.00
C160   C     0.11587   0.48563   0.09570   0.00000  Uiso   1.00
Cl161  Cl    0.01279   0.43876   0.20192   0.00000  Uiso   1.00
Cl162  Cl    0.32055   0.56124   0.29808   0.00000  Uiso   1.00
H163   H     0.07719   0.47361   0.11609   0.00000  Uiso   1.00
H164   H     0.09979   0.66374   0.25524   0.00000  Uiso   1.00
H165   H     0.25615   0.52639   0.38391   0.00000  Uiso   1.00
H166   H     0.25518   0.52818   0.10585   0.00000  Uiso   1.00
H167   H     0.07816   0.47182   0.39415   0.00000  Uiso   1.00
H168   H     0.30590   0.54435   0.03299   0.00000  Uiso   1.00
H169   H     0.02743   0.45565   0.46701   0.00000  Uiso   1.00
H170   H     0.30646   0.54321   0.45106   0.00000  Uiso   1.00
H171   H     0.02687   0.45679   0.04894   0.00000  Uiso   1.00
H172   H     0.23354   0.33626   0.24476   0.00000  Uiso   1.00
N173   N     0.31678   0.48598   0.23783   0.00000  Uiso   1.00
N174   N     0.01656   0.51402   0.26217   0.00000  Uiso   1.00
O175   O     0.12975   0.57952   0.25298   0.00000  Uiso   1.00
O176   O     0.20358   0.42048   0.24702   0.00000  Uiso   1.00
O177   O     0.22613   0.57054   0.24519   0.00000  Uiso   1.00
O178   O     0.10720   0.42946   0.25481   0.00000  Uiso   1.00
O179   O     0.11847   0.50450   0.31997   0.00000  Uiso   1.00
O180   O     0.21486   0.49550   0.18003   0.00000  Uiso   1.00
O181   O     0.21485   0.49552   0.31218   0.00000  Uiso   1.00
O182   O     0.11848   0.50448   0.18782   0.00000  Uiso   1.00
Zn183  Zn    0.10231   0.50600   0.25521   0.00000  Uiso   1.00
Zn184  Zn    0.23102   0.49400   0.24479   0.00000  Uiso   1.00
C185   C     0.51516   0.59815   0.24888   0.00000  Uiso   1.00
C186   C     0.55080   0.51437   0.40430   0.00000  Uiso   1.00
C187   C     0.49951   0.50074   0.11561   0.00000  Uiso   1.00
C188   C     0.50049   0.49926   0.38439   0.00000  Uiso   1.00
C189   C     0.54988   0.51604   0.08987   0.00000  Uiso   1.00
C190   C     0.45012   0.48396   0.41013   0.00000  Uiso   1.00
C191   C     0.55038   0.51615   0.04362   0.00000  Uiso   1.00
C192   C     0.44962   0.48385   0.45638   0.00000  Uiso   1.00
C193   C     0.49986   0.50027   0.02326   0.00000  Uiso   1.00
C194   C     0.50014   0.49973   0.47674   0.00000  Uiso   1.00
C195   C     0.44908   0.48491   0.04944   0.00000  Uiso   1.00
C196   C     0.48484   0.40185   0.25112   0.00000  Uiso   1.00
C197   C     0.55092   0.51508   0.45056   0.00000  Uiso   1.00
C198   C     0.60045   0.53177   0.01748   0.00000  Uiso   1.00
C199   C     0.39955   0.46823   0.48252   0.00000  Uiso   1.00
C200   C     0.60075   0.53117   0.47099   0.00000  Uiso   1.00
C201   C     0.39925   0.46883   0.02901   0.00000  Uiso   1.00
C202   C     0.52313   0.65267   0.24821   0.00000  Uiso   1.00
C203   C     0.47687   0.34733   0.25179   0.00000  Uiso   1.00
C204   C     0.50022   0.49986   0.33652   0.00000  Uiso   1.00
C205   C     0.49978   0.50014   0.16348   0.00000  Uiso   1.00
C206   C     0.44920   0.48563   0.09570   0.00000  Uiso   1.00
Cl207  Cl    0.34612   0.43876   0.20192   0.00000  Uiso   1.00
Cl208  Cl    0.65388   0.56124   0.29808   0.00000  Uiso   1.00
H209   H     0.41052   0.47361   0.11609   0.00000  Uiso   1.00
H210   H     0.43313   0.66374   0.25524   0.00000  Uiso   1.00
H211   H     0.58948   0.52639   0.38391   0.00000  Uiso   1.00
H212   H     0.58851   0.52818   0.10585   0.00000  Uiso   1.00
H213   H     0.41149   0.47182   0.39415   0.00000  Uiso   1.00
H214   H     0.63923   0.54435   0.03299   0.00000  Uiso   1.00
H215   H     0.36077   0.45565   0.46701   0.00000  Uiso   1.00
H216   H     0.63979   0.54321   0.45106   0.00000  Uiso   1.00
H217   H     0.36021   0.45679   0.04894   0.00000  Uiso   1.00
H218   H     0.56687   0.33626   0.24476   0.00000  Uiso   1.00
N219   N     0.65011   0.48598   0.23783   0.00000  Uiso   1.00
N220   N     0.34989   0.51402   0.26217   0.00000  Uiso   1.00
O221   O     0.46308   0.57952   0.25298   0.00000  Uiso   1.00
O222   O     0.53692   0.42048   0.24702   0.00000  Uiso   1.00
O223   O     0.55946   0.57054   0.24519   0.00000  Uiso   1.00
O224   O     0.44054   0.42946   0.25481   0.00000  Uiso   1.00
O225   O     0.45181   0.50450   0.31997   0.00000  Uiso   1.00
O226   O     0.54819   0.49550   0.18003   0.00000  Uiso   1.00
O227   O     0.54819   0.49552   0.31218   0.00000  Uiso   1.00
O228   O     0.45181   0.50448   0.18782   0.00000  Uiso   1.00
Zn229  Zn    0.43565   0.50600   0.25521   0.00000  Uiso   1.00
Zn230  Zn    0.56435   0.49400   0.24479   0.00000  Uiso   1.00
C231   C     0.84849   0.59815   0.24888   0.00000  Uiso   1.00
C232   C     0.88413   0.51437   0.40430   0.00000  Uiso   1.00
C233   C     0.83285   0.50074   0.11561   0.00000  Uiso   1.00
C234   C     0.83382   0.49926   0.38439   0.00000  Uiso   1.00
C235   C     0.88321   0.51604   0.08987   0.00000  Uiso   1.00
C236   C     0.78345   0.48396   0.41013   0.00000  Uiso   1.00
C237   C     0.88371   0.51615   0.04362   0.00000  Uiso   1.00
C238   C     0.78295   0.48385   0.45638   0.00000  Uiso   1.00
C239   C     0.83320   0.50027   0.02326   0.00000  Uiso   1.00
C240   C     0.83347   0.49973   0.47674   0.00000  Uiso   1.00
C241   C     0.78241   0.48491   0.04944   0.00000  Uiso   1.00
C242   C     0.81817   0.40185   0.25112   0.00000  Uiso   1.00
C243   C     0.88425   0.51508   0.45056   0.00000  Uiso   1.00
C244   C     0.93378   0.53177   0.01748   0.00000  Uiso   1.00
C245   C     0.73288   0.46823   0.48252   0.00000  Uiso   1.00
C246   C     0.93408   0.53117   0.47099   0.00000  Uiso   1.00
C247   C     0.73259   0.46883   0.02901   0.00000  Uiso   1.00
C248   C     0.85647   0.65267   0.24821   0.00000  Uiso   1.00
C249   C     0.81020   0.34733   0.25179   0.00000  Uiso   1.00
C250   C     0.83355   0.49986   0.33652   0.00000  Uiso   1.00
C251   C     0.83311   0.50014   0.16348   0.00000  Uiso   1.00
C252   C     0.78253   0.48563   0.09570   0.00000  Uiso   1.00
Cl253  Cl    0.67946   0.43876   0.20192   0.00000  Uiso   1.00
Cl254  Cl    0.98721   0.56124   0.29808   0.00000  Uiso   1.00
H255   H     0.74385   0.47361   0.11609   0.00000  Uiso   1.00
H256   H     0.76646   0.66374   0.25524   0.00000  Uiso   1.00
H257   H     0.92281   0.52639   0.38391   0.00000  Uiso   1.00
H258   H     0.92184   0.52818   0.10585   0.00000  Uiso   1.00
H259   H     0.74482   0.47182   0.39415   0.00000  Uiso   1.00
H260   H     0.97257   0.54435   0.03299   0.00000  Uiso   1.00
H261   H     0.69410   0.45565   0.46701   0.00000  Uiso   1.00
H262   H     0.97313   0.54321   0.45106   0.00000  Uiso   1.00
H263   H     0.69354   0.45679   0.04894   0.00000  Uiso   1.00
H264   H     0.90021   0.33626   0.24476   0.00000  Uiso   1.00
N265   N     0.98344   0.48598   0.23783   0.00000  Uiso   1.00
N266   N     0.68322   0.51402   0.26217   0.00000  Uiso   1.00
O267   O     0.79642   0.57952   0.25298   0.00000  Uiso   1.00
O268   O     0.87025   0.42048   0.24702   0.00000  Uiso   1.00
O269   O     0.89280   0.57054   0.24519   0.00000  Uiso   1.00
O270   O     0.77387   0.42946   0.25481   0.00000  Uiso   1.00
O271   O     0.78514   0.50450   0.31997   0.00000  Uiso   1.00
O272   O     0.88153   0.49550   0.18003   0.00000  Uiso   1.00
O273   O     0.88152   0.49552   0.31218   0.00000  Uiso   1.00
O274   O     0.78515   0.50448   0.18782   0.00000  Uiso   1.00
Zn275  Zn    0.76898   0.50600   0.25521   0.00000  Uiso   1.00
Zn276  Zn    0.89769   0.49400   0.24479   0.00000  Uiso   1.00
C277   C     0.18183   0.93149   0.24888   0.00000  Uiso   1.00
C278   C     0.21747   0.84771   0.40430   0.00000  Uiso   1.00
C279   C     0.16618   0.83408   0.11561   0.00000  Uiso   1.00
C280   C     0.16716   0.83259   0.38439   0.00000  Uiso   1.00
C281   C     0.21655   0.84937   0.08987   0.00000  Uiso   1.00
C282   C     0.11679   0.81729   0.41013   0.00000  Uiso   1.00
C283   C     0.21705   0.84949   0.04362   0.00000  Uiso   1.00
C284   C     0.11629   0.81718   0.45638   0.00000  Uiso   1.00
C285   C     0.16653   0.83361   0.02326   0.00000  Uiso   1.00
C286   C     0.16680   0.83306   0.47674   0.00000  Uiso   1.00
C287   C     0.11575   0.81825   0.04944   0.00000  Uiso   1.00
C288   C     0.15151   0.73518   0.25112   0.00000  Uiso   1.00
C289   C     0.21759   0.84842   0.45056   0.00000  Uiso   1.00
C290   C     0.26712   0.86510   0.01748   0.00000  Uiso   1.00
C291   C     0.06622   0.80157   0.48252   0.00000  Uiso   1.00
C292   C     0.26742   0.86450   0.47099   0.00000  Uiso   1.00
C293   C     0.06592   0.80216   0.02901   0.00000  Uiso   1.00
C294   C     0.18980   0.98601   0.24821   0.00000  Uiso   1.00
C295   C     0.14354   0.68066   0.25179   0.00000  Uiso   1.00
C296   C     0.16689   0.83320   0.33652   0.00000  Uiso   1.00
C297   C     0.16645   0.83347   0.16348   0.00000  Uiso   1.00
C298   C     0.11587   0.81896   0.09570   0.00000  Uiso   1.00
Cl299  Cl    0.01279   0.77209   0.20192   0.00000  Uiso   1.00
Cl300  Cl    0.32055   0.89458   0.29808   0.00000  Uiso   1.00
H301   H     0.07719   0.80694   0.11609   0.00000  Uiso   1.00
H302   H     0.09979   0.99707   0.25524   0.00000  Uiso   1.00
H303   H     0.25615   0.85973   0.38391   0.00000  Uiso   1.00
H304   H     0.25518   0.86152   0.10585   0.00000  Uiso   1.00
H305   H     0.07816   0.80515   0.39415   0.00000  Uiso   1.00
H306   H     0.30590   0.87768   0.03299   0.00000  Uiso   1.00
H307   H     0.02743   0.78898   0.46701   0.00000  Uiso   1.00
H308   H     0.30646   0.87655   0.45106   0.00000  Uiso   1.00
H309   H     0.02687   0.79012   0.04894   0.00000  Uiso   1.00
H310   H     0.23354   0.66959   0.24476   0.00000  Uiso   1.00
N311   N     0.31678   0.81932   0.23783   0.00000  Uiso   1.00
N312   N     0.01656   0.84735   0.26217   0.00000  Uiso   1.00
O313   O     0.12975   0.91286   0.25298   0.00000  Uiso   1.00
O314   O     0.20358   0.75381   0.24702   0.00000  Uiso   1.00
O315   O     0.22613   0.90387   0.24519   0.00000  Uiso   1.00
O316   O     0.10720   0.76279   0.25481   0.00000  Uiso   1.00
O317   O     0.11847   0.83784   0.31997   0.00000  Uiso   1.00
O318   O     0.21486   0.82883   0.18003   0.00000  Uiso   1.00
O319   O     0.21485   0.82885   0.31218   0.00000  Uiso   1.00
O320   O     0.11848   0.83781   0.18782   0.00000  Uiso   1.00
Zn321  Zn    0.10231   0.83933   0.25521   0.00000  Uiso   1.00
Zn322  Zn    0.23102   0.82734   0.24479   0.00000  Uiso   1.00
C323   C     0.51516   0.93149   0.24888   0.00000  Uiso   1.00
C324   C     0.55080   0.84771   0.40430   0.00000  Uiso   1.00
C325   C     0.49951   0.83408   0.11561   0.00000  Uiso   1.00
C326   C     0.50049   0.83259   0.38439   0.00000  Uiso   1.00
C327   C     0.54988   0.84937   0.08987   0.00000  Uiso   1.00
C328   C     0.45012   0.81729   0.41013   0.00000  Uiso   1.00
C329   C     0.55038   0.84949   0.04362   0.00000  Uiso   1.00
C330   C     0.44962   0.81718   0.45638   0.00000  Uiso   1.00
C331   C     0.49986   0.83361   0.02326   0.00000  Uiso   1.00
C332   C     0.50014   0.83306   0.47674   0.00000  Uiso   1.00
C333   C     0.44908   0.81825   0.04944   0.00000  Uiso   1.00
C334   C     0.48484   0.73518   0.25112   0.00000  Uiso   1.00
C335   C     0.55092   0.84842   0.45056   0.00000  Uiso   1.00
C336   C     0.60045   0.86510   0.01748   0.00000  Uiso   1.00
C337   C     0.39955   0.80157   0.48252   0.00000  Uiso   1.00
C338   C     0.60075   0.86450   0.47099   0.00000  Uiso   1.00
C339   C     0.39925   0.80216   0.02901   0.00000  Uiso   1.00
C340   C     0.52313   0.98601   0.24821   0.00000  Uiso   1.00
C341   C     0.47687   0.68066   0.25179   0.00000  Uiso   1.00
C342   C     0.50022   0.83320   0.33652   0.00000  Uiso   1.00
C343   C     0.49978   0.83347   0.16348   0.00000  Uiso   1.00
C344   C     0.44920   0.81896   0.09570   0.00000  Uiso   1.00
Cl345  Cl    0.34612   0.77209   0.20192   0.00000  Uiso   1.00
Cl346  Cl    0.65388   0.89458   0.29808   0.00000  Uiso   1.00
H347   H     0.41052   0.80694   0.11609   0.00000  Uiso   1.00
H348   H     0.43313   0.99707   0.25524   0.00000  Uiso   1.00
H349   H     0.58948   0.85973   0.38391   0.00000  Uiso   1.00
H350   H     0.58851   0.86152   0.10585   0.00000  Uiso   1.00
H351   H     0.41149   0.80515   0.39415   0.00000  Uiso   1.00
H352   H     0.63923   0.87768   0.03299   0.00000  Uiso   1.00
H353   H     0.36077   0.78898   0.46701   0.00000  Uiso   1.00
H354   H     0.63979   0.87655   0.45106   0.00000  Uiso   1.00
H355   H     0.36021   0.79012   0.04894   0.00000  Uiso   1.00
H356   H     0.56687   0.66959   0.24476   0.00000  Uiso   1.00
N357   N     0.65011   0.81932   0.23783   0.00000  Uiso   1.00
N358   N     0.34989   0.84735   0.26217   0.00000  Uiso   1.00
O359   O     0.46308   0.91286   0.25298   0.00000  Uiso   1.00
O360   O     0.53692   0.75381   0.24702   0.00000  Uiso   1.00
O361   O     0.55946   0.90387   0.24519   0.00000  Uiso   1.00
O362   O     0.44054   0.76279   0.25481   0.00000  Uiso   1.00
O363   O     0.45181   0.83784   0.31997   0.00000  Uiso   1.00
O364   O     0.54819   0.82883   0.18003   0.00000  Uiso   1.00
O365   O     0.54819   0.82885   0.31218   0.00000  Uiso   1.00
O366   O     0.45181   0.83781   0.18782   0.00000  Uiso   1.00
Zn367  Zn    0.43565   0.83933   0.25521   0.00000  Uiso   1.00
Zn368  Zn    0.56435   0.82734   0.24479   0.00000  Uiso   1.00
C369   C     0.84849   0.93149   0.24888   0.00000  Uiso   1.00
C370   C     0.88413   0.84771   0.40430   0.00000  Uiso   1.00
C371   C     0.83285   0.83408   0.11561   0.00000  Uiso   1.00
C372   C     0.83382   0.83259   0.38439   0.00000  Uiso   1.00
C373   C     0.88321   0.84937   0.08987   0.00000  Uiso   1.00
C374   C     0.78345   0.81729   0.41013   0.00000  Uiso   1.00
C375   C     0.88371   0.84949   0.04362   0.00000  Uiso   1.00
C376   C     0.78295   0.81718   0.45638   0.00000  Uiso   1.00
C377   C     0.83320   0.83361   0.02326   0.00000  Uiso   1.00
C378   C     0.83347   0.83306   0.47674   0.00000  Uiso   1.00
C379   C     0.78241   0.81825   0.04944   0.00000  Uiso   1.00
C380   C     0.81817   0.73518   0.25112   0.00000  Uiso   1.00
C381   C     0.88425   0.84842   0.45056   0.00000  Uiso   1.00
C382   C     0.93378   0.86510   0.01748   0.00000  Uiso   1.00
C383   C     0.73288   0.80157   0.48252   0.00000  Uiso   1.00
C384   C     0.93408   0.86450   0.47099   0.00000  Uiso   1.00
C385   C     0.73259   0.80216   0.02901   0.00000  Uiso   1.00
C386   C     0.85647   0.98601   0.24821   0.00000  Uiso   1.00
C387   C     0.81020   0.68066   0.25179   0.00000  Uiso   1.00
C388   C     0.83355   0.83320   0.33652   0.00000  Uiso   1.00
C389   C     0.83311   0.83347   0.16348   0.00000  Uiso   1.00
C390   C     0.78253   0.81896   0.09570   0.00000  Uiso   1.00
Cl391  Cl    0.67946   0.77209   0.20192   0.00000  Uiso   1.00
Cl392  Cl    0.98721   0.89458   0.29808   0.00000  Uiso   1.00
H393   H     0.74385   0.80694   0.11609   0.00000  Uiso   1.00
H394   H     0.76646   0.99707   0.25524   0.00000  Uiso   1.00
H395   H     0.92281   0.85973   0.38391   0.00000  Uiso   1.00
H396   H     0.92184   0.86152   0.10585   0.00000  Uiso   1.00
H397   H     0.74482   0.80515   0.39415   0.00000  Uiso   1.00
H398   H     0.97257   0.87768   0.03299   0.00000  Uiso   1.00
H399   H     0.69410   0.78898   0.46701   0.00000  Uiso   1.00
H400   H     0.97313   0.87655   0.45106   0.00000  Uiso   1.00
H401   H     0.69354   0.79012   0.04894   0.00000  Uiso   1.00
H402   H     0.90021   0.66959   0.24476   0.00000  Uiso   1.00
N403   N     0.98344   0.81932   0.23783   0.00000  Uiso   1.00
N404   N     0.68322   0.84735   0.26217   0.00000  Uiso   1.00
O405   O     0.79642   0.91286   0.25298   0.00000  Uiso   1.00
O406   O     0.87025   0.75381   0.24702   0.00000  Uiso   1.00
O407   O     0.89280   0.90387   0.24519   0.00000  Uiso   1.00
O408   O     0.77387   0.76279   0.25481   0.00000  Uiso   1.00
O409   O     0.78514   0.83784   0.31997   0.00000  Uiso   1.00
O410   O     0.88153   0.82883   0.18003   0.00000  Uiso   1.00
O411   O     0.88152   0.82885   0.31218   0.00000  Uiso   1.00
O412   O     0.78515   0.83781   0.18782   0.00000  Uiso   1.00
Zn413  Zn    0.76898   0.83933   0.25521   0.00000  Uiso   1.00
Zn414  Zn    0.89769   0.82734   0.24479   0.00000  Uiso   1.00
C415   C     0.18183   0.26482   0.74888   0.00000  Uiso   1.00
C416   C     0.21747   0.18104   0.90430   0.00000  Uiso   1.00
C417   C     0.16618   0.16741   0.61561   0.00000  Uiso   1.00
C418   C     0.16716   0.16592   0.88439   0.00000  Uiso   1.00
C419   C     0.21655   0.18271   0.58987   0.00000  Uiso   1.00
C420   C     0.11679   0.15063   0.91013   0.00000  Uiso   1.00
C421   C     0.21705   0.18282   0.54362   0.00000  Uiso   1.00
C422   C     0.11629   0.15051   0.95638   0.00000  Uiso   1.00
C423   C     0.16653   0.16694   0.52326   0.00000  Uiso   1.00
C424   C     0.16680   0.16639   0.97674   0.00000  Uiso   1.00
C425   C     0.11575   0.15158   0.54944   0.00000  Uiso   1.00
C426   C     0.15151   0.06851   0.75112   0.00000  Uiso   1.00
C427   C     0.21759   0.18175   0.95056   0.00000  Uiso   1.00
C428   C     0.26712   0.19843   0.51748   0.00000  Uiso   1.00
C429   C     0.06622   0.13490   0.98252   0.00000  Uiso   1.00
C430   C     0.26742   0.19783   0.97099   0.00000  Uiso   1.00
C431   C     0.06592   0.13550   0.52901   0.00000  Uiso   1.00
C432   C     0.18980   0.31934   0.74821   0.00000  Uiso   1.00
C433   C     0.14354   0.01399   0.75179   0.00000  Uiso   1.00
C434   C     0.16689   0.16653   0.83652   0.00000  Uiso   1.00
C435   C     0.16645   0.16680   0.66348   0.00000  Uiso   1.00
C436   C     0.11587   0.15229   0.59570   0.00000  Uiso   1.00
Cl437  Cl    0.01279   0.10542   0.70192   0.00000  Uiso   1.00
Cl438  Cl    0.32055   0.22791   0.79808   0.00000  Uiso   1.00
H439   H     0.07719   0.14027   0.61609   0.00000  Uiso   1.00
H440   H     0.09979   0.33041   0.75524   0.00000  Uiso   1.00
H441   H     0.25615   0.19306   0.88391   0.00000  Uiso   1.00
H442   H     0.25518   0.19485   0.60585   0.00000  Uiso   1.00
H443   H     0.07816   0.13848   0.89415   0.00000  Uiso   1.00
H444   H     0.30590   0.21102   0.53299   0.00000  Uiso   1.00
H445   H     0.02743   0.12231   0.96701   0.00000  Uiso   1.00
H446   H     0.30646   0.20988   0.95106   0.00000  Uiso   1.00
H447   H     0.02687   0.12345   0.54894   0.00000  Uiso   1.00
H448   H     0.23354   0.00293   0.74476   0.00000  Uiso   1.00
N449   N     0.31678   0.15265   0.73783   0.00000  Uiso   1.00
N450   N     0.01656   0.18068   0.76217   0.00000  Uiso   1.00
O451   O     0.12975   0.24619   0.75298   0.00000  Uiso   1.00
O452   O     0.20358   0.08714   0.74702   0.00000  Uiso   1.00
O453   O     0.22613   0.23721   0.74519   0.00000  Uiso   1.00
O454   O     0.10720   0.09613   0.75481   0.00000  Uiso   1.00
O455   O     0.11847   0.17117   0.81997   0.00000  Uiso   1.00
O456   O     0.21486   0.16216   0.68003   0.00000  Uiso   1.00
O457   O     0.21485   0.16219   0.81218   0.00000  Uiso   1.00
O458   O     0.11848   0.17115   0.68782   0.00000  Uiso   1.00
Zn459  Zn    0.10231   0.17266   0.75521   0.00000  Uiso   1.00
Zn460  Zn    0.23102   0.16067   0.74479   0.00000  Uiso   1.00
C461   C     0.51516   0.26482   0.74888   0.00000  Uiso   1.00
C462   C     0.55080   0.18104   0.90430   0.00000  Uiso   1.00
C463   C     0.49951   0.16741   0.61561   0.00000  Uiso   1.00
C464   C     0.50049   0.16592   0.88439   0.00000  Uiso   1.00
C465   C     0.54988   0.18271   0.58987   0.00000  Uiso   1.00
C466   C     0.45012   0.15063   0.91013   0.00000  Uiso   1.00
C467   C     0.55038   0.18282   0.54362   0.00000  Uiso   1.00
C468   C     0.44962   0.15051   0.95638   0.00000  Uiso   1.00
C469   C     0.49986   0.16694   0.52326   0.00000  Uiso   1.00
C470   C     0.50014   0.16639   0.97674   0.00000  Uiso   1.00
C471   C     0.44908   0.15158   0.54944   0.00000  Uiso   1.00
C472   C     0.48484   0.06851   0.75112   0.00000  Uiso   1.00
C473   C     0.55092   0.18175   0.95056   0.00000  Uiso   1.00
C474   C     0.60045   0.19843   0.51748   0.00000  Uiso   1.00
C475   C     0.39955   0.13490   0.98252   0.00000  Uiso   1.00
C476   C     0.60075   0.19783   0.97099   0.00000  Uiso   1.00
C477   C     0.39925   0.13550   0.52901   0.00000  Uiso   1.00
C478   C     0.52313   0.31934   0.74821   0.00000  Uiso   1.00
C479   C     0.47687   0.01399   0.75179   0.00000  Uiso   1.00
C480   C     0.50022   0.16653   0.83652   0.00000  Uiso   1.00
C481   C     0.49978   0.16680   0.66348   0.00000  Uiso   1.00
C482   C     0.44920   0.15229   0.59570   0.00000  Uiso   1.00
Cl483  Cl    0.34612   0.10542   0.70192   0.00000  Uiso   1.00
Cl484  Cl    0.65388   0.22791   0.79808   0.00000  Uiso   1.00
H485   H     0.41052   0.14027   0.61609   0.00000  Uiso   1.00
H486   H     0.43313   0.33041   0.75524   0.00000  Uiso   1.00
H487   H     0.58948   0.19306   0.88391   0.00000  Uiso   1.00
H488   H     0.58851   0.19485   0.60585   0.00000  Uiso   1.00
H489   H     0.41149   0.13848   0.89415   0.00000  Uiso   1.00
H490   H     0.63923   0.21102   0.53299   0.00000  Uiso   1.00
H491   H     0.36077   0.12231   0.96701   0.00000  Uiso   1.00
H492   H     0.63979   0.20988   0.95106   0.00000  Uiso   1.00
H493   H     0.36021   0.12345   0.54894   0.00000  Uiso   1.00
H494   H     0.56687   0.00293   0.74476   0.00000  Uiso   1.00
N495   N     0.65011   0.15265   0.73783   0.00000  Uiso   1.00
N496   N     0.34989   0.18068   0.76217   0.00000  Uiso   1.00
O497   O     0.46308   0.24619   0.75298   0.00000  Uiso   1.00
O498   O     0.53692   0.08714   0.74702   0.00000  Uiso   1.00
O499   O     0.55946   0.23721   0.74519   0.00000  Uiso   1.00
O500   O     0.44054   0.09613   0.75481   0.00000  Uiso   1.00
O501   O     0.45181   0.17117   0.81997   0.00000  Uiso   1.00
O502   O     0.54819   0.16216   0.68003   0.00000  Uiso   1.00
O503   O     0.54819   0.16219   0.81218   0.00000  Uiso   1.00
O504   O     0.45181   0.17115   0.68782   0.00000  Uiso   1.00
Zn505  Zn    0.43565   0.17266   0.75521   0.00000  Uiso   1.00
Zn506  Zn    0.56435   0.16067   0.74479   0.00000  Uiso   1.00
C507   C     0.84849   0.26482   0.74888   0.00000  Uiso   1.00
C508   C     0.88413   0.18104   0.90430   0.00000  Uiso   1.00
C509   C     0.83285   0.16741   0.61561   0.00000  Uiso   1.00
C510   C     0.83382   0.16592   0.88439   0.00000  Uiso   1.00
C511   C     0.88321   0.18271   0.58987   0.00000  Uiso   1.00
C512   C     0.78345   0.15063   0.91013   0.00000  Uiso   1.00
C513   C     0.88371   0.18282   0.54362   0.00000  Uiso   1.00
C514   C     0.78295   0.15051   0.95638   0.00000  Uiso   1.00
C515   C     0.83320   0.16694   0.52326   0.00000  Uiso   1.00
C516   C     0.83347   0.16639   0.97674   0.00000  Uiso   1.00
C517   C     0.78241   0.15158   0.54944   0.00000  Uiso   1.00
C518   C     0.81817   0.06851   0.75112   0.00000  Uiso   1.00
C519   C     0.88425   0.18175   0.95056   0.00000  Uiso   1.00
C520   C     0.93378   0.19843   0.51748   0.00000  Uiso   1.00
C521   C     0.73288   0.13490   0.98252   0.00000  Uiso   1.00
C522   C     0.93408   0.19783   0.97099   0.00000  Uiso   1.00
C523   C     0.73259   0.13550   0.52901   0.00000  Uiso   1.00
C524   C     0.85647   0.31934   0.74821   0.00000  Uiso   1.00
C525   C     0.81020   0.01399   0.75179   0.00000  Uiso   1.00
C526   C     0.83355   0.16653   0.83652   0.00000  Uiso   1.00
C527   C     0.83311   0.16680   0.66348   0.00000  Uiso   1.00
C528   C     0.78253   0.15229   0.59570   0.00000  Uiso   1.00
Cl529  Cl    0.67946   0.10542   0.70192   0.00000  Uiso   1.00
Cl530  Cl    0.98721   0.22791   0.79808   0.00000  Uiso   1.00
H531   H     0.74385   0.14027   0.61609   0.00000  Uiso   1.00
H532   H     0.76646   0.33041   0.75524   0.00000  Uiso   1.00
H533   H     0.92281   0.19306   0.88391   0.00000  Uiso   1.00
H534   H     0.92184   0.19485   0.60585   0.00000  Uiso   1.00
H535   H     0.74482   0.13848   0.89415   0.00000  Uiso   1.00
H536   H     0.97257   0.21102   0.53299   0.00000  Uiso   1.00
H537   H     0.69410   0.12231   0.96701   0.00000  Uiso   1.00
H538   H     0.97313   0.20988   0.95106   0.00000  Uiso   1.00
H539   H     0.69354   0.12345   0.54894   0.00000  Uiso   1.00
H540   H     0.90021   0.00293   0.74476   0.00000  Uiso   1.00
N541   N     0.98344   0.15265   0.73783   0.00000  Uiso   1.00
N542   N     0.68322   0.18068   0.76217   0.00000  Uiso   1.00
O543   O     0.79642   0.24619   0.75298   0.00000  Uiso   1.00
O544   O     0.87025   0.08714   0.74702   0.00000  Uiso   1.00
O545   O     0.89280   0.23721   0.74519   0.00000  Uiso   1.00
O546   O     0.77387   0.09613   0.75481   0.00000  Uiso   1.00
O547   O     0.78514   0.17117   0.81997   0.00000  Uiso   1.00
O548   O     0.88153   0.16216   0.68003   0.00000  Uiso   1.00
O549   O     0.88152   0.16219   0.81218   0.00000  Uiso   1.00
O550   O     0.78515   0.17115   0.68782   0.00000  Uiso   1.00
Zn551  Zn    0.76898   0.17266   0.75521   0.00000  Uiso   1.00
Zn552  Zn    0.89769   0.16067   0.74479   0.00000  Uiso   1.00
C553   C     0.18183   0.59815   0.74888   0.00000  Uiso   1.00
C554   C     0.21747   0.51437   0.90430   0.00000  Uiso   1.00
C555   C     0.16618   0.50074   0.61561   0.00000  Uiso   1.00
C556   C     0.16716   0.49926   0.88439   0.00000  Uiso   1.00
C557   C     0.21655   0.51604   0.58987   0.00000  Uiso   1.00
C558   C     0.11679   0.48396   0.91013   0.00000  Uiso   1.00
C559   C     0.21705   0.51615   0.54362   0.00000  Uiso   1.00
C560   C     0.11629   0.48385   0.95638   0.00000  Uiso   1.00
C561   C     0.16653   0.50027   0.52326   0.00000  Uiso   1.00
C562   C     0.16680   0.49973   0.97674   0.00000  Uiso   1.00
C563   C     0.11575   0.48491   0.54944   0.00000  Uiso   1.00
C564   C     0.15151   0.40185   0.75112   0.00000  Uiso   1.00
C565   C     0.21759   0.51508   0.95056   0.00000  Uiso   1.00
C566   C     0.26712   0.53177   0.51748   0.00000  Uiso   1.00
C567   C     0.06622   0.46823   0.98252   0.00000  Uiso   1.00
C568   C     0.26742   0.53117   0.97099   0.00000  Uiso   1.00
C569   C     0.06592   0.46883   0.52901   0.00000  Uiso   1.00
C570   C     0.18980   0.65267   0.74821   0.00000  Uiso   1.00
C571   C     0.14354   0.34733   0.75179   0.00000  Uiso   1.00
C572   C     0.16689   0.49986   0.83652   0.00000  Uiso   1.00
C573   C     0.16645   0.50014   0.66348   0.00000  Uiso   1.00
C574   C     0.11587   0.48563   0.59570   0.00000  Uiso   1.00
Cl575  Cl    0.01279   0.43876   0.70192   0.00000  Uiso   1.00
Cl576  Cl    0.32055   0.56124   0.79808   0.00000  Uiso   1.00
H577   H     0.07719   0.47361   0.61609   0.00000  Uiso   1.00
H578   H     0.09979   0.66374   0.75524   0.00000  Uiso   1.00
H579   H     0.25615   0.52639   0.88391   0.00000  Uiso   1.00
H580   H     0.25518   0.52818   0.60585   0.00000  Uiso   1.00
H581   H     0.07816   0.47182   0.89415   0.00000  Uiso   1.00
H582   H     0.30590   0.54435   0.53299   0.00000  Uiso   1.00
H583   H     0.02743   0.45565   0.96701   0.00000  Uiso   1.00
H584   H     0.30646   0.54321   0.95106   0.00000  Uiso   1.00
H585   H     0.02687   0.45679   0.54894   0.00000  Uiso   1.00
H586   H     0.23354   0.33626   0.74476   0.00000  Uiso   1.00
N587   N     0.31678   0.48598   0.73783   0.00000  Uiso   1.00
N588   N     0.01656   0.51402   0.76217   0.00000  Uiso   1.00
O589   O     0.12975   0.57952   0.75298   0.00000  Uiso   1.00
O590   O     0.20358   0.42048   0.74702   0.00000  Uiso   1.00
O591   O     0.22613   0.57054   0.74519   0.00000  Uiso   1.00
O592   O     0.10720   0.42946   0.75481   0.00000  Uiso   1.00
O593   O     0.11847   0.50450   0.81997   0.00000  Uiso   1.00
O594   O     0.21486   0.49550   0.68003   0.00000  Uiso   1.00
O595   O     0.21485   0.49552   0.81218   0.00000  Uiso   1.00
O596   O     0.11848   0.50448   0.68782   0.00000  Uiso   1.00
Zn597  Zn    0.10231   0.50600   0.75521   0.00000  Uiso   1.00
Zn598  Zn    0.23102   0.49400   0.74479   0.00000  Uiso   1.00
C599   C     0.51516   0.59815   0.74888   0.00000  Uiso   1.00
C600   C     0.55080   0.51437   0.90430   0.00000  Uiso   1.00
C601   C     0.49951   0.50074   0.61561   0.00000  Uiso   1.00
C602   C     0.50049   0.49926   0.88439   0.00000  Uiso   1.00
C603   C     0.54988   0.51604   0.58987   0.00000  Uiso   1.00
C604   C     0.45012   0.48396   0.91013   0.00000  Uiso   1.00
C605   C     0.55038   0.51615   0.54362   0.00000  Uiso   1.00
C606   C     0.44962   0.48385   0.95638   0.00000  Uiso   1.00
C607   C     0.49986   0.50027   0.52326   0.00000  Uiso   1.00
C608   C     0.50014   0.49973   0.97674   0.00000  Uiso   1.00
C609   C     0.44908   0.48491   0.54944   0.00000  Uiso   1.00
C610   C     0.48484   0.40185   0.75112   0.00000  Uiso   1.00
C611   C     0.55092   0.51508   0.95056   0.00000  Uiso   1.00
C612   C     0.60045   0.53177   0.51748   0.00000  Uiso   1.00
C613   C     0.39955   0.46823   0.98252   0.00000  Uiso   1.00
C614   C     0.60075   0.53117   0.97099   0.00000  Uiso   1.00
C615   C     0.39925   0.46883   0.52901   0.00000  Uiso   1.00
C616   C     0.52313   0.65267   0.74821   0.00000  Uiso   1.00
C617   C     0.47687   0.34733   0.75179   0.00000  Uiso   1.00
C618   C     0.50022   0.49986   0.83652   0.00000  Uiso   1.00
C619   C     0.49978   0.50014   0.66348   0.00000  Uiso   1.00
C620   C     0.44920   0.48563   0.59570   0.00000  Uiso   1.00
Cl621  Cl    0.34612   0.43876   0.70192   0.00000  Uiso   1.00
Cl622  Cl    0.65388   0.56124   0.79808   0.00000  Uiso   1.00
H623   H     0.41052   0.47361   0.61609   0.00000  Uiso   1.00
H624   H     0.43313   0.66374   0.75524   0.00000  Uiso   1.00
H625   H     0.58948   0.52639   0.88391   0.00000  Uiso   1.00
H626   H     0.58851   0.52818   0.60585   0.00000  Uiso   1.00
H627   H     0.41149   0.47182   0.89415   0.00000  Uiso   1.00
H628   H     0.63923   0.54435   0.53299   0.00000  Uiso   1.00
H629   H     0.36077   0.45565   0.96701   0.00000  Uiso   1.00
H630   H     0.63979   0.54321   0.95106   0.00000  Uiso   1.00
H631   H     0.36021   0.45679   0.54894   0.00000  Uiso   1.00
H632   H     0.56687   0.33626   0.74476   0.00000  Uiso   1.00
N633   N     0.65011   0.48598   0.73783   0.00000  Uiso   1.00
N634   N     0.34989   0.51402   0.76217   0.00000  Uiso   1.00
O635   O     0.46308   0.57952   0.75298   0.00000  Uiso   1.00
O636   O     0.53692   0.42048   0.74702   0.00000  Uiso   1.00
O637   O     0.55946   0.57054   0.74519   0.00000  Uiso   1.00
O638   O     0.44054   0.42946   0.75481   0.00000  Uiso   1.00
O639   O     0.45181   0.50450   0.81997   0.00000  Uiso   1.00
O640   O     0.54819   0.49550   0.68003   0.00000  Uiso   1.00
O641   O     0.54819   0.49552   0.81218   0.00000  Uiso   1.00
O642   O     0.45181   0.50448   0.68782   0.00000  Uiso   1.00
Zn643  Zn    0.43565   0.50600   0.75521   0.00000  Uiso   1.00
Zn644  Zn    0.56435   0.49400   0.74479   0.00000  Uiso   1.00
C645   C     0.84849   0.59815   0.74888   0.00000  Uiso   1.00
C646   C     0.88413   0.51437   0.90430   0.00000  Uiso   1.00
C647   C     0.83285   0.50074   0.61561   0.00000  Uiso   1.00
C648   C     0.83382   0.49926   0.88439   0.00000  Uiso   1.00
C649   C     0.88321   0.51604   0.58987   0.00000  Uiso   1.00
C650   C     0.78345   0.48396   0.91013   0.00000  Uiso   1.00
C651   C     0.88371   0.51615   0.54362   0.00000  Uiso   1.00
C652   C     0.78295   0.48385   0.95638   0.00000  Uiso   1.00
C653   C     0.83320   0.50027   0.52326   0.00000  Uiso   1.00
C654   C     0.83347   0.49973   0.97674   0.00000  Uiso   1.00
C655   C     0.78241   0.48491   0.54944   0.00000  Uiso   1.00
C656   C     0.81817   0.40185   0.75112   0.00000  Uiso   1.00
C657   C     0.88425   0.51508   0.95056   0.00000  Uiso   1.00
C658   C     0.93378   0.53177   0.51748   0.00000  Uiso   1.00
C659   C     0.73288   0.46823   0.98252   0.00000  Uiso   1.00
C660   C     0.93408   0.53117   0.97099   0.00000  Uiso   1.00
C661   C     0.73259   0.46883   0.52901   0.00000  Uiso   1.00
C662   C     0.85647   0.65267   0.74821   0.00000  Uiso   1.00
C663   C     0.81020   0.34733   0.75179   0.00000  Uiso   1.00
C664   C     0.83355   0.49986   0.83652   0.00000  Uiso   1.00
C665   C     0.83311   0.50014   0.66348   0.00000  Uiso   1.00
C666   C     0.78253   0.48563   0.59570   0.00000  Uiso   1.00
Cl667  Cl    0.67946   0.43876   0.70192   0.00000  Uiso   1.00
Cl668  Cl    0.98721   0.56124   0.79808   0.00000  Uiso   1.00
H669   H     0.74385   0.47361   0.61609   0.00000  Uiso   1.00
H670   H     0.76646   0.66374   0.75524   0.00000  Uiso   1.00
H671   H     0.92281   0.52639   0.88391   0.00000  Uiso   1.00
H672   H     0.92184   0.52818   0.60585   0.00000  Uiso   1.00
H673   H     0.74482   0.47182   0.89415   0.00000  Uiso   1.00
H674   H     0.97257   0.54435   0.53299   0.00000  Uiso   1.00
H675   H     0.69410   0.45565   0.96701   0.00000  Uiso   1.00
H676   H     0.97313   0.54321   0.95106   0.00000  Uiso   1.00
H677   H     0.69354   0.45679   0.54894   0.00000  Uiso   1.00
H678   H     0.90021   0.33626   0.74476   0.00000  Uiso   1.00
N679   N     0.98344   0.48598   0.73783   0.00000  Uiso   1.00
N680   N     0.68322   0.51402   0.76217   0.00000  Uiso   1.00
O681   O     0.79642   0.57952   0.75298   0.00000  Uiso   1.00
O682   O     0.87025   0.42048   0.74702   0.00000  Uiso   1.00
O683   O     0.89280   0.57054   0.74519   0.00000  Uiso   1.00
O684   O     0.77387   0.42946   0.75481   0.00000  Uiso   1.00
O685   O     0.78514   0.50450   0.81997   0.00000  Uiso   1.00
O686   O     0.88153   0.49550   0.68003   0.00000  Uiso   1.00
O687   O     0.88152   0.49552   0.81218   0.00000  Uiso   1.00
O688   O     0.78515   0.50448   0.68782   0.00000  Uiso   1.00
Zn689  Zn    0.76898   0.50600   0.75521   0.00000  Uiso   1.00
Zn690  Zn    0.89769   0.49400   0.74479   0.00000  Uiso   1.00
C691   C     0.18183   0.93149   0.74888   0.00000  Uiso   1.00
C692   C     0.21747   0.84771   0.90430   0.00000  Uiso   1.00
C693   C     0.16618   0.83408   0.61561   0.00000  Uiso   1.00
C694   C     0.16716   0.83259   0.88439   0.00000  Uiso   1.00
C695   C     0.21655   0.84937   0.58987   0.00000  Uiso   1.00
C696   C     0.11679   0.81729   0.91013   0.00000  Uiso   1.00
C697   C     0.21705   0.84949   0.54362   0.00000  Uiso   1.00
C698   C     0.11629   0.81718   0.95638   0.00000  Uiso   1.00
C699   C     0.16653   0.83361   0.52326   0.00000  Uiso   1.00
C700   C     0.16680   0.83306   0.97674   0.00000  Uiso   1.00
C701   C     0.11575   0.81825   0.54944   0.00000  Uiso   1.00
C702   C     0.15151   0.73518   0.75112   0.00000  Uiso   1.00
C703   C     0.21759   0.84842   0.95056   0.00000  Uiso   1.00
C704   C     0.26712   0.86510   0.51748   0.00000  Uiso   1.00
C705   C     0.06622   0.80157   0.98252   0.00000  Uiso   1.00
C706   C     0.26742   0.86450   0.97099   0.00000  Uiso   1.00
C707   C     0.06592   0.80216   0.52901   0.00000  Uiso   1.00
C708   C     0.18980   0.98601   0.74821   0.00000  Uiso   1.00
C709   C     0.14354   0.68066   0.75179   0.00000  Uiso   1.00
C710   C     0.16689   0.83320   0.83652   0.00000  Uiso   1.00
C711   C     0.16645   0.83347   0.66348   0.00000  Uiso   1.00
C712   C     0.11587   0.81896   0.59570   0.00000  Uiso   1.00
Cl713  Cl    0.01279   0.77209   0.70192   0.00000  Uiso   1.00
Cl714  Cl    0.32055   0.89458   0.79808   0.00000  Uiso   1.00
H715   H     0.07719   0.80694   0.61609   0.00000  Uiso   1.00
H716   H     0.09979   0.99707   0.75524   0.00000  Uiso   1.00
H717   H     0.25615   0.85973   0.88391   0.00000  Uiso   1.00
H718   H     0.25518   0.86152   0.60585   0.00000  Uiso   1.00
H719   H     0.07816   0.80515   0.89415   0.00000  Uiso   1.00
H720   H     0.30590   0.87768   0.53299   0.00000  Uiso   1.00
H721   H     0.02743   0.78898   0.96701   0.00000  Uiso   1.00
H722   H     0.30646   0.87655   0.95106   0.00000  Uiso   1.00
H723   H     0.02687   0.79012   0.54894   0.00000  Uiso   1.00
H724   H     0.23354   0.66959   0.74476   0.00000  Uiso   1.00
N725   N     0.31678   0.81932   0.73783   0.00000  Uiso   1.00
N726   N     0.01656   0.84735   0.76217   0.00000  Uiso   1.00
O727   O     0.12975   0.91286   0.75298   0.00000  Uiso   1.00
O728   O     0.20358   0.75381   0.74702   0.00000  Uiso   1.00
O729   O     0.22613   0.90387   0.74519   0.00000  Uiso   1.00
O730   O     0.10720   0.76279   0.75481   0.00000  Uiso   1.00
O731   O     0.11847   0.83784   0.81997   0.00000  Uiso   1.00
O732   O     0.21486   0.82883   0.68003   0.00000  Uiso   1.00
O733   O     0.21485   0.82885   0.81218   0.00000  Uiso   1.00
O734   O     0.11848   0.83781   0.68782   0.00000  Uiso   1.00
Zn735  Zn    0.10231   0.83933   0.75521   0.00000  Uiso   1.00
Zn736  Zn    0.23102   0.82734   0.74479   0.00000  Uiso   1.00
C737   C     0.51516   0.93149   0.74888   0.00000  Uiso   1.00
C738   C     0.55080   0.84771   0.90430   0.00000  Uiso   1.00
C739   C     0.49951   0.83408   0.61561   0.00000  Uiso   1.00
C740   C     0.50049   0.83259   0.88439   0.00000  Uiso   1.00
C741   C     0.54988   0.84937   0.58987   0.00000  Uiso   1.00
C742   C     0.45012   0.81729   0.91013   0.00000  Uiso   1.00
C743   C     0.55038   0.84949   0.54362   0.00000  Uiso   1.00
C744   C     0.44962   0.81718   0.95638   0.00000  Uiso   1.00
C745   C     0.49986   0.83361   0.52326   0.00000  Uiso   1.00
C746   C     0.50014   0.83306   0.97674   0.00000  Uiso   1.00
C747   C     0.44908   0.81825   0.54944   0.00000  Uiso   1.00
C748   C     0.48484   0.73518   0.75112   0.00000  Uiso   1.00
C749   C     0.55092   0.84842   0.95056   0.00000  Uiso   1.00
C750   C     0.60045   0.86510   0.51748   0.00000  Uiso   1.00
C751   C     0.39955   0.80157   0.98252   0.00000  Uiso   1.00
C752   C     0.60075   0.86450   0.97099   0.00000  Uiso   1.00
C753   C     0.39925   0.80216   0.52901   0.00000  Uiso   1.00
C754   C     0.52313   0.98601   0.74821   0.00000  Uiso   1.00
C755   C     0.47687   0.68066   0.75179   0.00000  Uiso   1.00
C756   C     0.50022   0.83320   0.83652   0.00000  Uiso   1.00
C757   C     0.49978   0.83347   0.66348   0.00000  Uiso   1.00
C758   C     0.44920   0.81896   0.59570   0.00000  Uiso   1.00
Cl759  Cl    0.34612   0.77209   0.70192   0.00000  Uiso   1.00
Cl760  Cl    0.65388   0.89458   0.79808   0.00000  Uiso   1.00
H761   H     0.41052   0.80694   0.61609   0.00000  Uiso   1.00
H762   H     0.43313   0.99707   0.75524   0.00000  Uiso   1.00
H763   H     0.58948   0.85973   0.88391   0.00000  Uiso   1.00
H764   H     0.58851   0.86152   0.60585   0.00000  Uiso   1.00
H765   H     0.41149   0.80515   0.89415   0.00000  Uiso   1.00
H766   H     0.63923   0.87768   0.53299   0.00000  Uiso   1.00
H767   H     0.36077   0.78898   0.96701   0.00000  Uiso   1.00
H768   H     0.63979   0.87655   0.95106   0.00000  Uiso   1.00
H769   H     0.36021   0.79012   0.54894   0.00000  Uiso   1.00
H770   H     0.56687   0.66959   0.74476   0.00000  Uiso   1.00
N771   N     0.65011   0.81932   0.73783   0.00000  Uiso   1.00
N772   N     0.34989   0.84735   0.76217   0.00000  Uiso   1.00
O773   O     0.46308   0.91286   0.75298   0.00000  Uiso   1.00
O774   O     0.53692   0.75381   0.74702   0.00000  Uiso   1.00
O775   O     0.55946   0.90387   0.74519   0.00000  Uiso   1.00
O776   O     0.44054   0.76279   0.75481   0.00000  Uiso   1.00
O777   O     0.45181   0.83784   0.81997   0.00000  Uiso   1.00
O778   O     0.54819   0.82883   0.68003   0.00000  Uiso   1.00
O779   O     0.54819   0.82885   0.81218   0.00000  Uiso   1.00
O780   O     0.45181   0.83781   0.68782   0.00000  Uiso   1.00
Zn781  Zn    0.43565   0.83933   0.75521   0.00000  Uiso   1.00
Zn782  Zn    0.56435   0.82734   0.74479   0.00000  Uiso   1.00
C783   C     0.84849   0.93149   0.74888   0.00000  Uiso   1.00
C784   C     0.88413   0.84771   0.90430   0.00000  Uiso   1.00
C785   C     0.83285   0.83408   0.61561   0.00000  Uiso   1.00
C786   C     0.83382   0.83259   0.88439   0.00000  Uiso   1.00
C787   C     0.88321   0.84937   0.58987   0.00000  Uiso   1.00
C788   C     0.78345   0.81729   0.91013   0.00000  Uiso   1.00
C789   C     0.88371   0.84949   0.54362   0.00000  Uiso   1.00
C790   C     0.78295   0.81718   0.95638   0.00000  Uiso   1.00
C791   C     0.83320   0.83361   0.52326   0.00000  Uiso   1.00
C792   C     0.83347   0.83306   0.97674   0.00000  Uiso   1.00
C793   C     0.78241   0.81825   0.54944   0.00000  Uiso   1.00
C794   C     0.81817   0.73518   0.75112   0.00000  Uiso   1.00
C795   C     0.88425   0.84842   0.95056   0.00000  Uiso   1.00
C796   C     0.93378   0.86510   0.51748   0.00000  Uiso   1.00
C797   C     0.73288   0.80157   0.98252   0.00000  Uiso   1.00
C798   C     0.93408   0.86450   0.97099   0.00000  Uiso   1.00
C799   C     0.73259   0.80216   0.52901   0.00000  Uiso   1.00
C800   C     0.85647   0.98601   0.74821   0.00000  Uiso   1.00
C801   C     0.81020   0.68066   0.75179   0.00000  Uiso   1.00
C802   C     0.83355   0.83320   0.83652   0.00000  Uiso   1.00
C803   C     0.83311   0.83347   0.66348   0.00000  Uiso   1.00
C804   C     0.78253   0.81896   0.59570   0.00000  Uiso   1.00
Cl805  Cl    0.67946   0.77209   0.70192   0.00000  Uiso   1.00
Cl806  Cl    0.98721   0.89458   0.79808   0.00000  Uiso   1.00
H807   H     0.74385   0.80694   0.61609   0.00000  Uiso   1.00
H808   H     0.76646   0.99707   0.75524   0.00000  Uiso   1.00
H809   H     0.92281   0.85973   0.88391   0.00000  Uiso   1.00
H810   H     0.92184   0.86152   0.60585   0.00000  Uiso   1.00
H811   H     0.74482   0.80515   0.89415   0.00000  Uiso   1.00
H812   H     0.97257   0.87768   0.53299   0.00000  Uiso   1.00
H813   H     0.69410   0.78898   0.96701   0.00000  Uiso   1.00
H814   H     0.97313   0.87655   0.95106   0.00000  Uiso   1.00
H815   H     0.69354   0.79012   0.54894   0.00000  Uiso   1.00
H816   H     0.90021   0.66959   0.74476   0.00000  Uiso   1.00
N817   N     0.98344   0.81932   0.73783   0.00000  Uiso   1.00
N818   N     0.68322   0.84735   0.76217   0.00000  Uiso   1.00
O819   O     0.79642   0.91286   0.75298   0.00000  Uiso   1.00
O820   O     0.87025   0.75381   0.74702   0.00000  Uiso   1.00
O821   O     0.89280   0.90387   0.74519   0.00000  Uiso   1.00
O822   O     0.77387   0.76279   0.75481   0.00000  Uiso   1.00
O823   O     0.78514   0.83784   0.81997   0.00000  Uiso   1.00
O824   O     0.88153   0.82883   0.68003   0.00000  Uiso   1.00
O825   O     0.88152   0.82885   0.81218   0.00000  Uiso   1.00
O826   O     0.78515   0.83781   0.68782   0.00000  Uiso   1.00
Zn827  Zn    0.76898   0.83933   0.75521   0.00000  Uiso   1.00
Zn828  Zn    0.89769   0.82734   0.74479   0.00000  Uiso   1.00
loop_
_geom_bond_atom_site_label_1
_geom_bond_atom_site_label_2
_geom_bond_distance
_geom_bond_site_symmetry_2
_ccdc_geom_bond_type
C1     O37     1.282   .     A
C1     C18     1.401   .     S
C1     O39     1.290   .     A
C2     C4      1.396   .     A
C2     H27     1.084   .     S
C2     C13     1.383   .     A
C3     C21     1.433   .     S
C3     C22     1.396   .     A
C3     C5      1.397   .     A
C4     C6      1.397   .     A
C4     C20     1.433   .     S
C5     H28     1.085   .     S
C5     C7      1.382   .     A
C6     H29     1.085   .     S
C6     C8      1.382   .     A
C7     C9      1.411   .     A
C7     C14     1.400   .     A
C8     C15     1.400   .     A
C8     C10     1.411   .     A
C9     C11     1.412   .     A
C9     C424    1.390   1_554 S
C10    C13     1.412   .     A
C10    C423    1.390   .     S
C11    C22     1.383   .     A
C11    C17     1.399   .     A
C12    O40     1.290   .     A
C12    C19     1.401   .     S
C12    O38     1.282   .     A
C13    C16     1.399   .     A
C14    H30     1.084   .     S
C14    C430    1.389   1_554 S
C15    H31     1.084   .     S
C15    C431    1.389   .     S
C16    H32     1.084   .     S
C16    C428    1.389   .     S
C17    H33     1.084   .     S
C17    C429    1.389   1_554 S
C18    C157    1.334   .     S
C18    H172    1.088   .     S
C19    C294    1.334   1_545 S
C19    H302    1.088   1_545 S
C20    O41     1.293   .     A
C20    O43     1.295   .     A
C21    O44     1.295   .     A
C21    O42     1.293   .     A
C22    H25     1.084   .     S
Cl23   N127    1.723   1_455 S
Cl24   N82     1.723   .     S
H26    C157    1.088   .     S
H34    C294    1.088   1_545 S
N35    Zn46    2.030   .     S
N35    Cl69    1.723   .     S
N35    N82     1.281   .     S
N36    Zn45    2.030   .     S
N36    N127    1.281   1_455 S
N36    Cl116   1.723   1_455 S
O37    Zn45    1.958   .     S
O38    Zn46    1.958   .     S
O39    Zn46    1.975   .     S
O40    Zn45    1.975   .     S
O41    Zn45    2.008   .     S
O42    Zn46    2.008   .     S
O43    Zn46    2.017   .     S
O44    Zn45    2.017   .     S
C47    O83     1.282   .     A
C47    C64     1.401   .     S
C47    O85     1.290   .     A
C48    C50     1.396   .     A
C48    H73     1.084   .     S
C48    C59     1.383   .     A
C49    C67     1.433   .     S
C49    C68     1.396   .     A
C49    C51     1.397   .     A
C50    C52     1.397   .     A
C50    C66     1.433   .     S
C51    H74     1.085   .     S
C51    C53     1.382   .     A
C52    H75     1.085   .     S
C52    C54     1.382   .     A
C53    C55     1.411   .     A
C53    C60     1.400   .     A
C54    C61     1.400   .     A
C54    C56     1.411   .     A
C55    C57     1.412   .     A
C55    C470    1.390   1_554 S
C56    C59     1.412   .     A
C56    C469    1.390   .     S
C57    C68     1.383   .     A
C57    C63     1.399   .     A
C58    O86     1.290   .     A
C58    C65     1.401   .     S
C58    O84     1.282   .     A
C59    C62     1.399   .     A
C60    H76     1.084   .     S
C60    C476    1.389   1_554 S
C61    H77     1.084   .     S
C61    C477    1.389   .     S
C62    H78     1.084   .     S
C62    C474    1.389   .     S
C63    H79     1.084   .     S
C63    C475    1.389   1_554 S
C64    C203    1.334   .     S
C64    H218    1.088   .     S
C65    C340    1.334   1_545 S
C65    H348    1.088   1_545 S
C66    O87     1.293   .     A
C66    O89     1.295   .     A
C67    O90     1.295   .     A
C67    O88     1.293   .     A
C68    H71     1.084   .     S
Cl70   N128    1.723   .     S
H72    C203    1.088   .     S
H80    C340    1.088   1_545 S
N81    Zn92    2.030   .     S
N81    Cl115   1.723   .     S
N81    N128    1.281   .     S
N82    Zn91    2.030   .     S
O83    Zn91    1.958   .     S
O84    Zn92    1.958   .     S
O85    Zn92    1.975   .     S
O86    Zn91    1.975   .     S
O87    Zn91    2.008   .     S
O88    Zn92    2.008   .     S
O89    Zn92    2.017   .     S
O90    Zn91    2.017   .     S
C93    O129    1.282   .     A
C93    C110    1.401   .     S
C93    O131    1.290   .     A
C94    C96     1.396   .     A
C94    H119    1.084   .     S
C94    C105    1.383   .     A
C95    C113    1.433   .     S
C95    C114    1.396   .     A
C95    C97     1.397   .     A
C96    C98     1.397   .     A
C96    C112    1.433   .     S
C97    H120    1.085   .     S
C97    C99     1.382   .     A
C98    H121    1.085   .     S
C98    C100    1.382   .     A
C99    C101    1.411   .     A
C99    C106    1.400   .     A
C100   C107    1.400   .     A
C100   C102    1.411   .     A
C101   C103    1.412   .     A
C101   C516    1.390   1_554 S
C102   C105    1.412   .     A
C102   C515    1.390   .     S
C103   C114    1.383   .     A
C103   C109    1.399   .     A
C104   O132    1.290   .     A
C104   C111    1.401   .     S
C104   O130    1.282   .     A
C105   C108    1.399   .     A
C106   H122    1.084   .     S
C106   C522    1.389   1_554 S
C107   H123    1.084   .     S
C107   C523    1.389   .     S
C108   H124    1.084   .     S
C108   C520    1.389   .     S
C109   H125    1.084   .     S
C109   C521    1.389   1_554 S
C110   C249    1.334   .     S
C110   H264    1.088   .     S
C111   C386    1.334   1_545 S
C111   H394    1.088   1_545 S
C112   O133    1.293   .     A
C112   O135    1.295   .     A
C113   O136    1.295   .     A
C113   O134    1.293   .     A
C114   H117    1.084   .     S
Cl116  N36     1.723   1_655 S
H118   C249    1.088   .     S
H126   C386    1.088   1_545 S
N127   Zn138   2.030   .     S
N127   Cl23    1.723   1_655 S
N127   N36     1.281   1_655 S
N128   Zn137   2.030   .     S
O129   Zn137   1.958   .     S
O130   Zn138   1.958   .     S
O131   Zn138   1.975   .     S
O132   Zn137   1.975   .     S
O133   Zn137   2.008   .     S
O134   Zn138   2.008   .     S
O135   Zn138   2.017   .     S
O136   Zn137   2.017   .     S
C139   O175    1.282   .     A
C139   C156    1.401   .     S
C139   O177    1.290   .     A
C140   C142    1.396   .     A
C140   H165    1.084   .     S
C140   C151    1.383   .     A
C141   C159    1.433   .     S
C141   C160    1.396   .     A
C141   C143    1.397   .     A
C142   C144    1.397   .     A
C142   C158    1.433   .     S
C143   H166    1.085   .     S
C143   C145    1.382   .     A
C144   H167    1.085   .     S
C144   C146    1.382   .     A
C145   C147    1.411   .     A
C145   C152    1.400   .     A
C146   C153    1.400   .     A
C146   C148    1.411   .     A
C147   C149    1.412   .     A
C147   C562    1.390   1_554 S
C148   C151    1.412   .     A
C148   C561    1.390   .     S
C149   C160    1.383   .     A
C149   C155    1.399   .     A
C150   O178    1.290   .     A
C150   C157    1.401   .     S
C150   O176    1.282   .     A
C151   C154    1.399   .     A
C152   H168    1.084   .     S
C152   C568    1.389   1_554 S
C153   H169    1.084   .     S
C153   C569    1.389   .     S
C154   H170    1.084   .     S
C154   C566    1.389   .     S
C155   H171    1.084   .     S
C155   C567    1.389   1_554 S
C156   C295    1.334   .     S
C156   H310    1.088   .     S
C158   O179    1.293   .     A
C158   O181    1.295   .     A
C159   O182    1.295   .     A
C159   O180    1.293   .     A
C160   H163    1.084   .     S
Cl161  N265    1.723   1_455 S
Cl162  N220    1.723   .     S
H164   C295    1.088   .     S
N173   Zn184   2.030   .     S
N173   Cl207   1.723   .     S
N173   N220    1.281   .     S
N174   Zn183   2.030   .     S
N174   N265    1.281   1_455 S
N174   Cl254   1.723   1_455 S
O175   Zn183   1.958   .     S
O176   Zn184   1.958   .     S
O177   Zn184   1.975   .     S
O178   Zn183   1.975   .     S
O179   Zn183   2.008   .     S
O180   Zn184   2.008   .     S
O181   Zn184   2.017   .     S
O182   Zn183   2.017   .     S
C185   O221    1.282   .     A
C185   C202    1.401   .     S
C185   O223    1.290   .     A
C186   C188    1.396   .     A
C186   H211    1.084   .     S
C186   C197    1.383   .     A
C187   C205    1.433   .     S
C187   C206    1.396   .     A
C187   C189    1.397   .     A
C188   C190    1.397   .     A
C188   C204    1.433   .     S
C189   H212    1.085   .     S
C189   C191    1.382   .     A
C190   H213    1.085   .     S
C190   C192    1.382   .     A
C191   C193    1.411   .     A
C191   C198    1.400   .     A
C192   C199    1.400   .     A
C192   C194    1.411   .     A
C193   C195    1.412   .     A
C193   C608    1.390   1_554 S
C194   C197    1.412   .     A
C194   C607    1.390   .     S
C195   C206    1.383   .     A
C195   C201    1.399   .     A
C196   O224    1.290   .     A
C196   C203    1.401   .     S
C196   O222    1.282   .     A
C197   C200    1.399   .     A
C198   H214    1.084   .     S
C198   C614    1.389   1_554 S
C199   H215    1.084   .     S
C199   C615    1.389   .     S
C200   H216    1.084   .     S
C200   C612    1.389   .     S
C201   H217    1.084   .     S
C201   C613    1.389   1_554 S
C202   C341    1.334   .     S
C202   H356    1.088   .     S
C204   O225    1.293   .     A
C204   O227    1.295   .     A
C205   O228    1.295   .     A
C205   O226    1.293   .     A
C206   H209    1.084   .     S
Cl208  N266    1.723   .     S
H210   C341    1.088   .     S
N219   Zn230   2.030   .     S
N219   Cl253   1.723   .     S
N219   N266    1.281   .     S
N220   Zn229   2.030   .     S
O221   Zn229   1.958   .     S
O222   Zn230   1.958   .     S
O223   Zn230   1.975   .     S
O224   Zn229   1.975   .     S
O225   Zn229   2.008   .     S
O226   Zn230   2.008   .     S
O227   Zn230   2.017   .     S
O228   Zn229   2.017   .     S
C231   O267    1.282   .     A
C231   C248    1.401   .     S
C231   O269    1.290   .     A
C232   C234    1.396   .     A
C232   H257    1.084   .     S
C232   C243    1.383   .     A
C233   C251    1.433   .     S
C233   C252    1.396   .     A
C233   C235    1.397   .     A
C234   C236    1.397   .     A
C234   C250    1.433   .     S
C235   H258    1.085   .     S
C235   C237    1.382   .     A
C236   H259    1.085   .     S
C236   C238    1.382   .     A
C237   C239    1.411   .     A
C237   C244    1.400   .     A
C238   C245    1.400   .     A
C238   C240    1.411   .     A
C239   C241    1.412   .     A
C239   C654    1.390   1_554 S
C240   C243    1.412   .     A
C240   C653    1.390   .     S
C241   C252    1.383   .     A
C241   C247    1.399   .     A
C242   O270    1.290   .     A
C242   C249    1.401   .     S
C242   O268    1.282   .     A
C243   C246    1.399   .     A
C244   H260    1.084   .     S
C244   C660    1.389   1_554 S
C245   H261    1.084   .     S
C245   C661    1.389   .     S
C246   H262    1.084   .     S
C246   C658    1.389   .     S
C247   H263    1.084   .     S
C247   C659    1.389   1_554 S
C248   C387    1.334   .     S
C248   H402    1.088   .     S
C250   O271    1.293   .     A
C250   O273    1.295   .     A
C251   O274    1.295   .     A
C251   O272    1.293   .     A
C252   H255    1.084   .     S
Cl254  N174    1.723   1_655 S
H256   C387    1.088   .     S
N265   Zn276   2.030   .     S
N265   Cl161   1.723   1_655 S
N265   N174    1.281   1_655 S
N266   Zn275   2.030   .     S
O267   Zn275   1.958   .     S
O268   Zn276   1.958   .     S
O269   Zn276   1.975   .     S
O270   Zn275   1.975   .     S
O271   Zn275   2.008   .     S
O272   Zn276   2.008   .     S
O273   Zn276   2.017   .     S
O274   Zn275   2.017   .     S
C277   O313    1.282   .     A
C277   C294    1.401   .     S
C277   O315    1.290   .     A
C278   C280    1.396   .     A
C278   H303    1.084   .     S
C278   C289    1.383   .     A
C279   C297    1.433   .     S
C279   C298    1.396   .     A
C279   C281    1.397   .     A
C280   C282    1.397   .     A
C280   C296    1.433   .     S
C281   H304    1.085   .     S
C281   C283    1.382   .     A
C282   H305    1.085   .     S
C282   C284    1.382   .     A
C283   C285    1.411   .     A
C283   C290    1.400   .     A
C284   C291    1.400   .     A
C284   C286    1.411   .     A
C285   C287    1.412   .     A
C285   C700    1.390   1_554 S
C286   C289    1.412   .     A
C286   C699    1.390   .     S
C287   C298    1.383   .     A
C287   C293    1.399   .     A
C288   O316    1.290   .     A
C288   C295    1.401   .     S
C288   O314    1.282   .     A
C289   C292    1.399   .     A
C290   H306    1.084   .     S
C290   C706    1.389   1_554 S
C291   H307    1.084   .     S
C291   C707    1.389   .     S
C292   H308    1.084   .     S
C292   C704    1.389   .     S
C293   H309    1.084   .     S
C293   C705    1.389   1_554 S
C294   C19     1.334   1_565 S
C294   H34     1.088   1_565 S
C296   O317    1.293   .     A
C296   O319    1.295   .     A
C297   O320    1.295   .     A
C297   O318    1.293   .     A
C298   H301    1.084   .     S
Cl299  N403    1.723   1_455 S
Cl300  N358    1.723   .     S
H302   C19     1.088   1_565 S
N311   Zn322   2.030   .     S
N311   Cl345   1.723   .     S
N311   N358    1.281   .     S
N312   Zn321   2.030   .     S
N312   N403    1.281   1_455 S
N312   Cl392   1.723   1_455 S
O313   Zn321   1.958   .     S
O314   Zn322   1.958   .     S
O315   Zn322   1.975   .     S
O316   Zn321   1.975   .     S
O317   Zn321   2.008   .     S
O318   Zn322   2.008   .     S
O319   Zn322   2.017   .     S
O320   Zn321   2.017   .     S
C323   O359    1.282   .     A
C323   C340    1.401   .     S
C323   O361    1.290   .     A
C324   C326    1.396   .     A
C324   H349    1.084   .     S
C324   C335    1.383   .     A
C325   C343    1.433   .     S
C325   C344    1.396   .     A
C325   C327    1.397   .     A
C326   C328    1.397   .     A
C326   C342    1.433   .     S
C327   H350    1.085   .     S
C327   C329    1.382   .     A
C328   H351    1.085   .     S
C328   C330    1.382   .     A
C329   C331    1.411   .     A
C329   C336    1.400   .     A
C330   C337    1.400   .     A
C330   C332    1.411   .     A
C331   C333    1.412   .     A
C331   C746    1.390   1_554 S
C332   C335    1.412   .     A
C332   C745    1.390   .     S
C333   C344    1.383   .     A
C333   C339    1.399   .     A
C334   O362    1.290   .     A
C334   C341    1.401   .     S
C334   O360    1.282   .     A
C335   C338    1.399   .     A
C336   H352    1.084   .     S
C336   C752    1.389   1_554 S
C337   H353    1.084   .     S
C337   C753    1.389   .     S
C338   H354    1.084   .     S
C338   C750    1.389   .     S
C339   H355    1.084   .     S
C339   C751    1.389   1_554 S
C340   C65     1.334   1_565 S
C340   H80     1.088   1_565 S
C342   O363    1.293   .     A
C342   O365    1.295   .     A
C343   O366    1.295   .     A
C343   O364    1.293   .     A
C344   H347    1.084   .     S
Cl346  N404    1.723   .     S
H348   C65     1.088   1_565 S
N357   Zn368   2.030   .     S
N357   Cl391   1.723   .     S
N357   N404    1.281   .     S
N358   Zn367   2.030   .     S
O359   Zn367   1.958   .     S
O360   Zn368   1.958   .     S
O361   Zn368   1.975   .     S
O362   Zn367   1.975   .     S
O363   Zn367   2.008   .     S
O364   Zn368   2.008   .     S
O365   Zn368   2.017   .     S
O366   Zn367   2.017   .     S
C369   O405    1.282   .     A
C369   C386    1.401   .     S
C369   O407    1.290   .     A
C370   C372    1.396   .     A
C370   H395    1.084   .     S
C370   C381    1.383   .     A
C371   C389    1.433   .     S
C371   C390    1.396   .     A
C371   C373    1.397   .     A
C372   C374    1.397   .     A
C372   C388    1.433   .     S
C373   H396    1.085   .     S
C373   C375    1.382   .     A
C374   H397    1.085   .     S
C374   C376    1.382   .     A
C375   C377    1.411   .     A
C375   C382    1.400   .     A
C376   C383    1.400   .     A
C376   C378    1.411   .     A
C377   C379    1.412   .     A
C377   C792    1.390   1_554 S
C378   C381    1.412   .     A
C378   C791    1.390   .     S
C379   C390    1.383   .     A
C379   C385    1.399   .     A
C380   O408    1.290   .     A
C380   C387    1.401   .     S
C380   O406    1.282   .     A
C381   C384    1.399   .     A
C382   H398    1.084   .     S
C382   C798    1.389   1_554 S
C383   H399    1.084   .     S
C383   C799    1.389   .     S
C384   H400    1.084   .     S
C384   C796    1.389   .     S
C385   H401    1.084   .     S
C385   C797    1.389   1_554 S
C386   C111    1.334   1_565 S
C386   H126    1.088   1_565 S
C388   O409    1.293   .     A
C388   O411    1.295   .     A
C389   O412    1.295   .     A
C389   O410    1.293   .     A
C390   H393    1.084   .     S
Cl392  N312    1.723   1_655 S
H394   C111    1.088   1_565 S
N403   Zn414   2.030   .     S
N403   Cl299   1.723   1_655 S
N403   N312    1.281   1_655 S
N404   Zn413   2.030   .     S
O405   Zn413   1.958   .     S
O406   Zn414   1.958   .     S
O407   Zn414   1.975   .     S
O408   Zn413   1.975   .     S
O409   Zn413   2.008   .     S
O410   Zn414   2.008   .     S
O411   Zn414   2.017   .     S
O412   Zn413   2.017   .     S
C415   O451    1.282   .     A
C415   C432    1.401   .     S
C415   O453    1.290   .     A
C416   C418    1.396   .     A
C416   H441    1.084   .     S
C416   C427    1.383   .     A
C417   C435    1.433   .     S
C417   C436    1.396   .     A
C417   C419    1.397   .     A
C418   C420    1.397   .     A
C418   C434    1.433   .     S
C419   H442    1.085   .     S
C419   C421    1.382   .     A
C420   H443    1.085   .     S
C420   C422    1.382   .     A
C421   C423    1.411   .     A
C421   C428    1.400   .     A
C422   C429    1.400   .     A
C422   C424    1.411   .     A
C423   C425    1.412   .     A
C424   C427    1.412   .     A
C424   C9      1.390   1_556 S
C425   C436    1.383   .     A
C425   C431    1.399   .     A
C426   O454    1.290   .     A
C426   C433    1.401   .     S
C426   O452    1.282   .     A
C427   C430    1.399   .     A
C428   H444    1.084   .     S
C429   H445    1.084   .     S
C429   C17     1.389   1_556 S
C430   H446    1.084   .     S
C430   C14     1.389   1_556 S
C431   H447    1.084   .     S
C432   C571    1.334   .     S
C432   H586    1.088   .     S
C433   C708    1.334   1_545 S
C433   H716    1.088   1_545 S
C434   O455    1.293   .     A
C434   O457    1.295   .     A
C435   O458    1.295   .     A
C435   O456    1.293   .     A
C436   H439    1.084   .     S
Cl437  N541    1.723   1_455 S
Cl438  N496    1.723   .     S
H440   C571    1.088   .     S
H448   C708    1.088   1_545 S
N449   Zn460   2.030   .     S
N449   Cl483   1.723   .     S
N449   N496    1.281   .     S
N450   Zn459   2.030   .     S
N450   N541    1.281   1_455 S
N450   Cl530   1.723   1_455 S
O451   Zn459   1.958   .     S
O452   Zn460   1.958   .     S
O453   Zn460   1.975   .     S
O454   Zn459   1.975   .     S
O455   Zn459   2.008   .     S
O456   Zn460   2.008   .     S
O457   Zn460   2.017   .     S
O458   Zn459   2.017   .     S
C461   O497    1.282   .     A
C461   C478    1.401   .     S
C461   O499    1.290   .     A
C462   C464    1.396   .     A
C462   H487    1.084   .     S
C462   C473    1.383   .     A
C463   C481    1.433   .     S
C463   C482    1.396   .     A
C463   C465    1.397   .     A
C464   C466    1.397   .     A
C464   C480    1.433   .     S
C465   H488    1.085   .     S
C465   C467    1.382   .     A
C466   H489    1.085   .     S
C466   C468    1.382   .     A
C467   C469    1.411   .     A
C467   C474    1.400   .     A
C468   C475    1.400   .     A
C468   C470    1.411   .     A
C469   C471    1.412   .     A
C470   C473    1.412   .     A
C470   C55     1.390   1_556 S
C471   C482    1.383   .     A
C471   C477    1.399   .     A
C472   O500    1.290   .     A
C472   C479    1.401   .     S
C472   O498    1.282   .     A
C473   C476    1.399   .     A
C474   H490    1.084   .     S
C475   H491    1.084   .     S
C475   C63     1.389   1_556 S
C476   H492    1.084   .     S
C476   C60     1.389   1_556 S
C477   H493    1.084   .     S
C478   C617    1.334   .     S
C478   H632    1.088   .     S
C479   C754    1.334   1_545 S
C479   H762    1.088   1_545 S
C480   O501    1.293   .     A
C480   O503    1.295   .     A
C481   O504    1.295   .     A
C481   O502    1.293   .     A
C482   H485    1.084   .     S
Cl484  N542    1.723   .     S
H486   C617    1.088   .     S
H494   C754    1.088   1_545 S
N495   Zn506   2.030   .     S
N495   Cl529   1.723   .     S
N495   N542    1.281   .     S
N496   Zn505   2.030   .     S
O497   Zn505   1.958   .     S
O498   Zn506   1.958   .     S
O499   Zn506   1.975   .     S
O500   Zn505   1.975   .     S
O501   Zn505   2.008   .     S
O502   Zn506   2.008   .     S
O503   Zn506   2.017   .     S
O504   Zn505   2.017   .     S
C507   O543    1.282   .     A
C507   C524    1.401   .     S
C507   O545    1.290   .     A
C508   C510    1.396   .     A
C508   H533    1.084   .     S
C508   C519    1.383   .     A
C509   C527    1.433   .     S
C509   C528    1.396   .     A
C509   C511    1.397   .     A
C510   C512    1.397   .     A
C510   C526    1.433   .     S
C511   H534    1.085   .     S
C511   C513    1.382   .     A
C512   H535    1.085   .     S
C512   C514    1.382   .     A
C513   C515    1.411   .     A
C513   C520    1.400   .     A
C514   C521    1.400   .     A
C514   C516    1.411   .     A
C515   C517    1.412   .     A
C516   C519    1.412   .     A
C516   C101    1.390   1_556 S
C517   C528    1.383   .     A
C517   C523    1.399   .     A
C518   O546    1.290   .     A
C518   C525    1.401   .     S
C518   O544    1.282   .     A
C519   C522    1.399   .     A
C520   H536    1.084   .     S
C521   H537    1.084   .     S
C521   C109    1.389   1_556 S
C522   H538    1.084   .     S
C522   C106    1.389   1_556 S
C523   H539    1.084   .     S
C524   C663    1.334   .     S
C524   H678    1.088   .     S
C525   C800    1.334   1_545 S
C525   H808    1.088   1_545 S
C526   O547    1.293   .     A
C526   O549    1.295   .     A
C527   O550    1.295   .     A
C527   O548    1.293   .     A
C528   H531    1.084   .     S
Cl530  N450    1.723   1_655 S
H532   C663    1.088   .     S
H540   C800    1.088   1_545 S
N541   Zn552   2.030   .     S
N541   Cl437   1.723   1_655 S
N541   N450    1.281   1_655 S
N542   Zn551   2.030   .     S
O543   Zn551   1.958   .     S
O544   Zn552   1.958   .     S
O545   Zn552   1.975   .     S
O546   Zn551   1.975   .     S
O547   Zn551   2.008   .     S
O548   Zn552   2.008   .     S
O549   Zn552   2.017   .     S
O550   Zn551   2.017   .     S
C553   O589    1.282   .     A
C553   C570    1.401   .     S
C553   O591    1.290   .     A
C554   C556    1.396   .     A
C554   H579    1.084   .     S
C554   C565    1.383   .     A
C555   C573    1.433   .     S
C555   C574    1.396   .     A
C555   C557    1.397   .     A
C556   C558    1.397   .     A
C556   C572    1.433   .     S
C557   H580    1.085   .     S
C557   C559    1.382   .     A
C558   H581    1.085   .     S
C558   C560    1.382   .     A
C559   C561    1.411   .     A
C559   C566    1.400   .     A
C560   C567    1.400   .     A
C560   C562    1.411   .     A
C561   C563    1.412   .     A
C562   C565    1.412   .     A
C562   C147    1.390   1_556 S
C563   C574    1.383   .     A
C563   C569    1.399   .     A
C564   O592    1.290   .     A
C564   C571    1.401   .     S
C564   O590    1.282   .     A
C565   C568    1.399   .     A
C566   H582    1.084   .     S
C567   H583    1.084   .     S
C567   C155    1.389   1_556 S
C568   H584    1.084   .     S
C568   C152    1.389   1_556 S
C569   H585    1.084   .     S
C570   C709    1.334   .     S
C570   H724    1.088   .     S
C572   O593    1.293   .     A
C572   O595    1.295   .     A
C573   O596    1.295   .     A
C573   O594    1.293   .     A
C574   H577    1.084   .     S
Cl575  N679    1.723   1_455 S
Cl576  N634    1.723   .     S
H578   C709    1.088   .     S
N587   Zn598   2.030   .     S
N587   Cl621   1.723   .     S
N587   N634    1.281   .     S
N588   Zn597   2.030   .     S
N588   N679    1.281   1_455 S
N588   Cl668   1.723   1_455 S
O589   Zn597   1.958   .     S
O590   Zn598   1.958   .     S
O591   Zn598   1.975   .     S
O592   Zn597   1.975   .     S
O593   Zn597   2.008   .     S
O594   Zn598   2.008   .     S
O595   Zn598   2.017   .     S
O596   Zn597   2.017   .     S
C599   O635    1.282   .     A
C599   C616    1.401   .     S
C599   O637    1.290   .     A
C600   C602    1.396   .     A
C600   H625    1.084   .     S
C600   C611    1.383   .     A
C601   C619    1.433   .     S
C601   C620    1.396   .     A
C601   C603    1.397   .     A
C602   C604    1.397   .     A
C602   C618    1.433   .     S
C603   H626    1.085   .     S
C603   C605    1.382   .     A
C604   H627    1.085   .     S
C604   C606    1.382   .     A
C605   C607    1.411   .     A
C605   C612    1.400   .     A
C606   C613    1.400   .     A
C606   C608    1.411   .     A
C607   C609    1.412   .     A
C608   C611    1.412   .     A
C608   C193    1.390   1_556 S
C609   C620    1.383   .     A
C609   C615    1.399   .     A
C610   O638    1.290   .     A
C610   C617    1.401   .     S
C610   O636    1.282   .     A
C611   C614    1.399   .     A
C612   H628    1.084   .     S
C613   H629    1.084   .     S
C613   C201    1.389   1_556 S
C614   H630    1.084   .     S
C614   C198    1.389   1_556 S
C615   H631    1.084   .     S
C616   C755    1.334   .     S
C616   H770    1.088   .     S
C618   O639    1.293   .     A
C618   O641    1.295   .     A
C619   O642    1.295   .     A
C619   O640    1.293   .     A
C620   H623    1.084   .     S
Cl622  N680    1.723   .     S
H624   C755    1.088   .     S
N633   Zn644   2.030   .     S
N633   Cl667   1.723   .     S
N633   N680    1.281   .     S
N634   Zn643   2.030   .     S
O635   Zn643   1.958   .     S
O636   Zn644   1.958   .     S
O637   Zn644   1.975   .     S
O638   Zn643   1.975   .     S
O639   Zn643   2.008   .     S
O640   Zn644   2.008   .     S
O641   Zn644   2.017   .     S
O642   Zn643   2.017   .     S
C645   O681    1.282   .     A
C645   C662    1.401   .     S
C645   O683    1.290   .     A
C646   C648    1.396   .     A
C646   H671    1.084   .     S
C646   C657    1.383   .     A
C647   C665    1.433   .     S
C647   C666    1.396   .     A
C647   C649    1.397   .     A
C648   C650    1.397   .     A
C648   C664    1.433   .     S
C649   H672    1.085   .     S
C649   C651    1.382   .     A
C650   H673    1.085   .     S
C650   C652    1.382   .     A
C651   C653    1.411   .     A
C651   C658    1.400   .     A
C652   C659    1.400   .     A
C652   C654    1.411   .     A
C653   C655    1.412   .     A
C654   C657    1.412   .     A
C654   C239    1.390   1_556 S
C655   C666    1.383   .     A
C655   C661    1.399   .     A
C656   O684    1.290   .     A
C656   C663    1.401   .     S
C656   O682    1.282   .     A
C657   C660    1.399   .     A
C658   H674    1.084   .     S
C659   H675    1.084   .     S
C659   C247    1.389   1_556 S
C660   H676    1.084   .     S
C660   C244    1.389   1_556 S
C661   H677    1.084   .     S
C662   C801    1.334   .     S
C662   H816    1.088   .     S
C664   O685    1.293   .     A
C664   O687    1.295   .     A
C665   O688    1.295   .     A
C665   O686    1.293   .     A
C666   H669    1.084   .     S
Cl668  N588    1.723   1_655 S
H670   C801    1.088   .     S
N679   Zn690   2.030   .     S
N679   Cl575   1.723   1_655 S
N679   N588    1.281   1_655 S
N680   Zn689   2.030   .     S
O681   Zn689   1.958   .     S
O682   Zn690   1.958   .     S
O683   Zn690   1.975   .     S
O684   Zn689   1.975   .     S
O685   Zn689   2.008   .     S
O686   Zn690   2.008   .     S
O687   Zn690   2.017   .     S
O688   Zn689   2.017   .     S
C691   O727    1.282   .     A
C691   C708    1.401   .     S
C691   O729    1.290   .     A
C692   C694    1.396   .     A
C692   H717    1.084   .     S
C692   C703    1.383   .     A
C693   C711    1.433   .     S
C693   C712    1.396   .     A
C693   C695    1.397   .     A
C694   C696    1.397   .     A
C694   C710    1.433   .     S
C695   H718    1.085   .     S
C695   C697    1.382   .     A
C696   H719    1.085   .     S
C696   C698    1.382   .     A
C697   C699    1.411   .     A
C697   C704    1.400   .     A
C698   C705    1.400   .     A
C698   C700    1.411   .     A
C699   C701    1.412   .     A
C700   C703    1.412   .     A
C700   C285    1.390   1_556 S
C701   C712    1.383   .     A
C701   C707    1.399   .     A
C702   O730    1.290   .     A
C702   C709    1.401   .     S
C702   O728    1.282   .     A
C703   C706    1.399   .     A
C704   H720    1.084   .     S
C705   H721    1.084   .     S
C705   C293    1.389   1_556 S
C706   H722    1.084   .     S
C706   C290    1.389   1_556 S
C707   H723    1.084   .     S
C708   C433    1.334   1_565 S
C708   H448    1.088   1_565 S
C710   O731    1.293   .     A
C710   O733    1.295   .     A
C711   O734    1.295   .     A
C711   O732    1.293   .     A
C712   H715    1.084   .     S
Cl713  N817    1.723   1_455 S
Cl714  N772    1.723   .     S
H716   C433    1.088   1_565 S
N725   Zn736   2.030   .     S
N725   Cl759   1.723   .     S
N725   N772    1.281   .     S
N726   Zn735   2.030   .     S
N726   N817    1.281   1_455 S
N726   Cl806   1.723   1_455 S
O727   Zn735   1.958   .     S
O728   Zn736   1.958   .     S
O729   Zn736   1.975   .     S
O730   Zn735   1.975   .     S
O731   Zn735   2.008   .     S
O732   Zn736   2.008   .     S
O733   Zn736   2.017   .     S
O734   Zn735   2.017   .     S
C737   O773    1.282   .     A
C737   C754    1.401   .     S
C737   O775    1.290   .     A
C738   C740    1.396   .     A
C738   H763    1.084   .     S
C738   C749    1.383   .     A
C739   C757    1.433   .     S
C739   C758    1.396   .     A
C739   C741    1.397   .     A
C740   C742    1.397   .     A
C740   C756    1.433   .     S
C741   H764    1.085   .     S
C741   C743    1.382   .     A
C742   H765    1.085   .     S
C742   C744    1.382   .     A
C743   C745    1.411   .     A
C743   C750    1.400   .     A
C744   C751    1.400   .     A
C744   C746    1.411   .     A
C745   C747    1.412   .     A
C746   C749    1.412   .     A
C746   C331    1.390   1_556 S
C747   C758    1.383   .     A
C747   C753    1.399   .     A
C748   O776    1.290   .     A
C748   C755    1.401   .     S
C748   O774    1.282   .     A
C749   C752    1.399   .     A
C750   H766    1.084   .     S
C751   H767    1.084   .     S
C751   C339    1.389   1_556 S
C752   H768    1.084   .     S
C752   C336    1.389   1_556 S
C753   H769    1.084   .     S
C754   C479    1.334   1_565 S
C754   H494    1.088   1_565 S
C756   O777    1.293   .     A
C756   O779    1.295   .     A
C757   O780    1.295   .     A
C757   O778    1.293   .     A
C758   H761    1.084   .     S
Cl760  N818    1.723   .     S
H762   C479    1.088   1_565 S
N771   Zn782   2.030   .     S
N771   Cl805   1.723   .     S
N771   N818    1.281   .     S
N772   Zn781   2.030   .     S
O773   Zn781   1.958   .     S
O774   Zn782   1.958   .     S
O775   Zn782   1.975   .     S
O776   Zn781   1.975   .     S
O777   Zn781   2.008   .     S
O778   Zn782   2.008   .     S
O779   Zn782   2.017   .     S
O780   Zn781   2.017   .     S
C783   O819    1.282   .     A
C783   C800    1.401   .     S
C783   O821    1.290   .     A
C784   C786    1.396   .     A
C784   H809    1.084   .     S
C784   C795    1.383   .     A
C785   C803    1.433   .     S
C785   C804    1.396   .     A
C785   C787    1.397   .     A
C786   C788    1.397   .     A
C786   C802    1.433   .     S
C787   H810    1.085   .     S
C787   C789    1.382   .     A
C788   H811    1.085   .     S
C788   C790    1.382   .     A
C789   C791    1.411   .     A
C789   C796    1.400   .     A
C790   C797    1.400   .     A
C790   C792    1.411   .     A
C791   C793    1.412   .     A
C792   C795    1.412   .     A
C792   C377    1.390   1_556 S
C793   C804    1.383   .     A
C793   C799    1.399   .     A
C794   O822    1.290   .     A
C794   C801    1.401   .     S
C794   O820    1.282   .     A
C795   C798    1.399   .     A
C796   H812    1.084   .     S
C797   H813    1.084   .     S
C797   C385    1.389   1_556 S
C798   H814    1.084   .     S
C798   C382    1.389   1_556 S
C799   H815    1.084   .     S
C800   C525    1.334   1_565 S
C800   H540    1.088   1_565 S
C802   O823    1.293   .     A
C802   O825    1.295   .     A
C803   O826    1.295   .     A
C803   O824    1.293   .     A
C804   H807    1.084   .     S
Cl806  N726    1.723   1_655 S
H808   C525    1.088   1_565 S
N817   Zn828   2.030   .     S
N817   Cl713   1.723   1_655 S
N817   N726    1.281   1_655 S
N818   Zn827   2.030   .     S
O819   Zn827   1.958   .     S
O820   Zn828   1.958   .     S
O821   Zn828   1.975   .     S
O822   Zn827   1.975   .     S
O823   Zn827   2.008   .     S
O824   Zn828   2.008   .     S
O825   Zn828   2.017   .     S
O826   Zn827   2.017   .     S
