data_str_m2_o1_o16_pcu_sym.91
_audit_creation_date              2020-01-03
_audit_creation_method            'Materials Studio'
_symmetry_space_group_name_H-M    'P1'
_symmetry_Int_Tables_number       1
_symmetry_cell_setting            triclinic
loop_
_symmetry_equiv_pos_as_xyz
  x,y,z
_cell_length_a                    28.5281
_cell_length_b                    32.4935
_cell_length_c                    26.8702
_cell_angle_alpha                 90.3354
_cell_angle_beta                  72.4012
_cell_angle_gamma                 89.9424
loop_
_atom_site_label
_atom_site_type_symbol
_atom_site_fract_x
_atom_site_fract_y
_atom_site_fract_z
_atom_site_U_iso_or_equiv
_atom_site_adp_type
_atom_site_occupancy
C1     C     0.16673   0.24598   0.24981   0.00000  Uiso   1.00
C2     C     0.12391   0.17038   0.40777   0.00000  Uiso   1.00
C3     C     0.21014   0.31196   0.24679   0.00000  Uiso   1.00
C4     C     0.14031   0.16870   0.35018   0.00000  Uiso   1.00
C5     C     0.21014   0.02121   0.24684   0.00000  Uiso   1.00
C6     C     0.16685   0.04272   0.24946   0.00000  Uiso   1.00
C7     C     0.12365   0.02131   0.25175   0.00000  Uiso   1.00
C8     C     0.12364   0.31208   0.25174   0.00000  Uiso   1.00
C9     C     0.16684   0.29058   0.24942   0.00000  Uiso   1.00
C10    C     0.30015   0.19442   0.27957   0.00000  Uiso   1.00
C11    C     0.01633   0.19425   0.27983   0.00000  Uiso   1.00
C12    C     0.14375   0.17367   0.49026   0.00000  Uiso   1.00
C13    C     0.03340   0.13925   0.21985   0.00000  Uiso   1.00
C14    C     0.31707   0.13922   0.21993   0.00000  Uiso   1.00
C15    C     0.16673   0.08734   0.24981   0.00000  Uiso   1.00
C16    C     0.19300   0.16773   0.14989   0.00000  Uiso   1.00
C17    C     0.26158   0.20450   0.01429   0.00000  Uiso   1.00
C18    C     0.20793   0.17435   0.09328   0.00000  Uiso   1.00
C19    C     0.07698   0.15543   0.43453   0.00000  Uiso   1.00
C20    C     0.06269   0.15092   0.48836   0.00000  Uiso   1.00
C21    C     0.09581   0.15898   0.01600   0.00000  Uiso   1.00
C22    C     0.28831   0.24164   0.10484   0.00000  Uiso   1.00
C23    C     0.15576   0.18321   0.43644   0.00000  Uiso   1.00
C24    C     0.32379   0.24797   0.13656   0.00000  Uiso   1.00
C25    C     0.18002   0.17967   0.01615   0.00000  Uiso   1.00
C26    C     0.22526   0.19885   0.48955   0.00000  Uiso   1.00
C27    C     0.23342   0.21294   0.43880   0.00000  Uiso   1.00
C28    C     0.19880   0.20589   0.41299   0.00000  Uiso   1.00
C29    C     0.17310   0.16644   0.06738   0.00000  Uiso   1.00
C30    C     0.25281   0.19326   0.06650   0.00000  Uiso   1.00
Cu31   Cu    0.11978   0.16666   0.25000   0.00000  Uiso   1.00
Cu32   Cu    0.21355   0.16667   0.25000   0.00000  Uiso   1.00
H33    H     0.24396   0.03719   0.24482   0.00000  Uiso   1.00
H34    H     0.14052   0.14987   0.08842   0.00000  Uiso   1.00
H35    H     0.05149   0.14634   0.41370   0.00000  Uiso   1.00
H36    H     0.08228   0.15442   0.05759   0.00000  Uiso   1.00
H37    H     0.02617   0.13981   0.00866   0.00000  Uiso   1.00
H38    H     0.20554   0.21951   0.37498   0.00000  Uiso   1.00
H39    H     0.24398   0.29589   0.24471   0.00000  Uiso   1.00
H40    H     0.25099   0.25160   0.12933   0.00000  Uiso   1.00
H41    H     0.30044   0.26133   0.06951   0.00000  Uiso   1.00
H42    H     0.02817   0.23851   0.11324   0.00000  Uiso   1.00
H43    H     0.32418   0.28094   0.14755   0.00000  Uiso   1.00
H44    H     0.08982   0.03737   0.25373   0.00000  Uiso   1.00
H45    H     0.31205   0.22935   0.17268   0.00000  Uiso   1.00
H46    H     0.08981   0.29610   0.25375   0.00000  Uiso   1.00
H47    H     0.27498   0.21699   0.30275   0.00000  Uiso   1.00
H48    H     0.02824   0.21634   0.30373   0.00000  Uiso   1.00
H49    H     0.05900   0.11731   0.19568   0.00000  Uiso   1.00
H50    H     0.30522   0.11728   0.19583   0.00000  Uiso   1.00
H51    H     0.26675   0.22946   0.41889   0.00000  Uiso   1.00
H52    H     0.29645   0.21849   0.49352   0.00000  Uiso   1.00
N53    N     0.04931   0.16666   0.24999   0.00000  Uiso   1.00
N54    N     0.28402   0.16669   0.25000   0.00000  Uiso   1.00
O55    O     0.12708   0.22678   0.25001   0.00000  Uiso   1.00
O56    O     0.20627   0.22679   0.25001   0.00000  Uiso   1.00
O57    O     0.10775   0.16665   0.32549   0.00000  Uiso   1.00
O58    O     0.18694   0.16666   0.32549   0.00000  Uiso   1.00
O59    O     0.12706   0.10654   0.25000   0.00000  Uiso   1.00
O60    O     0.20625   0.10655   0.25000   0.00000  Uiso   1.00
O61    O     0.14640   0.16667   0.17451   0.00000  Uiso   1.00
O62    O     0.22559   0.16668   0.17451   0.00000  Uiso   1.00
O63    O     0.28865   0.19968   0.09071   0.00000  Uiso   1.00
C64    C     0.50006   0.24598   0.24981   0.00000  Uiso   1.00
C65    C     0.45725   0.17038   0.40777   0.00000  Uiso   1.00
C66    C     0.54347   0.31196   0.24679   0.00000  Uiso   1.00
C67    C     0.47364   0.16870   0.35018   0.00000  Uiso   1.00
C68    C     0.54347   0.02121   0.24684   0.00000  Uiso   1.00
C69    C     0.50018   0.04272   0.24946   0.00000  Uiso   1.00
C70    C     0.45698   0.02131   0.25175   0.00000  Uiso   1.00
C71    C     0.45697   0.31208   0.25174   0.00000  Uiso   1.00
C72    C     0.50017   0.29058   0.24942   0.00000  Uiso   1.00
C73    C     0.63348   0.19442   0.27957   0.00000  Uiso   1.00
C74    C     0.34967   0.19425   0.27983   0.00000  Uiso   1.00
C75    C     0.47708   0.17367   0.49026   0.00000  Uiso   1.00
C76    C     0.36673   0.13925   0.21985   0.00000  Uiso   1.00
C77    C     0.65041   0.13922   0.21993   0.00000  Uiso   1.00
C78    C     0.50006   0.08734   0.24981   0.00000  Uiso   1.00
C79    C     0.52633   0.16773   0.14989   0.00000  Uiso   1.00
C80    C     0.59492   0.20450   0.01429   0.00000  Uiso   1.00
C81    C     0.54126   0.17435   0.09328   0.00000  Uiso   1.00
C82    C     0.41031   0.15543   0.43453   0.00000  Uiso   1.00
C83    C     0.39602   0.15092   0.48836   0.00000  Uiso   1.00
C84    C     0.42914   0.15898   0.01600   0.00000  Uiso   1.00
C85    C     0.62165   0.24164   0.10484   0.00000  Uiso   1.00
C86    C     0.48909   0.18321   0.43644   0.00000  Uiso   1.00
C87    C     0.65712   0.24797   0.13656   0.00000  Uiso   1.00
C88    C     0.51336   0.17967   0.01615   0.00000  Uiso   1.00
C89    C     0.55859   0.19885   0.48955   0.00000  Uiso   1.00
C90    C     0.56675   0.21294   0.43880   0.00000  Uiso   1.00
C91    C     0.53213   0.20589   0.41299   0.00000  Uiso   1.00
C92    C     0.50643   0.16644   0.06738   0.00000  Uiso   1.00
C93    C     0.58615   0.19326   0.06650   0.00000  Uiso   1.00
Cu94   Cu    0.45311   0.16666   0.25000   0.00000  Uiso   1.00
Cu95   Cu    0.54689   0.16667   0.25000   0.00000  Uiso   1.00
H96    H     0.57730   0.03719   0.24482   0.00000  Uiso   1.00
H97    H     0.47385   0.14987   0.08842   0.00000  Uiso   1.00
H98    H     0.38483   0.14634   0.41370   0.00000  Uiso   1.00
H99    H     0.41561   0.15442   0.05759   0.00000  Uiso   1.00
H100   H     0.35950   0.13981   0.00866   0.00000  Uiso   1.00
H101   H     0.53888   0.21951   0.37498   0.00000  Uiso   1.00
H102   H     0.57731   0.29589   0.24471   0.00000  Uiso   1.00
H103   H     0.58432   0.25160   0.12933   0.00000  Uiso   1.00
H104   H     0.63378   0.26133   0.06951   0.00000  Uiso   1.00
H105   H     0.36151   0.23851   0.11324   0.00000  Uiso   1.00
H106   H     0.65751   0.28094   0.14755   0.00000  Uiso   1.00
H107   H     0.42316   0.03737   0.25373   0.00000  Uiso   1.00
H108   H     0.64539   0.22935   0.17268   0.00000  Uiso   1.00
H109   H     0.42314   0.29610   0.25375   0.00000  Uiso   1.00
H110   H     0.60831   0.21699   0.30275   0.00000  Uiso   1.00
H111   H     0.36157   0.21634   0.30373   0.00000  Uiso   1.00
H112   H     0.39233   0.11731   0.19568   0.00000  Uiso   1.00
H113   H     0.63855   0.11728   0.19583   0.00000  Uiso   1.00
H114   H     0.60008   0.22946   0.41889   0.00000  Uiso   1.00
H115   H     0.62978   0.21849   0.49352   0.00000  Uiso   1.00
N116   N     0.38265   0.16666   0.24999   0.00000  Uiso   1.00
N117   N     0.61735   0.16669   0.25000   0.00000  Uiso   1.00
O118   O     0.46042   0.22678   0.25001   0.00000  Uiso   1.00
O119   O     0.53961   0.22679   0.25001   0.00000  Uiso   1.00
O120   O     0.44108   0.16665   0.32549   0.00000  Uiso   1.00
O121   O     0.52027   0.16666   0.32549   0.00000  Uiso   1.00
O122   O     0.46039   0.10654   0.25000   0.00000  Uiso   1.00
O123   O     0.53958   0.10655   0.25000   0.00000  Uiso   1.00
O124   O     0.47973   0.16667   0.17451   0.00000  Uiso   1.00
O125   O     0.55892   0.16668   0.17451   0.00000  Uiso   1.00
O126   O     0.62198   0.19968   0.09071   0.00000  Uiso   1.00
C127   C     0.83339   0.24598   0.24981   0.00000  Uiso   1.00
C128   C     0.79058   0.17038   0.40777   0.00000  Uiso   1.00
C129   C     0.87681   0.31196   0.24679   0.00000  Uiso   1.00
C130   C     0.80698   0.16870   0.35018   0.00000  Uiso   1.00
C131   C     0.87680   0.02121   0.24684   0.00000  Uiso   1.00
C132   C     0.83352   0.04272   0.24946   0.00000  Uiso   1.00
C133   C     0.79031   0.02131   0.25175   0.00000  Uiso   1.00
C134   C     0.79030   0.31208   0.25174   0.00000  Uiso   1.00
C135   C     0.83351   0.29058   0.24942   0.00000  Uiso   1.00
C136   C     0.96681   0.19442   0.27957   0.00000  Uiso   1.00
C137   C     0.68300   0.19425   0.27983   0.00000  Uiso   1.00
C138   C     0.81041   0.17367   0.49026   0.00000  Uiso   1.00
C139   C     0.70007   0.13925   0.21985   0.00000  Uiso   1.00
C140   C     0.98374   0.13922   0.21993   0.00000  Uiso   1.00
C141   C     0.83339   0.08734   0.24981   0.00000  Uiso   1.00
C142   C     0.85966   0.16773   0.14989   0.00000  Uiso   1.00
C143   C     0.92825   0.20450   0.01429   0.00000  Uiso   1.00
C144   C     0.87460   0.17435   0.09328   0.00000  Uiso   1.00
C145   C     0.74364   0.15543   0.43453   0.00000  Uiso   1.00
C146   C     0.72936   0.15092   0.48836   0.00000  Uiso   1.00
C147   C     0.76247   0.15898   0.01600   0.00000  Uiso   1.00
C148   C     0.95498   0.24164   0.10484   0.00000  Uiso   1.00
C149   C     0.82242   0.18321   0.43644   0.00000  Uiso   1.00
C150   C     0.99046   0.24797   0.13656   0.00000  Uiso   1.00
C151   C     0.84669   0.17967   0.01615   0.00000  Uiso   1.00
C152   C     0.89192   0.19885   0.48955   0.00000  Uiso   1.00
C153   C     0.90008   0.21294   0.43880   0.00000  Uiso   1.00
C154   C     0.86546   0.20589   0.41299   0.00000  Uiso   1.00
C155   C     0.83977   0.16644   0.06738   0.00000  Uiso   1.00
C156   C     0.91948   0.19326   0.06650   0.00000  Uiso   1.00
Cu157  Cu    0.78645   0.16666   0.25000   0.00000  Uiso   1.00
Cu158  Cu    0.88022   0.16667   0.25000   0.00000  Uiso   1.00
H159   H     0.91063   0.03719   0.24482   0.00000  Uiso   1.00
H160   H     0.80718   0.14987   0.08842   0.00000  Uiso   1.00
H161   H     0.71816   0.14634   0.41370   0.00000  Uiso   1.00
H162   H     0.74895   0.15442   0.05759   0.00000  Uiso   1.00
H163   H     0.69284   0.13981   0.00866   0.00000  Uiso   1.00
H164   H     0.87221   0.21951   0.37498   0.00000  Uiso   1.00
H165   H     0.91064   0.29589   0.24471   0.00000  Uiso   1.00
H166   H     0.91766   0.25160   0.12933   0.00000  Uiso   1.00
H167   H     0.96711   0.26133   0.06951   0.00000  Uiso   1.00
H168   H     0.69484   0.23851   0.11324   0.00000  Uiso   1.00
H169   H     0.99085   0.28094   0.14755   0.00000  Uiso   1.00
H170   H     0.75649   0.03737   0.25373   0.00000  Uiso   1.00
H171   H     0.97872   0.22935   0.17268   0.00000  Uiso   1.00
H172   H     0.75648   0.29610   0.25375   0.00000  Uiso   1.00
H173   H     0.94164   0.21699   0.30275   0.00000  Uiso   1.00
H174   H     0.69490   0.21634   0.30373   0.00000  Uiso   1.00
H175   H     0.72567   0.11731   0.19568   0.00000  Uiso   1.00
H176   H     0.97188   0.11728   0.19583   0.00000  Uiso   1.00
H177   H     0.93342   0.22946   0.41889   0.00000  Uiso   1.00
H178   H     0.96311   0.21849   0.49352   0.00000  Uiso   1.00
N179   N     0.71598   0.16666   0.24999   0.00000  Uiso   1.00
N180   N     0.95069   0.16669   0.25000   0.00000  Uiso   1.00
O181   O     0.79375   0.22678   0.25001   0.00000  Uiso   1.00
O182   O     0.87294   0.22679   0.25001   0.00000  Uiso   1.00
O183   O     0.77441   0.16665   0.32549   0.00000  Uiso   1.00
O184   O     0.85360   0.16666   0.32549   0.00000  Uiso   1.00
O185   O     0.79373   0.10654   0.25000   0.00000  Uiso   1.00
O186   O     0.87292   0.10655   0.25000   0.00000  Uiso   1.00
O187   O     0.81306   0.16667   0.17451   0.00000  Uiso   1.00
O188   O     0.89225   0.16668   0.17451   0.00000  Uiso   1.00
O189   O     0.95532   0.19968   0.09071   0.00000  Uiso   1.00
C190   C     0.16673   0.57931   0.24981   0.00000  Uiso   1.00
C191   C     0.12391   0.50371   0.40777   0.00000  Uiso   1.00
C192   C     0.21014   0.64530   0.24679   0.00000  Uiso   1.00
C193   C     0.14031   0.50204   0.35018   0.00000  Uiso   1.00
C194   C     0.21014   0.35454   0.24684   0.00000  Uiso   1.00
C195   C     0.16685   0.37605   0.24946   0.00000  Uiso   1.00
C196   C     0.12365   0.35465   0.25175   0.00000  Uiso   1.00
C197   C     0.12364   0.64541   0.25174   0.00000  Uiso   1.00
C198   C     0.16684   0.62391   0.24942   0.00000  Uiso   1.00
C199   C     0.30015   0.52775   0.27957   0.00000  Uiso   1.00
C200   C     0.01633   0.52758   0.27983   0.00000  Uiso   1.00
C201   C     0.14375   0.50700   0.49026   0.00000  Uiso   1.00
C202   C     0.03340   0.47259   0.21985   0.00000  Uiso   1.00
C203   C     0.31707   0.47255   0.21993   0.00000  Uiso   1.00
C204   C     0.16673   0.42068   0.24981   0.00000  Uiso   1.00
C205   C     0.19300   0.50106   0.14989   0.00000  Uiso   1.00
C206   C     0.26158   0.53783   0.01429   0.00000  Uiso   1.00
C207   C     0.20793   0.50769   0.09328   0.00000  Uiso   1.00
C208   C     0.07698   0.48876   0.43453   0.00000  Uiso   1.00
C209   C     0.06269   0.48425   0.48836   0.00000  Uiso   1.00
C210   C     0.09581   0.49232   0.01600   0.00000  Uiso   1.00
C211   C     0.28831   0.57497   0.10484   0.00000  Uiso   1.00
C212   C     0.15576   0.51654   0.43644   0.00000  Uiso   1.00
C213   C     0.32379   0.58130   0.13656   0.00000  Uiso   1.00
C214   C     0.18002   0.51300   0.01615   0.00000  Uiso   1.00
C215   C     0.22526   0.53218   0.48955   0.00000  Uiso   1.00
C216   C     0.23342   0.54627   0.43880   0.00000  Uiso   1.00
C217   C     0.19880   0.53922   0.41299   0.00000  Uiso   1.00
C218   C     0.17310   0.49977   0.06738   0.00000  Uiso   1.00
C219   C     0.25281   0.52660   0.06650   0.00000  Uiso   1.00
Cu220  Cu    0.11978   0.49999   0.25000   0.00000  Uiso   1.00
Cu221  Cu    0.21355   0.50001   0.25000   0.00000  Uiso   1.00
H222   H     0.24396   0.37053   0.24482   0.00000  Uiso   1.00
H223   H     0.14052   0.48321   0.08842   0.00000  Uiso   1.00
H224   H     0.05149   0.47967   0.41370   0.00000  Uiso   1.00
H225   H     0.08228   0.48775   0.05759   0.00000  Uiso   1.00
H226   H     0.02617   0.47314   0.00866   0.00000  Uiso   1.00
H227   H     0.20554   0.55284   0.37498   0.00000  Uiso   1.00
H228   H     0.24398   0.62922   0.24471   0.00000  Uiso   1.00
H229   H     0.25099   0.58493   0.12933   0.00000  Uiso   1.00
H230   H     0.30044   0.59466   0.06951   0.00000  Uiso   1.00
H231   H     0.02817   0.57184   0.11324   0.00000  Uiso   1.00
H232   H     0.32418   0.61427   0.14755   0.00000  Uiso   1.00
H233   H     0.08982   0.37070   0.25373   0.00000  Uiso   1.00
H234   H     0.31205   0.56268   0.17268   0.00000  Uiso   1.00
H235   H     0.08981   0.62944   0.25375   0.00000  Uiso   1.00
H236   H     0.27498   0.55032   0.30275   0.00000  Uiso   1.00
H237   H     0.02824   0.54968   0.30373   0.00000  Uiso   1.00
H238   H     0.05900   0.45065   0.19568   0.00000  Uiso   1.00
H239   H     0.30522   0.45061   0.19583   0.00000  Uiso   1.00
H240   H     0.26675   0.56279   0.41889   0.00000  Uiso   1.00
H241   H     0.29645   0.55182   0.49352   0.00000  Uiso   1.00
N242   N     0.04931   0.49999   0.24999   0.00000  Uiso   1.00
N243   N     0.28402   0.50002   0.25000   0.00000  Uiso   1.00
O244   O     0.12708   0.56011   0.25001   0.00000  Uiso   1.00
O245   O     0.20627   0.56012   0.25001   0.00000  Uiso   1.00
O246   O     0.10775   0.49998   0.32549   0.00000  Uiso   1.00
O247   O     0.18694   0.49999   0.32549   0.00000  Uiso   1.00
O248   O     0.12706   0.43988   0.25000   0.00000  Uiso   1.00
O249   O     0.20625   0.43989   0.25000   0.00000  Uiso   1.00
O250   O     0.14640   0.50001   0.17451   0.00000  Uiso   1.00
O251   O     0.22559   0.50002   0.17451   0.00000  Uiso   1.00
O252   O     0.28865   0.53302   0.09071   0.00000  Uiso   1.00
C253   C     0.50006   0.57931   0.24981   0.00000  Uiso   1.00
C254   C     0.45725   0.50371   0.40777   0.00000  Uiso   1.00
C255   C     0.54347   0.64530   0.24679   0.00000  Uiso   1.00
C256   C     0.47364   0.50204   0.35018   0.00000  Uiso   1.00
C257   C     0.54347   0.35454   0.24684   0.00000  Uiso   1.00
C258   C     0.50018   0.37605   0.24946   0.00000  Uiso   1.00
C259   C     0.45698   0.35465   0.25175   0.00000  Uiso   1.00
C260   C     0.45697   0.64541   0.25174   0.00000  Uiso   1.00
C261   C     0.50017   0.62391   0.24942   0.00000  Uiso   1.00
C262   C     0.63348   0.52775   0.27957   0.00000  Uiso   1.00
C263   C     0.34967   0.52758   0.27983   0.00000  Uiso   1.00
C264   C     0.47708   0.50700   0.49026   0.00000  Uiso   1.00
C265   C     0.36673   0.47259   0.21985   0.00000  Uiso   1.00
C266   C     0.65041   0.47255   0.21993   0.00000  Uiso   1.00
C267   C     0.50006   0.42068   0.24981   0.00000  Uiso   1.00
C268   C     0.52633   0.50106   0.14989   0.00000  Uiso   1.00
C269   C     0.59492   0.53783   0.01429   0.00000  Uiso   1.00
C270   C     0.54126   0.50769   0.09328   0.00000  Uiso   1.00
C271   C     0.41031   0.48876   0.43453   0.00000  Uiso   1.00
C272   C     0.39602   0.48425   0.48836   0.00000  Uiso   1.00
C273   C     0.42914   0.49232   0.01600   0.00000  Uiso   1.00
C274   C     0.62165   0.57497   0.10484   0.00000  Uiso   1.00
C275   C     0.48909   0.51654   0.43644   0.00000  Uiso   1.00
C276   C     0.65712   0.58130   0.13656   0.00000  Uiso   1.00
C277   C     0.51336   0.51300   0.01615   0.00000  Uiso   1.00
C278   C     0.55859   0.53218   0.48955   0.00000  Uiso   1.00
C279   C     0.56675   0.54627   0.43880   0.00000  Uiso   1.00
C280   C     0.53213   0.53922   0.41299   0.00000  Uiso   1.00
C281   C     0.50643   0.49977   0.06738   0.00000  Uiso   1.00
C282   C     0.58615   0.52660   0.06650   0.00000  Uiso   1.00
Cu283  Cu    0.45311   0.49999   0.25000   0.00000  Uiso   1.00
Cu284  Cu    0.54689   0.50001   0.25000   0.00000  Uiso   1.00
H285   H     0.57730   0.37053   0.24482   0.00000  Uiso   1.00
H286   H     0.47385   0.48321   0.08842   0.00000  Uiso   1.00
H287   H     0.38483   0.47967   0.41370   0.00000  Uiso   1.00
H288   H     0.41561   0.48775   0.05759   0.00000  Uiso   1.00
H289   H     0.35950   0.47314   0.00866   0.00000  Uiso   1.00
H290   H     0.53888   0.55284   0.37498   0.00000  Uiso   1.00
H291   H     0.57731   0.62922   0.24471   0.00000  Uiso   1.00
H292   H     0.58432   0.58493   0.12933   0.00000  Uiso   1.00
H293   H     0.63378   0.59466   0.06951   0.00000  Uiso   1.00
H294   H     0.36151   0.57184   0.11324   0.00000  Uiso   1.00
H295   H     0.65751   0.61427   0.14755   0.00000  Uiso   1.00
H296   H     0.42316   0.37070   0.25373   0.00000  Uiso   1.00
H297   H     0.64539   0.56268   0.17268   0.00000  Uiso   1.00
H298   H     0.42314   0.62944   0.25375   0.00000  Uiso   1.00
H299   H     0.60831   0.55032   0.30275   0.00000  Uiso   1.00
H300   H     0.36157   0.54968   0.30373   0.00000  Uiso   1.00
H301   H     0.39233   0.45065   0.19568   0.00000  Uiso   1.00
H302   H     0.63855   0.45061   0.19583   0.00000  Uiso   1.00
H303   H     0.60008   0.56279   0.41889   0.00000  Uiso   1.00
H304   H     0.62978   0.55182   0.49352   0.00000  Uiso   1.00
N305   N     0.38265   0.49999   0.24999   0.00000  Uiso   1.00
N306   N     0.61735   0.50002   0.25000   0.00000  Uiso   1.00
O307   O     0.46042   0.56011   0.25001   0.00000  Uiso   1.00
O308   O     0.53961   0.56012   0.25001   0.00000  Uiso   1.00
O309   O     0.44108   0.49998   0.32549   0.00000  Uiso   1.00
O310   O     0.52027   0.49999   0.32549   0.00000  Uiso   1.00
O311   O     0.46039   0.43988   0.25000   0.00000  Uiso   1.00
O312   O     0.53958   0.43989   0.25000   0.00000  Uiso   1.00
O313   O     0.47973   0.50001   0.17451   0.00000  Uiso   1.00
O314   O     0.55892   0.50002   0.17451   0.00000  Uiso   1.00
O315   O     0.62198   0.53302   0.09071   0.00000  Uiso   1.00
C316   C     0.83339   0.57931   0.24981   0.00000  Uiso   1.00
C317   C     0.79058   0.50371   0.40777   0.00000  Uiso   1.00
C318   C     0.87681   0.64530   0.24679   0.00000  Uiso   1.00
C319   C     0.80698   0.50204   0.35018   0.00000  Uiso   1.00
C320   C     0.87680   0.35454   0.24684   0.00000  Uiso   1.00
C321   C     0.83352   0.37605   0.24946   0.00000  Uiso   1.00
C322   C     0.79031   0.35465   0.25175   0.00000  Uiso   1.00
C323   C     0.79030   0.64541   0.25174   0.00000  Uiso   1.00
C324   C     0.83351   0.62391   0.24942   0.00000  Uiso   1.00
C325   C     0.96681   0.52775   0.27957   0.00000  Uiso   1.00
C326   C     0.68300   0.52758   0.27983   0.00000  Uiso   1.00
C327   C     0.81041   0.50700   0.49026   0.00000  Uiso   1.00
C328   C     0.70007   0.47259   0.21985   0.00000  Uiso   1.00
C329   C     0.98374   0.47255   0.21993   0.00000  Uiso   1.00
C330   C     0.83339   0.42068   0.24981   0.00000  Uiso   1.00
C331   C     0.85966   0.50106   0.14989   0.00000  Uiso   1.00
C332   C     0.92825   0.53783   0.01429   0.00000  Uiso   1.00
C333   C     0.87460   0.50769   0.09328   0.00000  Uiso   1.00
C334   C     0.74364   0.48876   0.43453   0.00000  Uiso   1.00
C335   C     0.72936   0.48425   0.48836   0.00000  Uiso   1.00
C336   C     0.76247   0.49232   0.01600   0.00000  Uiso   1.00
C337   C     0.95498   0.57497   0.10484   0.00000  Uiso   1.00
C338   C     0.82242   0.51654   0.43644   0.00000  Uiso   1.00
C339   C     0.99046   0.58130   0.13656   0.00000  Uiso   1.00
C340   C     0.84669   0.51300   0.01615   0.00000  Uiso   1.00
C341   C     0.89192   0.53218   0.48955   0.00000  Uiso   1.00
C342   C     0.90008   0.54627   0.43880   0.00000  Uiso   1.00
C343   C     0.86546   0.53922   0.41299   0.00000  Uiso   1.00
C344   C     0.83977   0.49977   0.06738   0.00000  Uiso   1.00
C345   C     0.91948   0.52660   0.06650   0.00000  Uiso   1.00
Cu346  Cu    0.78645   0.49999   0.25000   0.00000  Uiso   1.00
Cu347  Cu    0.88022   0.50001   0.25000   0.00000  Uiso   1.00
H348   H     0.91063   0.37053   0.24482   0.00000  Uiso   1.00
H349   H     0.80718   0.48321   0.08842   0.00000  Uiso   1.00
H350   H     0.71816   0.47967   0.41370   0.00000  Uiso   1.00
H351   H     0.74895   0.48775   0.05759   0.00000  Uiso   1.00
H352   H     0.69284   0.47314   0.00866   0.00000  Uiso   1.00
H353   H     0.87221   0.55284   0.37498   0.00000  Uiso   1.00
H354   H     0.91064   0.62922   0.24471   0.00000  Uiso   1.00
H355   H     0.91766   0.58493   0.12933   0.00000  Uiso   1.00
H356   H     0.96711   0.59466   0.06951   0.00000  Uiso   1.00
H357   H     0.69484   0.57184   0.11324   0.00000  Uiso   1.00
H358   H     0.99085   0.61427   0.14755   0.00000  Uiso   1.00
H359   H     0.75649   0.37070   0.25373   0.00000  Uiso   1.00
H360   H     0.97872   0.56268   0.17268   0.00000  Uiso   1.00
H361   H     0.75648   0.62944   0.25375   0.00000  Uiso   1.00
H362   H     0.94164   0.55032   0.30275   0.00000  Uiso   1.00
H363   H     0.69490   0.54968   0.30373   0.00000  Uiso   1.00
H364   H     0.72567   0.45065   0.19568   0.00000  Uiso   1.00
H365   H     0.97188   0.45061   0.19583   0.00000  Uiso   1.00
H366   H     0.93342   0.56279   0.41889   0.00000  Uiso   1.00
H367   H     0.96311   0.55182   0.49352   0.00000  Uiso   1.00
N368   N     0.71598   0.49999   0.24999   0.00000  Uiso   1.00
N369   N     0.95069   0.50002   0.25000   0.00000  Uiso   1.00
O370   O     0.79375   0.56011   0.25001   0.00000  Uiso   1.00
O371   O     0.87294   0.56012   0.25001   0.00000  Uiso   1.00
O372   O     0.77441   0.49998   0.32549   0.00000  Uiso   1.00
O373   O     0.85360   0.49999   0.32549   0.00000  Uiso   1.00
O374   O     0.79373   0.43988   0.25000   0.00000  Uiso   1.00
O375   O     0.87292   0.43989   0.25000   0.00000  Uiso   1.00
O376   O     0.81306   0.50001   0.17451   0.00000  Uiso   1.00
O377   O     0.89225   0.50002   0.17451   0.00000  Uiso   1.00
O378   O     0.95532   0.53302   0.09071   0.00000  Uiso   1.00
C379   C     0.16673   0.91265   0.24981   0.00000  Uiso   1.00
C380   C     0.12391   0.83704   0.40777   0.00000  Uiso   1.00
C381   C     0.21014   0.97863   0.24679   0.00000  Uiso   1.00
C382   C     0.14031   0.83537   0.35018   0.00000  Uiso   1.00
C383   C     0.21014   0.68788   0.24684   0.00000  Uiso   1.00
C384   C     0.16685   0.70939   0.24946   0.00000  Uiso   1.00
C385   C     0.12365   0.68798   0.25175   0.00000  Uiso   1.00
C386   C     0.12364   0.97874   0.25174   0.00000  Uiso   1.00
C387   C     0.16684   0.95724   0.24942   0.00000  Uiso   1.00
C388   C     0.30015   0.86109   0.27957   0.00000  Uiso   1.00
C389   C     0.01633   0.86092   0.27983   0.00000  Uiso   1.00
C390   C     0.14375   0.84034   0.49026   0.00000  Uiso   1.00
C391   C     0.03340   0.80592   0.21985   0.00000  Uiso   1.00
C392   C     0.31707   0.80589   0.21993   0.00000  Uiso   1.00
C393   C     0.16673   0.75401   0.24981   0.00000  Uiso   1.00
C394   C     0.19300   0.83440   0.14989   0.00000  Uiso   1.00
C395   C     0.26158   0.87116   0.01429   0.00000  Uiso   1.00
C396   C     0.20793   0.84102   0.09328   0.00000  Uiso   1.00
C397   C     0.07698   0.82209   0.43453   0.00000  Uiso   1.00
C398   C     0.06269   0.81758   0.48836   0.00000  Uiso   1.00
C399   C     0.09581   0.82565   0.01600   0.00000  Uiso   1.00
C400   C     0.28831   0.90830   0.10484   0.00000  Uiso   1.00
C401   C     0.15576   0.84987   0.43644   0.00000  Uiso   1.00
C402   C     0.32379   0.91464   0.13656   0.00000  Uiso   1.00
C403   C     0.18002   0.84634   0.01615   0.00000  Uiso   1.00
C404   C     0.22526   0.86551   0.48955   0.00000  Uiso   1.00
C405   C     0.23342   0.87960   0.43880   0.00000  Uiso   1.00
C406   C     0.19880   0.87256   0.41299   0.00000  Uiso   1.00
C407   C     0.17310   0.83310   0.06738   0.00000  Uiso   1.00
C408   C     0.25281   0.85993   0.06650   0.00000  Uiso   1.00
Cu409  Cu    0.11978   0.83333   0.25000   0.00000  Uiso   1.00
Cu410  Cu    0.21355   0.83334   0.25000   0.00000  Uiso   1.00
H411   H     0.24396   0.70386   0.24482   0.00000  Uiso   1.00
H412   H     0.14052   0.81654   0.08842   0.00000  Uiso   1.00
H413   H     0.05149   0.81301   0.41370   0.00000  Uiso   1.00
H414   H     0.08228   0.82108   0.05759   0.00000  Uiso   1.00
H415   H     0.02617   0.80648   0.00866   0.00000  Uiso   1.00
H416   H     0.20554   0.88617   0.37498   0.00000  Uiso   1.00
H417   H     0.24398   0.96256   0.24471   0.00000  Uiso   1.00
H418   H     0.25099   0.91826   0.12933   0.00000  Uiso   1.00
H419   H     0.30044   0.92800   0.06951   0.00000  Uiso   1.00
H420   H     0.02817   0.90517   0.11324   0.00000  Uiso   1.00
H421   H     0.32418   0.94760   0.14755   0.00000  Uiso   1.00
H422   H     0.08982   0.70403   0.25373   0.00000  Uiso   1.00
H423   H     0.31205   0.89602   0.17268   0.00000  Uiso   1.00
H424   H     0.08981   0.96277   0.25375   0.00000  Uiso   1.00
H425   H     0.27498   0.88366   0.30275   0.00000  Uiso   1.00
H426   H     0.02824   0.88301   0.30373   0.00000  Uiso   1.00
H427   H     0.05900   0.78398   0.19568   0.00000  Uiso   1.00
H428   H     0.30522   0.78394   0.19583   0.00000  Uiso   1.00
H429   H     0.26675   0.89612   0.41889   0.00000  Uiso   1.00
H430   H     0.29645   0.88515   0.49352   0.00000  Uiso   1.00
N431   N     0.04931   0.83332   0.24999   0.00000  Uiso   1.00
N432   N     0.28402   0.83335   0.25000   0.00000  Uiso   1.00
O433   O     0.12708   0.89345   0.25001   0.00000  Uiso   1.00
O434   O     0.20627   0.89346   0.25001   0.00000  Uiso   1.00
O435   O     0.10775   0.83332   0.32549   0.00000  Uiso   1.00
O436   O     0.18694   0.83333   0.32549   0.00000  Uiso   1.00
O437   O     0.12706   0.77321   0.25000   0.00000  Uiso   1.00
O438   O     0.20625   0.77322   0.25000   0.00000  Uiso   1.00
O439   O     0.14640   0.83334   0.17451   0.00000  Uiso   1.00
O440   O     0.22559   0.83335   0.17451   0.00000  Uiso   1.00
O441   O     0.28865   0.86635   0.09071   0.00000  Uiso   1.00
C442   C     0.50006   0.91265   0.24981   0.00000  Uiso   1.00
C443   C     0.45725   0.83704   0.40777   0.00000  Uiso   1.00
C444   C     0.54347   0.97863   0.24679   0.00000  Uiso   1.00
C445   C     0.47364   0.83537   0.35018   0.00000  Uiso   1.00
C446   C     0.54347   0.68788   0.24684   0.00000  Uiso   1.00
C447   C     0.50018   0.70939   0.24946   0.00000  Uiso   1.00
C448   C     0.45698   0.68798   0.25175   0.00000  Uiso   1.00
C449   C     0.45697   0.97874   0.25174   0.00000  Uiso   1.00
C450   C     0.50017   0.95724   0.24942   0.00000  Uiso   1.00
C451   C     0.63348   0.86109   0.27957   0.00000  Uiso   1.00
C452   C     0.34967   0.86092   0.27983   0.00000  Uiso   1.00
C453   C     0.47708   0.84034   0.49026   0.00000  Uiso   1.00
C454   C     0.36673   0.80592   0.21985   0.00000  Uiso   1.00
C455   C     0.65041   0.80589   0.21993   0.00000  Uiso   1.00
C456   C     0.50006   0.75401   0.24981   0.00000  Uiso   1.00
C457   C     0.52633   0.83440   0.14989   0.00000  Uiso   1.00
C458   C     0.59492   0.87116   0.01429   0.00000  Uiso   1.00
C459   C     0.54126   0.84102   0.09328   0.00000  Uiso   1.00
C460   C     0.41031   0.82209   0.43453   0.00000  Uiso   1.00
C461   C     0.39602   0.81758   0.48836   0.00000  Uiso   1.00
C462   C     0.42914   0.82565   0.01600   0.00000  Uiso   1.00
C463   C     0.62165   0.90830   0.10484   0.00000  Uiso   1.00
C464   C     0.48909   0.84987   0.43644   0.00000  Uiso   1.00
C465   C     0.65712   0.91464   0.13656   0.00000  Uiso   1.00
C466   C     0.51336   0.84634   0.01615   0.00000  Uiso   1.00
C467   C     0.55859   0.86551   0.48955   0.00000  Uiso   1.00
C468   C     0.56675   0.87960   0.43880   0.00000  Uiso   1.00
C469   C     0.53213   0.87256   0.41299   0.00000  Uiso   1.00
C470   C     0.50643   0.83310   0.06738   0.00000  Uiso   1.00
C471   C     0.58615   0.85993   0.06650   0.00000  Uiso   1.00
Cu472  Cu    0.45311   0.83333   0.25000   0.00000  Uiso   1.00
Cu473  Cu    0.54689   0.83334   0.25000   0.00000  Uiso   1.00
H474   H     0.57730   0.70386   0.24482   0.00000  Uiso   1.00
H475   H     0.47385   0.81654   0.08842   0.00000  Uiso   1.00
H476   H     0.38483   0.81301   0.41370   0.00000  Uiso   1.00
H477   H     0.41561   0.82108   0.05759   0.00000  Uiso   1.00
H478   H     0.35950   0.80648   0.00866   0.00000  Uiso   1.00
H479   H     0.53888   0.88617   0.37498   0.00000  Uiso   1.00
H480   H     0.57731   0.96256   0.24471   0.00000  Uiso   1.00
H481   H     0.58432   0.91826   0.12933   0.00000  Uiso   1.00
H482   H     0.63378   0.92800   0.06951   0.00000  Uiso   1.00
H483   H     0.36151   0.90517   0.11324   0.00000  Uiso   1.00
H484   H     0.65751   0.94760   0.14755   0.00000  Uiso   1.00
H485   H     0.42316   0.70403   0.25373   0.00000  Uiso   1.00
H486   H     0.64539   0.89602   0.17268   0.00000  Uiso   1.00
H487   H     0.42314   0.96277   0.25375   0.00000  Uiso   1.00
H488   H     0.60831   0.88366   0.30275   0.00000  Uiso   1.00
H489   H     0.36157   0.88301   0.30373   0.00000  Uiso   1.00
H490   H     0.39233   0.78398   0.19568   0.00000  Uiso   1.00
H491   H     0.63855   0.78394   0.19583   0.00000  Uiso   1.00
H492   H     0.60008   0.89612   0.41889   0.00000  Uiso   1.00
H493   H     0.62978   0.88515   0.49352   0.00000  Uiso   1.00
N494   N     0.38265   0.83332   0.24999   0.00000  Uiso   1.00
N495   N     0.61735   0.83335   0.25000   0.00000  Uiso   1.00
O496   O     0.46042   0.89345   0.25001   0.00000  Uiso   1.00
O497   O     0.53961   0.89346   0.25001   0.00000  Uiso   1.00
O498   O     0.44108   0.83332   0.32549   0.00000  Uiso   1.00
O499   O     0.52027   0.83333   0.32549   0.00000  Uiso   1.00
O500   O     0.46039   0.77321   0.25000   0.00000  Uiso   1.00
O501   O     0.53958   0.77322   0.25000   0.00000  Uiso   1.00
O502   O     0.47973   0.83334   0.17451   0.00000  Uiso   1.00
O503   O     0.55892   0.83335   0.17451   0.00000  Uiso   1.00
O504   O     0.62198   0.86635   0.09071   0.00000  Uiso   1.00
C505   C     0.83339   0.91265   0.24981   0.00000  Uiso   1.00
C506   C     0.79058   0.83704   0.40777   0.00000  Uiso   1.00
C507   C     0.87681   0.97863   0.24679   0.00000  Uiso   1.00
C508   C     0.80698   0.83537   0.35018   0.00000  Uiso   1.00
C509   C     0.87680   0.68788   0.24684   0.00000  Uiso   1.00
C510   C     0.83352   0.70939   0.24946   0.00000  Uiso   1.00
C511   C     0.79031   0.68798   0.25175   0.00000  Uiso   1.00
C512   C     0.79030   0.97874   0.25174   0.00000  Uiso   1.00
C513   C     0.83351   0.95724   0.24942   0.00000  Uiso   1.00
C514   C     0.96681   0.86109   0.27957   0.00000  Uiso   1.00
C515   C     0.68300   0.86092   0.27983   0.00000  Uiso   1.00
C516   C     0.81041   0.84034   0.49026   0.00000  Uiso   1.00
C517   C     0.70007   0.80592   0.21985   0.00000  Uiso   1.00
C518   C     0.98374   0.80589   0.21993   0.00000  Uiso   1.00
C519   C     0.83339   0.75401   0.24981   0.00000  Uiso   1.00
C520   C     0.85966   0.83440   0.14989   0.00000  Uiso   1.00
C521   C     0.92825   0.87116   0.01429   0.00000  Uiso   1.00
C522   C     0.87460   0.84102   0.09328   0.00000  Uiso   1.00
C523   C     0.74364   0.82209   0.43453   0.00000  Uiso   1.00
C524   C     0.72936   0.81758   0.48836   0.00000  Uiso   1.00
C525   C     0.76247   0.82565   0.01600   0.00000  Uiso   1.00
C526   C     0.95498   0.90830   0.10484   0.00000  Uiso   1.00
C527   C     0.82242   0.84987   0.43644   0.00000  Uiso   1.00
C528   C     0.99046   0.91464   0.13656   0.00000  Uiso   1.00
C529   C     0.84669   0.84634   0.01615   0.00000  Uiso   1.00
C530   C     0.89192   0.86551   0.48955   0.00000  Uiso   1.00
C531   C     0.90008   0.87960   0.43880   0.00000  Uiso   1.00
C532   C     0.86546   0.87256   0.41299   0.00000  Uiso   1.00
C533   C     0.83977   0.83310   0.06738   0.00000  Uiso   1.00
C534   C     0.91948   0.85993   0.06650   0.00000  Uiso   1.00
Cu535  Cu    0.78645   0.83333   0.25000   0.00000  Uiso   1.00
Cu536  Cu    0.88022   0.83334   0.25000   0.00000  Uiso   1.00
H537   H     0.91063   0.70386   0.24482   0.00000  Uiso   1.00
H538   H     0.80718   0.81654   0.08842   0.00000  Uiso   1.00
H539   H     0.71816   0.81301   0.41370   0.00000  Uiso   1.00
H540   H     0.74895   0.82108   0.05759   0.00000  Uiso   1.00
H541   H     0.69284   0.80648   0.00866   0.00000  Uiso   1.00
H542   H     0.87221   0.88617   0.37498   0.00000  Uiso   1.00
H543   H     0.91064   0.96256   0.24471   0.00000  Uiso   1.00
H544   H     0.91766   0.91826   0.12933   0.00000  Uiso   1.00
H545   H     0.96711   0.92800   0.06951   0.00000  Uiso   1.00
H546   H     0.69484   0.90517   0.11324   0.00000  Uiso   1.00
H547   H     0.99085   0.94760   0.14755   0.00000  Uiso   1.00
H548   H     0.75649   0.70403   0.25373   0.00000  Uiso   1.00
H549   H     0.97872   0.89602   0.17268   0.00000  Uiso   1.00
H550   H     0.75648   0.96277   0.25375   0.00000  Uiso   1.00
H551   H     0.94164   0.88366   0.30275   0.00000  Uiso   1.00
H552   H     0.69490   0.88301   0.30373   0.00000  Uiso   1.00
H553   H     0.72567   0.78398   0.19568   0.00000  Uiso   1.00
H554   H     0.97188   0.78394   0.19583   0.00000  Uiso   1.00
H555   H     0.93342   0.89612   0.41889   0.00000  Uiso   1.00
H556   H     0.96311   0.88515   0.49352   0.00000  Uiso   1.00
N557   N     0.71598   0.83332   0.24999   0.00000  Uiso   1.00
N558   N     0.95069   0.83335   0.25000   0.00000  Uiso   1.00
O559   O     0.79375   0.89345   0.25001   0.00000  Uiso   1.00
O560   O     0.87294   0.89346   0.25001   0.00000  Uiso   1.00
O561   O     0.77441   0.83332   0.32549   0.00000  Uiso   1.00
O562   O     0.85360   0.83333   0.32549   0.00000  Uiso   1.00
O563   O     0.79373   0.77321   0.25000   0.00000  Uiso   1.00
O564   O     0.87292   0.77322   0.25000   0.00000  Uiso   1.00
O565   O     0.81306   0.83334   0.17451   0.00000  Uiso   1.00
O566   O     0.89225   0.83335   0.17451   0.00000  Uiso   1.00
O567   O     0.95532   0.86635   0.09071   0.00000  Uiso   1.00
C568   C     0.16673   0.24598   0.74981   0.00000  Uiso   1.00
C569   C     0.12391   0.17038   0.90777   0.00000  Uiso   1.00
C570   C     0.21014   0.31196   0.74679   0.00000  Uiso   1.00
C571   C     0.14031   0.16870   0.85018   0.00000  Uiso   1.00
C572   C     0.21014   0.02121   0.74684   0.00000  Uiso   1.00
C573   C     0.16685   0.04272   0.74946   0.00000  Uiso   1.00
C574   C     0.12365   0.02131   0.75175   0.00000  Uiso   1.00
C575   C     0.12364   0.31208   0.75174   0.00000  Uiso   1.00
C576   C     0.16684   0.29058   0.74942   0.00000  Uiso   1.00
C577   C     0.30015   0.19442   0.77957   0.00000  Uiso   1.00
C578   C     0.01633   0.19425   0.77983   0.00000  Uiso   1.00
C579   C     0.14375   0.17367   0.99026   0.00000  Uiso   1.00
C580   C     0.03340   0.13925   0.71985   0.00000  Uiso   1.00
C581   C     0.31707   0.13922   0.71993   0.00000  Uiso   1.00
C582   C     0.16673   0.08734   0.74981   0.00000  Uiso   1.00
C583   C     0.19300   0.16773   0.64989   0.00000  Uiso   1.00
C584   C     0.26158   0.20450   0.51429   0.00000  Uiso   1.00
C585   C     0.20793   0.17435   0.59328   0.00000  Uiso   1.00
C586   C     0.07698   0.15543   0.93453   0.00000  Uiso   1.00
C587   C     0.06269   0.15092   0.98836   0.00000  Uiso   1.00
C588   C     0.09581   0.15898   0.51600   0.00000  Uiso   1.00
C589   C     0.28831   0.24164   0.60484   0.00000  Uiso   1.00
C590   C     0.15576   0.18321   0.93644   0.00000  Uiso   1.00
C591   C     0.32379   0.24797   0.63656   0.00000  Uiso   1.00
C592   C     0.18002   0.17967   0.51615   0.00000  Uiso   1.00
C593   C     0.22526   0.19885   0.98955   0.00000  Uiso   1.00
C594   C     0.23342   0.21294   0.93880   0.00000  Uiso   1.00
C595   C     0.19880   0.20589   0.91299   0.00000  Uiso   1.00
C596   C     0.17310   0.16644   0.56738   0.00000  Uiso   1.00
C597   C     0.25281   0.19326   0.56650   0.00000  Uiso   1.00
Cu598  Cu    0.11978   0.16666   0.75000   0.00000  Uiso   1.00
Cu599  Cu    0.21355   0.16667   0.75000   0.00000  Uiso   1.00
H600   H     0.24396   0.03719   0.74482   0.00000  Uiso   1.00
H601   H     0.14052   0.14987   0.58842   0.00000  Uiso   1.00
H602   H     0.05149   0.14634   0.91370   0.00000  Uiso   1.00
H603   H     0.08228   0.15442   0.55759   0.00000  Uiso   1.00
H604   H     0.02617   0.13981   0.50866   0.00000  Uiso   1.00
H605   H     0.20554   0.21951   0.87498   0.00000  Uiso   1.00
H606   H     0.24398   0.29589   0.74471   0.00000  Uiso   1.00
H607   H     0.25099   0.25160   0.62933   0.00000  Uiso   1.00
H608   H     0.30044   0.26133   0.56951   0.00000  Uiso   1.00
H609   H     0.02817   0.23851   0.61324   0.00000  Uiso   1.00
H610   H     0.32418   0.28094   0.64755   0.00000  Uiso   1.00
H611   H     0.08982   0.03737   0.75373   0.00000  Uiso   1.00
H612   H     0.31205   0.22935   0.67268   0.00000  Uiso   1.00
H613   H     0.08981   0.29610   0.75375   0.00000  Uiso   1.00
H614   H     0.27498   0.21699   0.80275   0.00000  Uiso   1.00
H615   H     0.02824   0.21634   0.80373   0.00000  Uiso   1.00
H616   H     0.05900   0.11731   0.69568   0.00000  Uiso   1.00
H617   H     0.30522   0.11728   0.69583   0.00000  Uiso   1.00
H618   H     0.26675   0.22946   0.91889   0.00000  Uiso   1.00
H619   H     0.29645   0.21849   0.99352   0.00000  Uiso   1.00
N620   N     0.04931   0.16666   0.74999   0.00000  Uiso   1.00
N621   N     0.28402   0.16669   0.75000   0.00000  Uiso   1.00
O622   O     0.12708   0.22678   0.75001   0.00000  Uiso   1.00
O623   O     0.20627   0.22679   0.75001   0.00000  Uiso   1.00
O624   O     0.10775   0.16665   0.82549   0.00000  Uiso   1.00
O625   O     0.18694   0.16666   0.82549   0.00000  Uiso   1.00
O626   O     0.12706   0.10654   0.75000   0.00000  Uiso   1.00
O627   O     0.20625   0.10655   0.75000   0.00000  Uiso   1.00
O628   O     0.14640   0.16667   0.67451   0.00000  Uiso   1.00
O629   O     0.22559   0.16668   0.67451   0.00000  Uiso   1.00
O630   O     0.28865   0.19968   0.59071   0.00000  Uiso   1.00
C631   C     0.50006   0.24598   0.74981   0.00000  Uiso   1.00
C632   C     0.45725   0.17038   0.90777   0.00000  Uiso   1.00
C633   C     0.54347   0.31196   0.74679   0.00000  Uiso   1.00
C634   C     0.47364   0.16870   0.85018   0.00000  Uiso   1.00
C635   C     0.54347   0.02121   0.74684   0.00000  Uiso   1.00
C636   C     0.50018   0.04272   0.74946   0.00000  Uiso   1.00
C637   C     0.45698   0.02131   0.75175   0.00000  Uiso   1.00
C638   C     0.45697   0.31208   0.75174   0.00000  Uiso   1.00
C639   C     0.50017   0.29058   0.74942   0.00000  Uiso   1.00
C640   C     0.63348   0.19442   0.77957   0.00000  Uiso   1.00
C641   C     0.34967   0.19425   0.77983   0.00000  Uiso   1.00
C642   C     0.47708   0.17367   0.99026   0.00000  Uiso   1.00
C643   C     0.36673   0.13925   0.71985   0.00000  Uiso   1.00
C644   C     0.65041   0.13922   0.71993   0.00000  Uiso   1.00
C645   C     0.50006   0.08734   0.74981   0.00000  Uiso   1.00
C646   C     0.52633   0.16773   0.64989   0.00000  Uiso   1.00
C647   C     0.59492   0.20450   0.51429   0.00000  Uiso   1.00
C648   C     0.54126   0.17435   0.59328   0.00000  Uiso   1.00
C649   C     0.41031   0.15543   0.93453   0.00000  Uiso   1.00
C650   C     0.39602   0.15092   0.98836   0.00000  Uiso   1.00
C651   C     0.42914   0.15898   0.51600   0.00000  Uiso   1.00
C652   C     0.62165   0.24164   0.60484   0.00000  Uiso   1.00
C653   C     0.48909   0.18321   0.93644   0.00000  Uiso   1.00
C654   C     0.65712   0.24797   0.63656   0.00000  Uiso   1.00
C655   C     0.51336   0.17967   0.51615   0.00000  Uiso   1.00
C656   C     0.55859   0.19885   0.98955   0.00000  Uiso   1.00
C657   C     0.56675   0.21294   0.93880   0.00000  Uiso   1.00
C658   C     0.53213   0.20589   0.91299   0.00000  Uiso   1.00
C659   C     0.50643   0.16644   0.56738   0.00000  Uiso   1.00
C660   C     0.58615   0.19326   0.56650   0.00000  Uiso   1.00
Cu661  Cu    0.45311   0.16666   0.75000   0.00000  Uiso   1.00
Cu662  Cu    0.54689   0.16667   0.75000   0.00000  Uiso   1.00
H663   H     0.57730   0.03719   0.74482   0.00000  Uiso   1.00
H664   H     0.47385   0.14987   0.58842   0.00000  Uiso   1.00
H665   H     0.38483   0.14634   0.91370   0.00000  Uiso   1.00
H666   H     0.41561   0.15442   0.55759   0.00000  Uiso   1.00
H667   H     0.35950   0.13981   0.50866   0.00000  Uiso   1.00
H668   H     0.53888   0.21951   0.87498   0.00000  Uiso   1.00
H669   H     0.57731   0.29589   0.74471   0.00000  Uiso   1.00
H670   H     0.58432   0.25160   0.62933   0.00000  Uiso   1.00
H671   H     0.63378   0.26133   0.56951   0.00000  Uiso   1.00
H672   H     0.36151   0.23851   0.61324   0.00000  Uiso   1.00
H673   H     0.65751   0.28094   0.64755   0.00000  Uiso   1.00
H674   H     0.42316   0.03737   0.75373   0.00000  Uiso   1.00
H675   H     0.64539   0.22935   0.67268   0.00000  Uiso   1.00
H676   H     0.42314   0.29610   0.75375   0.00000  Uiso   1.00
H677   H     0.60831   0.21699   0.80275   0.00000  Uiso   1.00
H678   H     0.36157   0.21634   0.80373   0.00000  Uiso   1.00
H679   H     0.39233   0.11731   0.69568   0.00000  Uiso   1.00
H680   H     0.63855   0.11728   0.69583   0.00000  Uiso   1.00
H681   H     0.60008   0.22946   0.91889   0.00000  Uiso   1.00
H682   H     0.62978   0.21849   0.99352   0.00000  Uiso   1.00
N683   N     0.38265   0.16666   0.74999   0.00000  Uiso   1.00
N684   N     0.61735   0.16669   0.75000   0.00000  Uiso   1.00
O685   O     0.46042   0.22678   0.75001   0.00000  Uiso   1.00
O686   O     0.53961   0.22679   0.75001   0.00000  Uiso   1.00
O687   O     0.44108   0.16665   0.82549   0.00000  Uiso   1.00
O688   O     0.52027   0.16666   0.82549   0.00000  Uiso   1.00
O689   O     0.46039   0.10654   0.75000   0.00000  Uiso   1.00
O690   O     0.53958   0.10655   0.75000   0.00000  Uiso   1.00
O691   O     0.47973   0.16667   0.67451   0.00000  Uiso   1.00
O692   O     0.55892   0.16668   0.67451   0.00000  Uiso   1.00
O693   O     0.62198   0.19968   0.59071   0.00000  Uiso   1.00
C694   C     0.83339   0.24598   0.74981   0.00000  Uiso   1.00
C695   C     0.79058   0.17038   0.90777   0.00000  Uiso   1.00
C696   C     0.87681   0.31196   0.74679   0.00000  Uiso   1.00
C697   C     0.80698   0.16870   0.85018   0.00000  Uiso   1.00
C698   C     0.87680   0.02121   0.74684   0.00000  Uiso   1.00
C699   C     0.83352   0.04272   0.74946   0.00000  Uiso   1.00
C700   C     0.79031   0.02131   0.75175   0.00000  Uiso   1.00
C701   C     0.79030   0.31208   0.75174   0.00000  Uiso   1.00
C702   C     0.83351   0.29058   0.74942   0.00000  Uiso   1.00
C703   C     0.96681   0.19442   0.77957   0.00000  Uiso   1.00
C704   C     0.68300   0.19425   0.77983   0.00000  Uiso   1.00
C705   C     0.81041   0.17367   0.99026   0.00000  Uiso   1.00
C706   C     0.70007   0.13925   0.71985   0.00000  Uiso   1.00
C707   C     0.98374   0.13922   0.71993   0.00000  Uiso   1.00
C708   C     0.83339   0.08734   0.74981   0.00000  Uiso   1.00
C709   C     0.85966   0.16773   0.64989   0.00000  Uiso   1.00
C710   C     0.92825   0.20450   0.51429   0.00000  Uiso   1.00
C711   C     0.87460   0.17435   0.59328   0.00000  Uiso   1.00
C712   C     0.74364   0.15543   0.93453   0.00000  Uiso   1.00
C713   C     0.72936   0.15092   0.98836   0.00000  Uiso   1.00
C714   C     0.76247   0.15898   0.51600   0.00000  Uiso   1.00
C715   C     0.95498   0.24164   0.60484   0.00000  Uiso   1.00
C716   C     0.82242   0.18321   0.93644   0.00000  Uiso   1.00
C717   C     0.99046   0.24797   0.63656   0.00000  Uiso   1.00
C718   C     0.84669   0.17967   0.51615   0.00000  Uiso   1.00
C719   C     0.89192   0.19885   0.98955   0.00000  Uiso   1.00
C720   C     0.90008   0.21294   0.93880   0.00000  Uiso   1.00
C721   C     0.86546   0.20589   0.91299   0.00000  Uiso   1.00
C722   C     0.83977   0.16644   0.56738   0.00000  Uiso   1.00
C723   C     0.91948   0.19326   0.56650   0.00000  Uiso   1.00
Cu724  Cu    0.78645   0.16666   0.75000   0.00000  Uiso   1.00
Cu725  Cu    0.88022   0.16667   0.75000   0.00000  Uiso   1.00
H726   H     0.91063   0.03719   0.74482   0.00000  Uiso   1.00
H727   H     0.80718   0.14987   0.58842   0.00000  Uiso   1.00
H728   H     0.71816   0.14634   0.91370   0.00000  Uiso   1.00
H729   H     0.74895   0.15442   0.55759   0.00000  Uiso   1.00
H730   H     0.69284   0.13981   0.50866   0.00000  Uiso   1.00
H731   H     0.87221   0.21951   0.87498   0.00000  Uiso   1.00
H732   H     0.91064   0.29589   0.74471   0.00000  Uiso   1.00
H733   H     0.91766   0.25160   0.62933   0.00000  Uiso   1.00
H734   H     0.96711   0.26133   0.56951   0.00000  Uiso   1.00
H735   H     0.69484   0.23851   0.61324   0.00000  Uiso   1.00
H736   H     0.99085   0.28094   0.64755   0.00000  Uiso   1.00
H737   H     0.75649   0.03737   0.75373   0.00000  Uiso   1.00
H738   H     0.97872   0.22935   0.67268   0.00000  Uiso   1.00
H739   H     0.75648   0.29610   0.75375   0.00000  Uiso   1.00
H740   H     0.94164   0.21699   0.80275   0.00000  Uiso   1.00
H741   H     0.69490   0.21634   0.80373   0.00000  Uiso   1.00
H742   H     0.72567   0.11731   0.69568   0.00000  Uiso   1.00
H743   H     0.97188   0.11728   0.69583   0.00000  Uiso   1.00
H744   H     0.93342   0.22946   0.91889   0.00000  Uiso   1.00
H745   H     0.96311   0.21849   0.99352   0.00000  Uiso   1.00
N746   N     0.71598   0.16666   0.74999   0.00000  Uiso   1.00
N747   N     0.95069   0.16669   0.75000   0.00000  Uiso   1.00
O748   O     0.79375   0.22678   0.75001   0.00000  Uiso   1.00
O749   O     0.87294   0.22679   0.75001   0.00000  Uiso   1.00
O750   O     0.77441   0.16665   0.82549   0.00000  Uiso   1.00
O751   O     0.85360   0.16666   0.82549   0.00000  Uiso   1.00
O752   O     0.79373   0.10654   0.75000   0.00000  Uiso   1.00
O753   O     0.87292   0.10655   0.75000   0.00000  Uiso   1.00
O754   O     0.81306   0.16667   0.67451   0.00000  Uiso   1.00
O755   O     0.89225   0.16668   0.67451   0.00000  Uiso   1.00
O756   O     0.95532   0.19968   0.59071   0.00000  Uiso   1.00
C757   C     0.16673   0.57931   0.74981   0.00000  Uiso   1.00
C758   C     0.12391   0.50371   0.90777   0.00000  Uiso   1.00
C759   C     0.21014   0.64530   0.74679   0.00000  Uiso   1.00
C760   C     0.14031   0.50204   0.85018   0.00000  Uiso   1.00
C761   C     0.21014   0.35454   0.74684   0.00000  Uiso   1.00
C762   C     0.16685   0.37605   0.74946   0.00000  Uiso   1.00
C763   C     0.12365   0.35465   0.75175   0.00000  Uiso   1.00
C764   C     0.12364   0.64541   0.75174   0.00000  Uiso   1.00
C765   C     0.16684   0.62391   0.74942   0.00000  Uiso   1.00
C766   C     0.30015   0.52775   0.77957   0.00000  Uiso   1.00
C767   C     0.01633   0.52758   0.77983   0.00000  Uiso   1.00
C768   C     0.14375   0.50700   0.99026   0.00000  Uiso   1.00
C769   C     0.03340   0.47259   0.71985   0.00000  Uiso   1.00
C770   C     0.31707   0.47255   0.71993   0.00000  Uiso   1.00
C771   C     0.16673   0.42068   0.74981   0.00000  Uiso   1.00
C772   C     0.19300   0.50106   0.64989   0.00000  Uiso   1.00
C773   C     0.26158   0.53783   0.51429   0.00000  Uiso   1.00
C774   C     0.20793   0.50769   0.59328   0.00000  Uiso   1.00
C775   C     0.07698   0.48876   0.93453   0.00000  Uiso   1.00
C776   C     0.06269   0.48425   0.98836   0.00000  Uiso   1.00
C777   C     0.09581   0.49232   0.51600   0.00000  Uiso   1.00
C778   C     0.28831   0.57497   0.60484   0.00000  Uiso   1.00
C779   C     0.15576   0.51654   0.93644   0.00000  Uiso   1.00
C780   C     0.32379   0.58130   0.63656   0.00000  Uiso   1.00
C781   C     0.18002   0.51300   0.51615   0.00000  Uiso   1.00
C782   C     0.22526   0.53218   0.98955   0.00000  Uiso   1.00
C783   C     0.23342   0.54627   0.93880   0.00000  Uiso   1.00
C784   C     0.19880   0.53922   0.91299   0.00000  Uiso   1.00
C785   C     0.17310   0.49977   0.56738   0.00000  Uiso   1.00
C786   C     0.25281   0.52660   0.56650   0.00000  Uiso   1.00
Cu787  Cu    0.11978   0.49999   0.75000   0.00000  Uiso   1.00
Cu788  Cu    0.21355   0.50001   0.75000   0.00000  Uiso   1.00
H789   H     0.24396   0.37053   0.74482   0.00000  Uiso   1.00
H790   H     0.14052   0.48321   0.58842   0.00000  Uiso   1.00
H791   H     0.05149   0.47967   0.91370   0.00000  Uiso   1.00
H792   H     0.08228   0.48775   0.55759   0.00000  Uiso   1.00
H793   H     0.02617   0.47314   0.50866   0.00000  Uiso   1.00
H794   H     0.20554   0.55284   0.87498   0.00000  Uiso   1.00
H795   H     0.24398   0.62922   0.74471   0.00000  Uiso   1.00
H796   H     0.25099   0.58493   0.62933   0.00000  Uiso   1.00
H797   H     0.30044   0.59466   0.56951   0.00000  Uiso   1.00
H798   H     0.02817   0.57184   0.61324   0.00000  Uiso   1.00
H799   H     0.32418   0.61427   0.64755   0.00000  Uiso   1.00
H800   H     0.08982   0.37070   0.75373   0.00000  Uiso   1.00
H801   H     0.31205   0.56268   0.67268   0.00000  Uiso   1.00
H802   H     0.08981   0.62944   0.75375   0.00000  Uiso   1.00
H803   H     0.27498   0.55032   0.80275   0.00000  Uiso   1.00
H804   H     0.02824   0.54968   0.80373   0.00000  Uiso   1.00
H805   H     0.05900   0.45065   0.69568   0.00000  Uiso   1.00
H806   H     0.30522   0.45061   0.69583   0.00000  Uiso   1.00
H807   H     0.26675   0.56279   0.91889   0.00000  Uiso   1.00
H808   H     0.29645   0.55182   0.99352   0.00000  Uiso   1.00
N809   N     0.04931   0.49999   0.74999   0.00000  Uiso   1.00
N810   N     0.28402   0.50002   0.75000   0.00000  Uiso   1.00
O811   O     0.12708   0.56011   0.75001   0.00000  Uiso   1.00
O812   O     0.20627   0.56012   0.75001   0.00000  Uiso   1.00
O813   O     0.10775   0.49998   0.82549   0.00000  Uiso   1.00
O814   O     0.18694   0.49999   0.82549   0.00000  Uiso   1.00
O815   O     0.12706   0.43988   0.75000   0.00000  Uiso   1.00
O816   O     0.20625   0.43989   0.75000   0.00000  Uiso   1.00
O817   O     0.14640   0.50001   0.67451   0.00000  Uiso   1.00
O818   O     0.22559   0.50002   0.67451   0.00000  Uiso   1.00
O819   O     0.28865   0.53302   0.59071   0.00000  Uiso   1.00
C820   C     0.50006   0.57931   0.74981   0.00000  Uiso   1.00
C821   C     0.45725   0.50371   0.90777   0.00000  Uiso   1.00
C822   C     0.54347   0.64530   0.74679   0.00000  Uiso   1.00
C823   C     0.47364   0.50204   0.85018   0.00000  Uiso   1.00
C824   C     0.54347   0.35454   0.74684   0.00000  Uiso   1.00
C825   C     0.50018   0.37605   0.74946   0.00000  Uiso   1.00
C826   C     0.45698   0.35465   0.75175   0.00000  Uiso   1.00
C827   C     0.45697   0.64541   0.75174   0.00000  Uiso   1.00
C828   C     0.50017   0.62391   0.74942   0.00000  Uiso   1.00
C829   C     0.63348   0.52775   0.77957   0.00000  Uiso   1.00
C830   C     0.34967   0.52758   0.77983   0.00000  Uiso   1.00
C831   C     0.47708   0.50700   0.99026   0.00000  Uiso   1.00
C832   C     0.36673   0.47259   0.71985   0.00000  Uiso   1.00
C833   C     0.65041   0.47255   0.71993   0.00000  Uiso   1.00
C834   C     0.50006   0.42068   0.74981   0.00000  Uiso   1.00
C835   C     0.52633   0.50106   0.64989   0.00000  Uiso   1.00
C836   C     0.59492   0.53783   0.51429   0.00000  Uiso   1.00
C837   C     0.54126   0.50769   0.59328   0.00000  Uiso   1.00
C838   C     0.41031   0.48876   0.93453   0.00000  Uiso   1.00
C839   C     0.39602   0.48425   0.98836   0.00000  Uiso   1.00
C840   C     0.42914   0.49232   0.51600   0.00000  Uiso   1.00
C841   C     0.62165   0.57497   0.60484   0.00000  Uiso   1.00
C842   C     0.48909   0.51654   0.93644   0.00000  Uiso   1.00
C843   C     0.65712   0.58130   0.63656   0.00000  Uiso   1.00
C844   C     0.51336   0.51300   0.51615   0.00000  Uiso   1.00
C845   C     0.55859   0.53218   0.98955   0.00000  Uiso   1.00
C846   C     0.56675   0.54627   0.93880   0.00000  Uiso   1.00
C847   C     0.53213   0.53922   0.91299   0.00000  Uiso   1.00
C848   C     0.50643   0.49977   0.56738   0.00000  Uiso   1.00
C849   C     0.58615   0.52660   0.56650   0.00000  Uiso   1.00
Cu850  Cu    0.45311   0.49999   0.75000   0.00000  Uiso   1.00
Cu851  Cu    0.54689   0.50001   0.75000   0.00000  Uiso   1.00
H852   H     0.57730   0.37053   0.74482   0.00000  Uiso   1.00
H853   H     0.47385   0.48321   0.58842   0.00000  Uiso   1.00
H854   H     0.38483   0.47967   0.91370   0.00000  Uiso   1.00
H855   H     0.41561   0.48775   0.55759   0.00000  Uiso   1.00
H856   H     0.35950   0.47314   0.50866   0.00000  Uiso   1.00
H857   H     0.53888   0.55284   0.87498   0.00000  Uiso   1.00
H858   H     0.57731   0.62922   0.74471   0.00000  Uiso   1.00
H859   H     0.58432   0.58493   0.62933   0.00000  Uiso   1.00
H860   H     0.63378   0.59466   0.56951   0.00000  Uiso   1.00
H861   H     0.36151   0.57184   0.61324   0.00000  Uiso   1.00
H862   H     0.65751   0.61427   0.64755   0.00000  Uiso   1.00
H863   H     0.42316   0.37070   0.75373   0.00000  Uiso   1.00
H864   H     0.64539   0.56268   0.67268   0.00000  Uiso   1.00
H865   H     0.42314   0.62944   0.75375   0.00000  Uiso   1.00
H866   H     0.60831   0.55032   0.80275   0.00000  Uiso   1.00
H867   H     0.36157   0.54968   0.80373   0.00000  Uiso   1.00
H868   H     0.39233   0.45065   0.69568   0.00000  Uiso   1.00
H869   H     0.63855   0.45061   0.69583   0.00000  Uiso   1.00
H870   H     0.60008   0.56279   0.91889   0.00000  Uiso   1.00
H871   H     0.62978   0.55182   0.99352   0.00000  Uiso   1.00
N872   N     0.38265   0.49999   0.74999   0.00000  Uiso   1.00
N873   N     0.61735   0.50002   0.75000   0.00000  Uiso   1.00
O874   O     0.46042   0.56011   0.75001   0.00000  Uiso   1.00
O875   O     0.53961   0.56012   0.75001   0.00000  Uiso   1.00
O876   O     0.44108   0.49998   0.82549   0.00000  Uiso   1.00
O877   O     0.52027   0.49999   0.82549   0.00000  Uiso   1.00
O878   O     0.46039   0.43988   0.75000   0.00000  Uiso   1.00
O879   O     0.53958   0.43989   0.75000   0.00000  Uiso   1.00
O880   O     0.47973   0.50001   0.67451   0.00000  Uiso   1.00
O881   O     0.55892   0.50002   0.67451   0.00000  Uiso   1.00
O882   O     0.62198   0.53302   0.59071   0.00000  Uiso   1.00
C883   C     0.83339   0.57931   0.74981   0.00000  Uiso   1.00
C884   C     0.79058   0.50371   0.90777   0.00000  Uiso   1.00
C885   C     0.87681   0.64530   0.74679   0.00000  Uiso   1.00
C886   C     0.80698   0.50204   0.85018   0.00000  Uiso   1.00
C887   C     0.87680   0.35454   0.74684   0.00000  Uiso   1.00
C888   C     0.83352   0.37605   0.74946   0.00000  Uiso   1.00
C889   C     0.79031   0.35465   0.75175   0.00000  Uiso   1.00
C890   C     0.79030   0.64541   0.75174   0.00000  Uiso   1.00
C891   C     0.83351   0.62391   0.74942   0.00000  Uiso   1.00
C892   C     0.96681   0.52775   0.77957   0.00000  Uiso   1.00
C893   C     0.68300   0.52758   0.77983   0.00000  Uiso   1.00
C894   C     0.81041   0.50700   0.99026   0.00000  Uiso   1.00
C895   C     0.70007   0.47259   0.71985   0.00000  Uiso   1.00
C896   C     0.98374   0.47255   0.71993   0.00000  Uiso   1.00
C897   C     0.83339   0.42068   0.74981   0.00000  Uiso   1.00
C898   C     0.85966   0.50106   0.64989   0.00000  Uiso   1.00
C899   C     0.92825   0.53783   0.51429   0.00000  Uiso   1.00
C900   C     0.87460   0.50769   0.59328   0.00000  Uiso   1.00
C901   C     0.74364   0.48876   0.93453   0.00000  Uiso   1.00
C902   C     0.72936   0.48425   0.98836   0.00000  Uiso   1.00
C903   C     0.76247   0.49232   0.51600   0.00000  Uiso   1.00
C904   C     0.95498   0.57497   0.60484   0.00000  Uiso   1.00
C905   C     0.82242   0.51654   0.93644   0.00000  Uiso   1.00
C906   C     0.99046   0.58130   0.63656   0.00000  Uiso   1.00
C907   C     0.84669   0.51300   0.51615   0.00000  Uiso   1.00
C908   C     0.89192   0.53218   0.98955   0.00000  Uiso   1.00
C909   C     0.90008   0.54627   0.93880   0.00000  Uiso   1.00
C910   C     0.86546   0.53922   0.91299   0.00000  Uiso   1.00
C911   C     0.83977   0.49977   0.56738   0.00000  Uiso   1.00
C912   C     0.91948   0.52660   0.56650   0.00000  Uiso   1.00
Cu913  Cu    0.78645   0.49999   0.75000   0.00000  Uiso   1.00
Cu914  Cu    0.88022   0.50001   0.75000   0.00000  Uiso   1.00
H915   H     0.91063   0.37053   0.74482   0.00000  Uiso   1.00
H916   H     0.80718   0.48321   0.58842   0.00000  Uiso   1.00
H917   H     0.71816   0.47967   0.91370   0.00000  Uiso   1.00
H918   H     0.74895   0.48775   0.55759   0.00000  Uiso   1.00
H919   H     0.69284   0.47314   0.50866   0.00000  Uiso   1.00
H920   H     0.87221   0.55284   0.87498   0.00000  Uiso   1.00
H921   H     0.91064   0.62922   0.74471   0.00000  Uiso   1.00
H922   H     0.91766   0.58493   0.62933   0.00000  Uiso   1.00
H923   H     0.96711   0.59466   0.56951   0.00000  Uiso   1.00
H924   H     0.69484   0.57184   0.61324   0.00000  Uiso   1.00
H925   H     0.99085   0.61427   0.64755   0.00000  Uiso   1.00
H926   H     0.75649   0.37070   0.75373   0.00000  Uiso   1.00
H927   H     0.97872   0.56268   0.67268   0.00000  Uiso   1.00
H928   H     0.75648   0.62944   0.75375   0.00000  Uiso   1.00
H929   H     0.94164   0.55032   0.80275   0.00000  Uiso   1.00
H930   H     0.69490   0.54968   0.80373   0.00000  Uiso   1.00
H931   H     0.72567   0.45065   0.69568   0.00000  Uiso   1.00
H932   H     0.97188   0.45061   0.69583   0.00000  Uiso   1.00
H933   H     0.93342   0.56279   0.91889   0.00000  Uiso   1.00
H934   H     0.96311   0.55182   0.99352   0.00000  Uiso   1.00
N935   N     0.71598   0.49999   0.74999   0.00000  Uiso   1.00
N936   N     0.95069   0.50002   0.75000   0.00000  Uiso   1.00
O937   O     0.79375   0.56011   0.75001   0.00000  Uiso   1.00
O938   O     0.87294   0.56012   0.75001   0.00000  Uiso   1.00
O939   O     0.77441   0.49998   0.82549   0.00000  Uiso   1.00
O940   O     0.85360   0.49999   0.82549   0.00000  Uiso   1.00
O941   O     0.79373   0.43988   0.75000   0.00000  Uiso   1.00
O942   O     0.87292   0.43989   0.75000   0.00000  Uiso   1.00
O943   O     0.81306   0.50001   0.67451   0.00000  Uiso   1.00
O944   O     0.89225   0.50002   0.67451   0.00000  Uiso   1.00
O945   O     0.95532   0.53302   0.59071   0.00000  Uiso   1.00
C946   C     0.16673   0.91265   0.74981   0.00000  Uiso   1.00
C947   C     0.12391   0.83704   0.90777   0.00000  Uiso   1.00
C948   C     0.21014   0.97863   0.74679   0.00000  Uiso   1.00
C949   C     0.14031   0.83537   0.85018   0.00000  Uiso   1.00
C950   C     0.21014   0.68788   0.74684   0.00000  Uiso   1.00
C951   C     0.16685   0.70939   0.74946   0.00000  Uiso   1.00
C952   C     0.12365   0.68798   0.75175   0.00000  Uiso   1.00
C953   C     0.12364   0.97874   0.75174   0.00000  Uiso   1.00
C954   C     0.16684   0.95724   0.74942   0.00000  Uiso   1.00
C955   C     0.30015   0.86109   0.77957   0.00000  Uiso   1.00
C956   C     0.01633   0.86092   0.77983   0.00000  Uiso   1.00
C957   C     0.14375   0.84034   0.99026   0.00000  Uiso   1.00
C958   C     0.03340   0.80592   0.71985   0.00000  Uiso   1.00
C959   C     0.31707   0.80589   0.71993   0.00000  Uiso   1.00
C960   C     0.16673   0.75401   0.74981   0.00000  Uiso   1.00
C961   C     0.19300   0.83440   0.64989   0.00000  Uiso   1.00
C962   C     0.26158   0.87116   0.51429   0.00000  Uiso   1.00
C963   C     0.20793   0.84102   0.59328   0.00000  Uiso   1.00
C964   C     0.07698   0.82209   0.93453   0.00000  Uiso   1.00
C965   C     0.06269   0.81758   0.98836   0.00000  Uiso   1.00
C966   C     0.09581   0.82565   0.51600   0.00000  Uiso   1.00
C967   C     0.28831   0.90830   0.60484   0.00000  Uiso   1.00
C968   C     0.15576   0.84987   0.93644   0.00000  Uiso   1.00
C969   C     0.32379   0.91464   0.63656   0.00000  Uiso   1.00
C970   C     0.18002   0.84634   0.51615   0.00000  Uiso   1.00
C971   C     0.22526   0.86551   0.98955   0.00000  Uiso   1.00
C972   C     0.23342   0.87960   0.93880   0.00000  Uiso   1.00
C973   C     0.19880   0.87256   0.91299   0.00000  Uiso   1.00
C974   C     0.17310   0.83310   0.56738   0.00000  Uiso   1.00
C975   C     0.25281   0.85993   0.56650   0.00000  Uiso   1.00
Cu976  Cu    0.11978   0.83333   0.75000   0.00000  Uiso   1.00
Cu977  Cu    0.21355   0.83334   0.75000   0.00000  Uiso   1.00
H978   H     0.24396   0.70386   0.74482   0.00000  Uiso   1.00
H979   H     0.14052   0.81654   0.58842   0.00000  Uiso   1.00
H980   H     0.05149   0.81301   0.91370   0.00000  Uiso   1.00
H981   H     0.08228   0.82108   0.55759   0.00000  Uiso   1.00
H982   H     0.02617   0.80648   0.50866   0.00000  Uiso   1.00
H983   H     0.20554   0.88617   0.87498   0.00000  Uiso   1.00
H984   H     0.24398   0.96256   0.74471   0.00000  Uiso   1.00
H985   H     0.25099   0.91826   0.62933   0.00000  Uiso   1.00
H986   H     0.30044   0.92800   0.56951   0.00000  Uiso   1.00
H987   H     0.02817   0.90517   0.61324   0.00000  Uiso   1.00
H988   H     0.32418   0.94760   0.64755   0.00000  Uiso   1.00
H989   H     0.08982   0.70403   0.75373   0.00000  Uiso   1.00
H990   H     0.31205   0.89602   0.67268   0.00000  Uiso   1.00
H991   H     0.08981   0.96277   0.75375   0.00000  Uiso   1.00
H992   H     0.27498   0.88366   0.80275   0.00000  Uiso   1.00
H993   H     0.02824   0.88301   0.80373   0.00000  Uiso   1.00
H994   H     0.05900   0.78398   0.69568   0.00000  Uiso   1.00
H995   H     0.30522   0.78394   0.69583   0.00000  Uiso   1.00
H996   H     0.26675   0.89612   0.91889   0.00000  Uiso   1.00
H997   H     0.29645   0.88515   0.99352   0.00000  Uiso   1.00
N998   N     0.04931   0.83332   0.74999   0.00000  Uiso   1.00
N999   N     0.28402   0.83335   0.75000   0.00000  Uiso   1.00
O1000  O     0.12708   0.89345   0.75001   0.00000  Uiso   1.00
O1001  O     0.20627   0.89346   0.75001   0.00000  Uiso   1.00
O1002  O     0.10775   0.83332   0.82549   0.00000  Uiso   1.00
O1003  O     0.18694   0.83333   0.82549   0.00000  Uiso   1.00
O1004  O     0.12706   0.77321   0.75000   0.00000  Uiso   1.00
O1005  O     0.20625   0.77322   0.75000   0.00000  Uiso   1.00
O1006  O     0.14640   0.83334   0.67451   0.00000  Uiso   1.00
O1007  O     0.22559   0.83335   0.67451   0.00000  Uiso   1.00
O1008  O     0.28865   0.86635   0.59071   0.00000  Uiso   1.00
C1009  C     0.50006   0.91265   0.74981   0.00000  Uiso   1.00
C1010  C     0.45725   0.83704   0.90777   0.00000  Uiso   1.00
C1011  C     0.54347   0.97863   0.74679   0.00000  Uiso   1.00
C1012  C     0.47364   0.83537   0.85018   0.00000  Uiso   1.00
C1013  C     0.54347   0.68788   0.74684   0.00000  Uiso   1.00
C1014  C     0.50018   0.70939   0.74946   0.00000  Uiso   1.00
C1015  C     0.45698   0.68798   0.75175   0.00000  Uiso   1.00
C1016  C     0.45697   0.97874   0.75174   0.00000  Uiso   1.00
C1017  C     0.50017   0.95724   0.74942   0.00000  Uiso   1.00
C1018  C     0.63348   0.86109   0.77957   0.00000  Uiso   1.00
C1019  C     0.34967   0.86092   0.77983   0.00000  Uiso   1.00
C1020  C     0.47708   0.84034   0.99026   0.00000  Uiso   1.00
C1021  C     0.36673   0.80592   0.71985   0.00000  Uiso   1.00
C1022  C     0.65041   0.80589   0.71993   0.00000  Uiso   1.00
C1023  C     0.50006   0.75401   0.74981   0.00000  Uiso   1.00
C1024  C     0.52633   0.83440   0.64989   0.00000  Uiso   1.00
C1025  C     0.59492   0.87116   0.51429   0.00000  Uiso   1.00
C1026  C     0.54126   0.84102   0.59328   0.00000  Uiso   1.00
C1027  C     0.41031   0.82209   0.93453   0.00000  Uiso   1.00
C1028  C     0.39602   0.81758   0.98836   0.00000  Uiso   1.00
C1029  C     0.42914   0.82565   0.51600   0.00000  Uiso   1.00
C1030  C     0.62165   0.90830   0.60484   0.00000  Uiso   1.00
C1031  C     0.48909   0.84987   0.93644   0.00000  Uiso   1.00
C1032  C     0.65712   0.91464   0.63656   0.00000  Uiso   1.00
C1033  C     0.51336   0.84634   0.51615   0.00000  Uiso   1.00
C1034  C     0.55859   0.86551   0.98955   0.00000  Uiso   1.00
C1035  C     0.56675   0.87960   0.93880   0.00000  Uiso   1.00
C1036  C     0.53213   0.87256   0.91299   0.00000  Uiso   1.00
C1037  C     0.50643   0.83310   0.56738   0.00000  Uiso   1.00
C1038  C     0.58615   0.85993   0.56650   0.00000  Uiso   1.00
Cu1039 Cu    0.45311   0.83333   0.75000   0.00000  Uiso   1.00
Cu1040 Cu    0.54689   0.83334   0.75000   0.00000  Uiso   1.00
H1041  H     0.57730   0.70386   0.74482   0.00000  Uiso   1.00
H1042  H     0.47385   0.81654   0.58842   0.00000  Uiso   1.00
H1043  H     0.38483   0.81301   0.91370   0.00000  Uiso   1.00
H1044  H     0.41561   0.82108   0.55759   0.00000  Uiso   1.00
H1045  H     0.35950   0.80648   0.50866   0.00000  Uiso   1.00
H1046  H     0.53888   0.88617   0.87498   0.00000  Uiso   1.00
H1047  H     0.57731   0.96256   0.74471   0.00000  Uiso   1.00
H1048  H     0.58432   0.91826   0.62933   0.00000  Uiso   1.00
H1049  H     0.63378   0.92800   0.56951   0.00000  Uiso   1.00
H1050  H     0.36151   0.90517   0.61324   0.00000  Uiso   1.00
H1051  H     0.65751   0.94760   0.64755   0.00000  Uiso   1.00
H1052  H     0.42316   0.70403   0.75373   0.00000  Uiso   1.00
H1053  H     0.64539   0.89602   0.67268   0.00000  Uiso   1.00
H1054  H     0.42314   0.96277   0.75375   0.00000  Uiso   1.00
H1055  H     0.60831   0.88366   0.80275   0.00000  Uiso   1.00
H1056  H     0.36157   0.88301   0.80373   0.00000  Uiso   1.00
H1057  H     0.39233   0.78398   0.69568   0.00000  Uiso   1.00
H1058  H     0.63855   0.78394   0.69583   0.00000  Uiso   1.00
H1059  H     0.60008   0.89612   0.91889   0.00000  Uiso   1.00
H1060  H     0.62978   0.88515   0.99352   0.00000  Uiso   1.00
N1061  N     0.38265   0.83332   0.74999   0.00000  Uiso   1.00
N1062  N     0.61735   0.83335   0.75000   0.00000  Uiso   1.00
O1063  O     0.46042   0.89345   0.75001   0.00000  Uiso   1.00
O1064  O     0.53961   0.89346   0.75001   0.00000  Uiso   1.00
O1065  O     0.44108   0.83332   0.82549   0.00000  Uiso   1.00
O1066  O     0.52027   0.83333   0.82549   0.00000  Uiso   1.00
O1067  O     0.46039   0.77321   0.75000   0.00000  Uiso   1.00
O1068  O     0.53958   0.77322   0.75000   0.00000  Uiso   1.00
O1069  O     0.47973   0.83334   0.67451   0.00000  Uiso   1.00
O1070  O     0.55892   0.83335   0.67451   0.00000  Uiso   1.00
O1071  O     0.62198   0.86635   0.59071   0.00000  Uiso   1.00
C1072  C     0.83339   0.91265   0.74981   0.00000  Uiso   1.00
C1073  C     0.79058   0.83704   0.90777   0.00000  Uiso   1.00
C1074  C     0.87681   0.97863   0.74679   0.00000  Uiso   1.00
C1075  C     0.80698   0.83537   0.85018   0.00000  Uiso   1.00
C1076  C     0.87680   0.68788   0.74684   0.00000  Uiso   1.00
C1077  C     0.83352   0.70939   0.74946   0.00000  Uiso   1.00
C1078  C     0.79031   0.68798   0.75175   0.00000  Uiso   1.00
C1079  C     0.79030   0.97874   0.75174   0.00000  Uiso   1.00
C1080  C     0.83351   0.95724   0.74942   0.00000  Uiso   1.00
C1081  C     0.96681   0.86109   0.77957   0.00000  Uiso   1.00
C1082  C     0.68300   0.86092   0.77983   0.00000  Uiso   1.00
C1083  C     0.81041   0.84034   0.99026   0.00000  Uiso   1.00
C1084  C     0.70007   0.80592   0.71985   0.00000  Uiso   1.00
C1085  C     0.98374   0.80589   0.71993   0.00000  Uiso   1.00
C1086  C     0.83339   0.75401   0.74981   0.00000  Uiso   1.00
C1087  C     0.85966   0.83440   0.64989   0.00000  Uiso   1.00
C1088  C     0.92825   0.87116   0.51429   0.00000  Uiso   1.00
C1089  C     0.87460   0.84102   0.59328   0.00000  Uiso   1.00
C1090  C     0.74364   0.82209   0.93453   0.00000  Uiso   1.00
C1091  C     0.72936   0.81758   0.98836   0.00000  Uiso   1.00
C1092  C     0.76247   0.82565   0.51600   0.00000  Uiso   1.00
C1093  C     0.95498   0.90830   0.60484   0.00000  Uiso   1.00
C1094  C     0.82242   0.84987   0.93644   0.00000  Uiso   1.00
C1095  C     0.99046   0.91464   0.63656   0.00000  Uiso   1.00
C1096  C     0.84669   0.84634   0.51615   0.00000  Uiso   1.00
C1097  C     0.89192   0.86551   0.98955   0.00000  Uiso   1.00
C1098  C     0.90008   0.87960   0.93880   0.00000  Uiso   1.00
C1099  C     0.86546   0.87256   0.91299   0.00000  Uiso   1.00
C1100  C     0.83977   0.83310   0.56738   0.00000  Uiso   1.00
C1101  C     0.91948   0.85993   0.56650   0.00000  Uiso   1.00
Cu1102 Cu    0.78645   0.83333   0.75000   0.00000  Uiso   1.00
Cu1103 Cu    0.88022   0.83334   0.75000   0.00000  Uiso   1.00
H1104  H     0.91063   0.70386   0.74482   0.00000  Uiso   1.00
H1105  H     0.80718   0.81654   0.58842   0.00000  Uiso   1.00
H1106  H     0.71816   0.81301   0.91370   0.00000  Uiso   1.00
H1107  H     0.74895   0.82108   0.55759   0.00000  Uiso   1.00
H1108  H     0.69284   0.80648   0.50866   0.00000  Uiso   1.00
H1109  H     0.87221   0.88617   0.87498   0.00000  Uiso   1.00
H1110  H     0.91064   0.96256   0.74471   0.00000  Uiso   1.00
H1111  H     0.91766   0.91826   0.62933   0.00000  Uiso   1.00
H1112  H     0.96711   0.92800   0.56951   0.00000  Uiso   1.00
H1113  H     0.69484   0.90517   0.61324   0.00000  Uiso   1.00
H1114  H     0.99085   0.94760   0.64755   0.00000  Uiso   1.00
H1115  H     0.75649   0.70403   0.75373   0.00000  Uiso   1.00
H1116  H     0.97872   0.89602   0.67268   0.00000  Uiso   1.00
H1117  H     0.75648   0.96277   0.75375   0.00000  Uiso   1.00
H1118  H     0.94164   0.88366   0.80275   0.00000  Uiso   1.00
H1119  H     0.69490   0.88301   0.80373   0.00000  Uiso   1.00
H1120  H     0.72567   0.78398   0.69568   0.00000  Uiso   1.00
H1121  H     0.97188   0.78394   0.69583   0.00000  Uiso   1.00
H1122  H     0.93342   0.89612   0.91889   0.00000  Uiso   1.00
H1123  H     0.96311   0.88515   0.99352   0.00000  Uiso   1.00
N1124  N     0.71598   0.83332   0.74999   0.00000  Uiso   1.00
N1125  N     0.95069   0.83335   0.75000   0.00000  Uiso   1.00
O1126  O     0.79375   0.89345   0.75001   0.00000  Uiso   1.00
O1127  O     0.87294   0.89346   0.75001   0.00000  Uiso   1.00
O1128  O     0.77441   0.83332   0.82549   0.00000  Uiso   1.00
O1129  O     0.85360   0.83333   0.82549   0.00000  Uiso   1.00
O1130  O     0.79373   0.77321   0.75000   0.00000  Uiso   1.00
O1131  O     0.87292   0.77322   0.75000   0.00000  Uiso   1.00
O1132  O     0.81306   0.83334   0.67451   0.00000  Uiso   1.00
O1133  O     0.89225   0.83335   0.67451   0.00000  Uiso   1.00
O1134  O     0.95532   0.86635   0.59071   0.00000  Uiso   1.00
loop_
_geom_bond_atom_site_label_1
_geom_bond_atom_site_label_2
_geom_bond_distance
_geom_bond_site_symmetry_2
_ccdc_geom_bond_type
C1     O56     1.290   .     A
C1     O55     1.291   .     A
C1     C9      1.449   .     S
C2     C4      1.476   .     S
C2     C23     1.419   .     A
C2     C19     1.403   .     A
C3     C9      1.401   .     A
C3     H39     1.083   .     S
C3     C194    1.384   .     S
C4     O57     1.296   .     A
C4     O58     1.296   .     A
C5     C6      1.401   .     A
C5     H33     1.083   .     S
C5     C381    1.384   1_545 S
C6     C7      1.401   .     A
C6     C15     1.450   .     S
C7     H44     1.083   .     S
C7     C386    1.383   1_545 S
C8     H46     1.083   .     S
C8     C9      1.401   .     A
C8     C196    1.383   .     S
C10    N54     1.367   .     A
C10    H47     1.079   .     S
C10    C74     1.415   .     S
C11    N53     1.366   .     A
C11    H48     1.082   .     S
C11    C136    1.415   1_455 S
C12    C23     1.418   .     A
C12    C588    1.418   .     S
C12    C592    1.424   .     S
C13    H49     1.082   .     S
C13    N53     1.367   .     A
C13    C140    1.416   1_455 S
C14    H50     1.082   .     S
C14    N54     1.367   .     A
C14    C76     1.416   .     S
C15    O60     1.291   .     A
C15    O59     1.290   .     A
C16    O61     1.294   .     A
C16    C18     1.468   .     S
C16    O62     1.294   .     A
C17    C30     1.399   .     A
C17    C593    1.402   1_554 S
C17    H619    1.084   1_554 S
C18    C29     1.398   .     A
C18    C30     1.409   .     A
C19    C20     1.388   .     A
C19    H35     1.083   .     S
C20    C588    1.391   .     S
C20    H604    1.083   .     S
C21    H36     1.078   .     S
C21    C587    1.391   1_554 S
C21    C579    1.418   1_554 S
C22    H40     1.116   .     S
C22    O63     1.412   .     S
C22    C24     1.521   .     S
C22    H41     1.113   .     S
C23    C28     1.410   .     A
C24    H45     1.110   .     S
C24    H43     1.111   .     S
C24    H105    1.111   .     S
C25    C29     1.401   .     A
C25    C579    1.424   1_554 S
C25    C593    1.419   1_554 S
C26    C27     1.392   .     A
C26    C584    1.402   .     S
C26    C592    1.419   .     S
C27    H51     1.084   .     S
C27    C28     1.386   .     A
C28    H38     1.078   .     S
C29    H34     1.077   .     S
C30    O63     1.383   .     S
Cu31   O61     1.939   .     S
Cu31   O57     1.952   .     S
Cu31   N53     2.010   .     S
Cu31   O59     1.964   .     S
Cu31   O55     1.965   .     S
Cu31   Cu32    2.675   .     S
Cu32   O58     1.939   .     S
Cu32   N54     2.010   .     S
Cu32   O60     1.965   .     S
Cu32   O62     1.952   .     S
Cu32   O56     1.964   .     S
H37    C587    1.083   1_554 S
H42    C150    1.111   1_455 S
H52    C584    1.084   .     S
C64    O119    1.290   .     A
C64    O118    1.291   .     A
C64    C72     1.449   .     S
C65    C67     1.476   .     S
C65    C86     1.419   .     A
C65    C82     1.403   .     A
C66    C72     1.401   .     A
C66    H102    1.083   .     S
C66    C257    1.384   .     S
C67    O120    1.296   .     A
C67    O121    1.296   .     A
C68    C69     1.401   .     A
C68    H96     1.083   .     S
C68    C444    1.384   1_545 S
C69    C70     1.401   .     A
C69    C78     1.450   .     S
C70    H107    1.083   .     S
C70    C449    1.383   1_545 S
C71    H109    1.083   .     S
C71    C72     1.401   .     A
C71    C259    1.383   .     S
C73    N117    1.367   .     A
C73    H110    1.079   .     S
C73    C137    1.415   .     S
C74    N116    1.366   .     A
C74    H111    1.082   .     S
C75    C86     1.418   .     A
C75    C651    1.418   .     S
C75    C655    1.424   .     S
C76    H112    1.082   .     S
C76    N116    1.367   .     A
C77    H113    1.082   .     S
C77    N117    1.367   .     A
C77    C139    1.416   .     S
C78    O123    1.291   .     A
C78    O122    1.290   .     A
C79    O124    1.294   .     A
C79    C81     1.468   .     S
C79    O125    1.294   .     A
C80    C93     1.399   .     A
C80    C656    1.402   1_554 S
C80    H682    1.084   1_554 S
C81    C92     1.398   .     A
C81    C93     1.409   .     A
C82    C83     1.388   .     A
C82    H98     1.083   .     S
C83    C651    1.391   .     S
C83    H667    1.083   .     S
C84    H99     1.078   .     S
C84    C650    1.391   1_554 S
C84    C642    1.418   1_554 S
C85    H103    1.116   .     S
C85    O126    1.412   .     S
C85    C87     1.521   .     S
C85    H104    1.113   .     S
C86    C91     1.410   .     A
C87    H108    1.110   .     S
C87    H106    1.111   .     S
C87    H168    1.111   .     S
C88    C92     1.401   .     A
C88    C642    1.424   1_554 S
C88    C656    1.419   1_554 S
C89    C90     1.392   .     A
C89    C647    1.402   .     S
C89    C655    1.419   .     S
C90    H114    1.084   .     S
C90    C91     1.386   .     A
C91    H101    1.078   .     S
C92    H97     1.077   .     S
C93    O126    1.383   .     S
Cu94   O124    1.939   .     S
Cu94   O120    1.952   .     S
Cu94   N116    2.010   .     S
Cu94   O122    1.964   .     S
Cu94   O118    1.965   .     S
Cu94   Cu95    2.675   .     S
Cu95   O121    1.939   .     S
Cu95   N117    2.010   .     S
Cu95   O123    1.965   .     S
Cu95   O125    1.952   .     S
Cu95   O119    1.964   .     S
H100   C650    1.083   1_554 S
H115   C647    1.084   .     S
C127   O182    1.290   .     A
C127   O181    1.291   .     A
C127   C135    1.449   .     S
C128   C130    1.476   .     S
C128   C149    1.419   .     A
C128   C145    1.403   .     A
C129   C135    1.401   .     A
C129   H165    1.083   .     S
C129   C320    1.384   .     S
C130   O183    1.296   .     A
C130   O184    1.296   .     A
C131   C132    1.401   .     A
C131   H159    1.083   .     S
C131   C507    1.384   1_545 S
C132   C133    1.401   .     A
C132   C141    1.450   .     S
C133   H170    1.083   .     S
C133   C512    1.383   1_545 S
C134   H172    1.083   .     S
C134   C135    1.401   .     A
C134   C322    1.383   .     S
C136   N180    1.367   .     A
C136   H173    1.079   .     S
C136   C11     1.415   1_655 S
C137   N179    1.366   .     A
C137   H174    1.082   .     S
C138   C149    1.418   .     A
C138   C714    1.418   .     S
C138   C718    1.424   .     S
C139   H175    1.082   .     S
C139   N179    1.367   .     A
C140   H176    1.082   .     S
C140   N180    1.367   .     A
C140   C13     1.416   1_655 S
C141   O186    1.291   .     A
C141   O185    1.290   .     A
C142   O187    1.294   .     A
C142   C144    1.468   .     S
C142   O188    1.294   .     A
C143   C156    1.399   .     A
C143   C719    1.402   1_554 S
C143   H745    1.084   1_554 S
C144   C155    1.398   .     A
C144   C156    1.409   .     A
C145   C146    1.388   .     A
C145   H161    1.083   .     S
C146   C714    1.391   .     S
C146   H730    1.083   .     S
C147   H162    1.078   .     S
C147   C713    1.391   1_554 S
C147   C705    1.418   1_554 S
C148   H166    1.116   .     S
C148   O189    1.412   .     S
C148   C150    1.521   .     S
C148   H167    1.113   .     S
C149   C154    1.410   .     A
C150   H171    1.110   .     S
C150   H169    1.111   .     S
C150   H42     1.111   1_655 S
C151   C155    1.401   .     A
C151   C705    1.424   1_554 S
C151   C719    1.419   1_554 S
C152   C153    1.392   .     A
C152   C710    1.402   .     S
C152   C718    1.419   .     S
C153   H177    1.084   .     S
C153   C154    1.386   .     A
C154   H164    1.078   .     S
C155   H160    1.077   .     S
C156   O189    1.383   .     S
Cu157  O187    1.939   .     S
Cu157  O183    1.952   .     S
Cu157  N179    2.010   .     S
Cu157  O185    1.964   .     S
Cu157  O181    1.965   .     S
Cu157  Cu158   2.675   .     S
Cu158  O184    1.939   .     S
Cu158  N180    2.010   .     S
Cu158  O186    1.965   .     S
Cu158  O188    1.952   .     S
Cu158  O182    1.964   .     S
H163   C713    1.083   1_554 S
H178   C710    1.084   .     S
C190   O245    1.290   .     A
C190   O244    1.291   .     A
C190   C198    1.449   .     S
C191   C193    1.476   .     S
C191   C212    1.419   .     A
C191   C208    1.403   .     A
C192   C198    1.401   .     A
C192   H228    1.083   .     S
C192   C383    1.384   .     S
C193   O246    1.296   .     A
C193   O247    1.296   .     A
C194   C195    1.401   .     A
C194   H222    1.083   .     S
C195   C196    1.401   .     A
C195   C204    1.450   .     S
C196   H233    1.083   .     S
C197   H235    1.083   .     S
C197   C198    1.401   .     A
C197   C385    1.383   .     S
C199   N243    1.367   .     A
C199   H236    1.079   .     S
C199   C263    1.415   .     S
C200   N242    1.366   .     A
C200   H237    1.082   .     S
C200   C325    1.415   1_455 S
C201   C212    1.418   .     A
C201   C777    1.418   .     S
C201   C781    1.424   .     S
C202   H238    1.082   .     S
C202   N242    1.367   .     A
C202   C329    1.416   1_455 S
C203   H239    1.082   .     S
C203   N243    1.367   .     A
C203   C265    1.416   .     S
C204   O249    1.291   .     A
C204   O248    1.290   .     A
C205   O250    1.294   .     A
C205   C207    1.468   .     S
C205   O251    1.294   .     A
C206   C219    1.399   .     A
C206   C782    1.402   1_554 S
C206   H808    1.084   1_554 S
C207   C218    1.398   .     A
C207   C219    1.409   .     A
C208   C209    1.388   .     A
C208   H224    1.083   .     S
C209   C777    1.391   .     S
C209   H793    1.083   .     S
C210   H225    1.078   .     S
C210   C776    1.391   1_554 S
C210   C768    1.418   1_554 S
C211   H229    1.116   .     S
C211   O252    1.412   .     S
C211   C213    1.521   .     S
C211   H230    1.113   .     S
C212   C217    1.410   .     A
C213   H234    1.110   .     S
C213   H232    1.111   .     S
C213   H294    1.111   .     S
C214   C218    1.401   .     A
C214   C768    1.424   1_554 S
C214   C782    1.419   1_554 S
C215   C216    1.392   .     A
C215   C773    1.402   .     S
C215   C781    1.419   .     S
C216   H240    1.084   .     S
C216   C217    1.386   .     A
C217   H227    1.078   .     S
C218   H223    1.077   .     S
C219   O252    1.383   .     S
Cu220  O250    1.939   .     S
Cu220  O246    1.952   .     S
Cu220  N242    2.010   .     S
Cu220  O248    1.964   .     S
Cu220  O244    1.965   .     S
Cu220  Cu221   2.675   .     S
Cu221  O247    1.939   .     S
Cu221  N243    2.010   .     S
Cu221  O249    1.965   .     S
Cu221  O251    1.952   .     S
Cu221  O245    1.964   .     S
H226   C776    1.083   1_554 S
H231   C339    1.111   1_455 S
H241   C773    1.084   .     S
C253   O308    1.290   .     A
C253   O307    1.291   .     A
C253   C261    1.449   .     S
C254   C256    1.476   .     S
C254   C275    1.419   .     A
C254   C271    1.403   .     A
C255   C261    1.401   .     A
C255   H291    1.083   .     S
C255   C446    1.384   .     S
C256   O309    1.296   .     A
C256   O310    1.296   .     A
C257   C258    1.401   .     A
C257   H285    1.083   .     S
C258   C259    1.401   .     A
C258   C267    1.450   .     S
C259   H296    1.083   .     S
C260   H298    1.083   .     S
C260   C261    1.401   .     A
C260   C448    1.383   .     S
C262   N306    1.367   .     A
C262   H299    1.079   .     S
C262   C326    1.415   .     S
C263   N305    1.366   .     A
C263   H300    1.082   .     S
C264   C275    1.418   .     A
C264   C840    1.418   .     S
C264   C844    1.424   .     S
C265   H301    1.082   .     S
C265   N305    1.367   .     A
C266   H302    1.082   .     S
C266   N306    1.367   .     A
C266   C328    1.416   .     S
C267   O312    1.291   .     A
C267   O311    1.290   .     A
C268   O313    1.294   .     A
C268   C270    1.468   .     S
C268   O314    1.294   .     A
C269   C282    1.399   .     A
C269   C845    1.402   1_554 S
C269   H871    1.084   1_554 S
C270   C281    1.398   .     A
C270   C282    1.409   .     A
C271   C272    1.388   .     A
C271   H287    1.083   .     S
C272   C840    1.391   .     S
C272   H856    1.083   .     S
C273   H288    1.078   .     S
C273   C839    1.391   1_554 S
C273   C831    1.418   1_554 S
C274   H292    1.116   .     S
C274   O315    1.412   .     S
C274   C276    1.521   .     S
C274   H293    1.113   .     S
C275   C280    1.410   .     A
C276   H297    1.110   .     S
C276   H295    1.111   .     S
C276   H357    1.111   .     S
C277   C281    1.401   .     A
C277   C831    1.424   1_554 S
C277   C845    1.419   1_554 S
C278   C279    1.392   .     A
C278   C836    1.402   .     S
C278   C844    1.419   .     S
C279   H303    1.084   .     S
C279   C280    1.386   .     A
C280   H290    1.078   .     S
C281   H286    1.077   .     S
C282   O315    1.383   .     S
Cu283  O313    1.939   .     S
Cu283  O309    1.952   .     S
Cu283  N305    2.010   .     S
Cu283  O311    1.964   .     S
Cu283  O307    1.965   .     S
Cu283  Cu284   2.675   .     S
Cu284  O310    1.939   .     S
Cu284  N306    2.010   .     S
Cu284  O312    1.965   .     S
Cu284  O314    1.952   .     S
Cu284  O308    1.964   .     S
H289   C839    1.083   1_554 S
H304   C836    1.084   .     S
C316   O371    1.290   .     A
C316   O370    1.291   .     A
C316   C324    1.449   .     S
C317   C319    1.476   .     S
C317   C338    1.419   .     A
C317   C334    1.403   .     A
C318   C324    1.401   .     A
C318   H354    1.083   .     S
C318   C509    1.384   .     S
C319   O372    1.296   .     A
C319   O373    1.296   .     A
C320   C321    1.401   .     A
C320   H348    1.083   .     S
C321   C322    1.401   .     A
C321   C330    1.450   .     S
C322   H359    1.083   .     S
C323   H361    1.083   .     S
C323   C324    1.401   .     A
C323   C511    1.383   .     S
C325   N369    1.367   .     A
C325   H362    1.079   .     S
C325   C200    1.415   1_655 S
C326   N368    1.366   .     A
C326   H363    1.082   .     S
C327   C338    1.418   .     A
C327   C903    1.418   .     S
C327   C907    1.424   .     S
C328   H364    1.082   .     S
C328   N368    1.367   .     A
C329   H365    1.082   .     S
C329   N369    1.367   .     A
C329   C202    1.416   1_655 S
C330   O375    1.291   .     A
C330   O374    1.290   .     A
C331   O376    1.294   .     A
C331   C333    1.468   .     S
C331   O377    1.294   .     A
C332   C345    1.399   .     A
C332   C908    1.402   1_554 S
C332   H934    1.084   1_554 S
C333   C344    1.398   .     A
C333   C345    1.409   .     A
C334   C335    1.388   .     A
C334   H350    1.083   .     S
C335   C903    1.391   .     S
C335   H919    1.083   .     S
C336   H351    1.078   .     S
C336   C902    1.391   1_554 S
C336   C894    1.418   1_554 S
C337   H355    1.116   .     S
C337   O378    1.412   .     S
C337   C339    1.521   .     S
C337   H356    1.113   .     S
C338   C343    1.410   .     A
C339   H360    1.110   .     S
C339   H358    1.111   .     S
C339   H231    1.111   1_655 S
C340   C344    1.401   .     A
C340   C894    1.424   1_554 S
C340   C908    1.419   1_554 S
C341   C342    1.392   .     A
C341   C899    1.402   .     S
C341   C907    1.419   .     S
C342   H366    1.084   .     S
C342   C343    1.386   .     A
C343   H353    1.078   .     S
C344   H349    1.077   .     S
C345   O378    1.383   .     S
Cu346  O376    1.939   .     S
Cu346  O372    1.952   .     S
Cu346  N368    2.010   .     S
Cu346  O374    1.964   .     S
Cu346  O370    1.965   .     S
Cu346  Cu347   2.675   .     S
Cu347  O373    1.939   .     S
Cu347  N369    2.010   .     S
Cu347  O375    1.965   .     S
Cu347  O377    1.952   .     S
Cu347  O371    1.964   .     S
H352   C902    1.083   1_554 S
H367   C899    1.084   .     S
C379   O434    1.290   .     A
C379   O433    1.291   .     A
C379   C387    1.449   .     S
C380   C382    1.476   .     S
C380   C401    1.419   .     A
C380   C397    1.403   .     A
C381   C387    1.401   .     A
C381   H417    1.083   .     S
C381   C5      1.384   1_565 S
C382   O435    1.296   .     A
C382   O436    1.296   .     A
C383   C384    1.401   .     A
C383   H411    1.083   .     S
C384   C385    1.401   .     A
C384   C393    1.450   .     S
C385   H422    1.083   .     S
C386   H424    1.083   .     S
C386   C387    1.401   .     A
C386   C7      1.383   1_565 S
C388   N432    1.367   .     A
C388   H425    1.079   .     S
C388   C452    1.415   .     S
C389   N431    1.366   .     A
C389   H426    1.082   .     S
C389   C514    1.415   1_455 S
C390   C401    1.418   .     A
C390   C966    1.418   .     S
C390   C970    1.424   .     S
C391   H427    1.082   .     S
C391   N431    1.367   .     A
C391   C518    1.416   1_455 S
C392   H428    1.082   .     S
C392   N432    1.367   .     A
C392   C454    1.416   .     S
C393   O438    1.291   .     A
C393   O437    1.290   .     A
C394   O439    1.294   .     A
C394   C396    1.468   .     S
C394   O440    1.294   .     A
C395   C408    1.399   .     A
C395   C971    1.402   1_554 S
C395   H997    1.084   1_554 S
C396   C407    1.398   .     A
C396   C408    1.409   .     A
C397   C398    1.388   .     A
C397   H413    1.083   .     S
C398   C966    1.391   .     S
C398   H982    1.083   .     S
C399   H414    1.078   .     S
C399   C965    1.391   1_554 S
C399   C957    1.418   1_554 S
C400   H418    1.116   .     S
C400   O441    1.412   .     S
C400   C402    1.521   .     S
C400   H419    1.113   .     S
C401   C406    1.410   .     A
C402   H423    1.110   .     S
C402   H421    1.111   .     S
C402   H483    1.111   .     S
C403   C407    1.401   .     A
C403   C957    1.424   1_554 S
C403   C971    1.419   1_554 S
C404   C405    1.392   .     A
C404   C962    1.402   .     S
C404   C970    1.419   .     S
C405   H429    1.084   .     S
C405   C406    1.386   .     A
C406   H416    1.078   .     S
C407   H412    1.077   .     S
C408   O441    1.383   .     S
Cu409  O439    1.939   .     S
Cu409  O435    1.952   .     S
Cu409  N431    2.010   .     S
Cu409  O437    1.964   .     S
Cu409  O433    1.965   .     S
Cu409  Cu410   2.675   .     S
Cu410  O436    1.939   .     S
Cu410  N432    2.010   .     S
Cu410  O438    1.965   .     S
Cu410  O440    1.952   .     S
Cu410  O434    1.964   .     S
H415   C965    1.083   1_554 S
H420   C528    1.111   1_455 S
H430   C962    1.084   .     S
C442   O497    1.290   .     A
C442   O496    1.291   .     A
C442   C450    1.449   .     S
C443   C445    1.476   .     S
C443   C464    1.419   .     A
C443   C460    1.403   .     A
C444   C450    1.401   .     A
C444   H480    1.083   .     S
C444   C68     1.384   1_565 S
C445   O498    1.296   .     A
C445   O499    1.296   .     A
C446   C447    1.401   .     A
C446   H474    1.083   .     S
C447   C448    1.401   .     A
C447   C456    1.450   .     S
C448   H485    1.083   .     S
C449   H487    1.083   .     S
C449   C450    1.401   .     A
C449   C70     1.383   1_565 S
C451   N495    1.367   .     A
C451   H488    1.079   .     S
C451   C515    1.415   .     S
C452   N494    1.366   .     A
C452   H489    1.082   .     S
C453   C464    1.418   .     A
C453   C1029   1.418   .     S
C453   C1033   1.424   .     S
C454   H490    1.082   .     S
C454   N494    1.367   .     A
C455   H491    1.082   .     S
C455   N495    1.367   .     A
C455   C517    1.416   .     S
C456   O501    1.291   .     A
C456   O500    1.290   .     A
C457   O502    1.294   .     A
C457   C459    1.468   .     S
C457   O503    1.294   .     A
C458   C471    1.399   .     A
C458   C1034   1.402   1_554 S
C458   H1060   1.084   1_554 S
C459   C470    1.398   .     A
C459   C471    1.409   .     A
C460   C461    1.388   .     A
C460   H476    1.083   .     S
C461   C1029   1.391   .     S
C461   H1045   1.083   .     S
C462   H477    1.078   .     S
C462   C1028   1.391   1_554 S
C462   C1020   1.418   1_554 S
C463   H481    1.116   .     S
C463   O504    1.412   .     S
C463   C465    1.521   .     S
C463   H482    1.113   .     S
C464   C469    1.410   .     A
C465   H486    1.110   .     S
C465   H484    1.111   .     S
C465   H546    1.111   .     S
C466   C470    1.401   .     A
C466   C1020   1.424   1_554 S
C466   C1034   1.419   1_554 S
C467   C468    1.392   .     A
C467   C1025   1.402   .     S
C467   C1033   1.419   .     S
C468   H492    1.084   .     S
C468   C469    1.386   .     A
C469   H479    1.078   .     S
C470   H475    1.077   .     S
C471   O504    1.383   .     S
Cu472  O502    1.939   .     S
Cu472  O498    1.952   .     S
Cu472  N494    2.010   .     S
Cu472  O500    1.964   .     S
Cu472  O496    1.965   .     S
Cu472  Cu473   2.675   .     S
Cu473  O499    1.939   .     S
Cu473  N495    2.010   .     S
Cu473  O501    1.965   .     S
Cu473  O503    1.952   .     S
Cu473  O497    1.964   .     S
H478   C1028   1.083   1_554 S
H493   C1025   1.084   .     S
C505   O560    1.290   .     A
C505   O559    1.291   .     A
C505   C513    1.449   .     S
C506   C508    1.476   .     S
C506   C527    1.419   .     A
C506   C523    1.403   .     A
C507   C513    1.401   .     A
C507   H543    1.083   .     S
C507   C131    1.384   1_565 S
C508   O561    1.296   .     A
C508   O562    1.296   .     A
C509   C510    1.401   .     A
C509   H537    1.083   .     S
C510   C511    1.401   .     A
C510   C519    1.450   .     S
C511   H548    1.083   .     S
C512   H550    1.083   .     S
C512   C513    1.401   .     A
C512   C133    1.383   1_565 S
C514   N558    1.367   .     A
C514   H551    1.079   .     S
C514   C389    1.415   1_655 S
C515   N557    1.366   .     A
C515   H552    1.082   .     S
C516   C527    1.418   .     A
C516   C1092   1.418   .     S
C516   C1096   1.424   .     S
C517   H553    1.082   .     S
C517   N557    1.367   .     A
C518   H554    1.082   .     S
C518   N558    1.367   .     A
C518   C391    1.416   1_655 S
C519   O564    1.291   .     A
C519   O563    1.290   .     A
C520   O565    1.294   .     A
C520   C522    1.468   .     S
C520   O566    1.294   .     A
C521   C534    1.399   .     A
C521   C1097   1.402   1_554 S
C521   H1123   1.084   1_554 S
C522   C533    1.398   .     A
C522   C534    1.409   .     A
C523   C524    1.388   .     A
C523   H539    1.083   .     S
C524   C1092   1.391   .     S
C524   H1108   1.083   .     S
C525   H540    1.078   .     S
C525   C1091   1.391   1_554 S
C525   C1083   1.418   1_554 S
C526   H544    1.116   .     S
C526   O567    1.412   .     S
C526   C528    1.521   .     S
C526   H545    1.113   .     S
C527   C532    1.410   .     A
C528   H549    1.110   .     S
C528   H547    1.111   .     S
C528   H420    1.111   1_655 S
C529   C533    1.401   .     A
C529   C1083   1.424   1_554 S
C529   C1097   1.419   1_554 S
C530   C531    1.392   .     A
C530   C1088   1.402   .     S
C530   C1096   1.419   .     S
C531   H555    1.084   .     S
C531   C532    1.386   .     A
C532   H542    1.078   .     S
C533   H538    1.077   .     S
C534   O567    1.383   .     S
Cu535  O565    1.939   .     S
Cu535  O561    1.952   .     S
Cu535  N557    2.010   .     S
Cu535  O563    1.964   .     S
Cu535  O559    1.965   .     S
Cu535  Cu536   2.675   .     S
Cu536  O562    1.939   .     S
Cu536  N558    2.010   .     S
Cu536  O564    1.965   .     S
Cu536  O566    1.952   .     S
Cu536  O560    1.964   .     S
H541   C1091   1.083   1_554 S
H556   C1088   1.084   .     S
C568   O623    1.290   .     A
C568   O622    1.291   .     A
C568   C576    1.449   .     S
C569   C571    1.476   .     S
C569   C590    1.419   .     A
C569   C586    1.403   .     A
C570   C576    1.401   .     A
C570   H606    1.083   .     S
C570   C761    1.384   .     S
C571   O624    1.296   .     A
C571   O625    1.296   .     A
C572   C573    1.401   .     A
C572   H600    1.083   .     S
C572   C948    1.384   1_545 S
C573   C574    1.401   .     A
C573   C582    1.450   .     S
C574   H611    1.083   .     S
C574   C953    1.383   1_545 S
C575   H613    1.083   .     S
C575   C576    1.401   .     A
C575   C763    1.383   .     S
C577   N621    1.367   .     A
C577   H614    1.079   .     S
C577   C641    1.415   .     S
C578   N620    1.366   .     A
C578   H615    1.082   .     S
C578   C703    1.415   1_455 S
C579   C590    1.418   .     A
C579   C21     1.418   1_556 S
C579   C25     1.424   1_556 S
C580   H616    1.082   .     S
C580   N620    1.367   .     A
C580   C707    1.416   1_455 S
C581   H617    1.082   .     S
C581   N621    1.367   .     A
C581   C643    1.416   .     S
C582   O627    1.291   .     A
C582   O626    1.290   .     A
C583   O628    1.294   .     A
C583   C585    1.468   .     S
C583   O629    1.294   .     A
C584   C597    1.399   .     A
C585   C596    1.398   .     A
C585   C597    1.409   .     A
C586   C587    1.388   .     A
C586   H602    1.083   .     S
C587   C21     1.391   1_556 S
C587   H37     1.083   1_556 S
C588   H603    1.078   .     S
C589   H607    1.116   .     S
C589   O630    1.412   .     S
C589   C591    1.521   .     S
C589   H608    1.113   .     S
C590   C595    1.410   .     A
C591   H612    1.110   .     S
C591   H610    1.111   .     S
C591   H672    1.111   .     S
C592   C596    1.401   .     A
C593   C594    1.392   .     A
C593   C17     1.402   1_556 S
C593   C25     1.419   1_556 S
C594   H618    1.084   .     S
C594   C595    1.386   .     A
C595   H605    1.078   .     S
C596   H601    1.077   .     S
C597   O630    1.383   .     S
Cu598  O628    1.939   .     S
Cu598  O624    1.952   .     S
Cu598  N620    2.010   .     S
Cu598  O626    1.964   .     S
Cu598  O622    1.965   .     S
Cu598  Cu599   2.675   .     S
Cu599  O625    1.939   .     S
Cu599  N621    2.010   .     S
Cu599  O627    1.965   .     S
Cu599  O629    1.952   .     S
Cu599  O623    1.964   .     S
H609   C717    1.111   1_455 S
H619   C17     1.084   1_556 S
C631   O686    1.290   .     A
C631   O685    1.291   .     A
C631   C639    1.449   .     S
C632   C634    1.476   .     S
C632   C653    1.419   .     A
C632   C649    1.403   .     A
C633   C639    1.401   .     A
C633   H669    1.083   .     S
C633   C824    1.384   .     S
C634   O687    1.296   .     A
C634   O688    1.296   .     A
C635   C636    1.401   .     A
C635   H663    1.083   .     S
C635   C1011   1.384   1_545 S
C636   C637    1.401   .     A
C636   C645    1.450   .     S
C637   H674    1.083   .     S
C637   C1016   1.383   1_545 S
C638   H676    1.083   .     S
C638   C639    1.401   .     A
C638   C826    1.383   .     S
C640   N684    1.367   .     A
C640   H677    1.079   .     S
C640   C704    1.415   .     S
C641   N683    1.366   .     A
C641   H678    1.082   .     S
C642   C653    1.418   .     A
C642   C84     1.418   1_556 S
C642   C88     1.424   1_556 S
C643   H679    1.082   .     S
C643   N683    1.367   .     A
C644   H680    1.082   .     S
C644   N684    1.367   .     A
C644   C706    1.416   .     S
C645   O690    1.291   .     A
C645   O689    1.290   .     A
C646   O691    1.294   .     A
C646   C648    1.468   .     S
C646   O692    1.294   .     A
C647   C660    1.399   .     A
C648   C659    1.398   .     A
C648   C660    1.409   .     A
C649   C650    1.388   .     A
C649   H665    1.083   .     S
C650   C84     1.391   1_556 S
C650   H100    1.083   1_556 S
C651   H666    1.078   .     S
C652   H670    1.116   .     S
C652   O693    1.412   .     S
C652   C654    1.521   .     S
C652   H671    1.113   .     S
C653   C658    1.410   .     A
C654   H675    1.110   .     S
C654   H673    1.111   .     S
C654   H735    1.111   .     S
C655   C659    1.401   .     A
C656   C657    1.392   .     A
C656   C80     1.402   1_556 S
C656   C88     1.419   1_556 S
C657   H681    1.084   .     S
C657   C658    1.386   .     A
C658   H668    1.078   .     S
C659   H664    1.077   .     S
C660   O693    1.383   .     S
Cu661  O691    1.939   .     S
Cu661  O687    1.952   .     S
Cu661  N683    2.010   .     S
Cu661  O689    1.964   .     S
Cu661  O685    1.965   .     S
Cu661  Cu662   2.675   .     S
Cu662  O688    1.939   .     S
Cu662  N684    2.010   .     S
Cu662  O690    1.965   .     S
Cu662  O692    1.952   .     S
Cu662  O686    1.964   .     S
H682   C80     1.084   1_556 S
C694   O749    1.290   .     A
C694   O748    1.291   .     A
C694   C702    1.449   .     S
C695   C697    1.476   .     S
C695   C716    1.419   .     A
C695   C712    1.403   .     A
C696   C702    1.401   .     A
C696   H732    1.083   .     S
C696   C887    1.384   .     S
C697   O750    1.296   .     A
C697   O751    1.296   .     A
C698   C699    1.401   .     A
C698   H726    1.083   .     S
C698   C1074   1.384   1_545 S
C699   C700    1.401   .     A
C699   C708    1.450   .     S
C700   H737    1.083   .     S
C700   C1079   1.383   1_545 S
C701   H739    1.083   .     S
C701   C702    1.401   .     A
C701   C889    1.383   .     S
C703   N747    1.367   .     A
C703   H740    1.079   .     S
C703   C578    1.415   1_655 S
C704   N746    1.366   .     A
C704   H741    1.082   .     S
C705   C716    1.418   .     A
C705   C147    1.418   1_556 S
C705   C151    1.424   1_556 S
C706   H742    1.082   .     S
C706   N746    1.367   .     A
C707   H743    1.082   .     S
C707   N747    1.367   .     A
C707   C580    1.416   1_655 S
C708   O753    1.291   .     A
C708   O752    1.290   .     A
C709   O754    1.294   .     A
C709   C711    1.468   .     S
C709   O755    1.294   .     A
C710   C723    1.399   .     A
C711   C722    1.398   .     A
C711   C723    1.409   .     A
C712   C713    1.388   .     A
C712   H728    1.083   .     S
C713   C147    1.391   1_556 S
C713   H163    1.083   1_556 S
C714   H729    1.078   .     S
C715   H733    1.116   .     S
C715   O756    1.412   .     S
C715   C717    1.521   .     S
C715   H734    1.113   .     S
C716   C721    1.410   .     A
C717   H738    1.110   .     S
C717   H736    1.111   .     S
C717   H609    1.111   1_655 S
C718   C722    1.401   .     A
C719   C720    1.392   .     A
C719   C143    1.402   1_556 S
C719   C151    1.419   1_556 S
C720   H744    1.084   .     S
C720   C721    1.386   .     A
C721   H731    1.078   .     S
C722   H727    1.077   .     S
C723   O756    1.383   .     S
Cu724  O754    1.939   .     S
Cu724  O750    1.952   .     S
Cu724  N746    2.010   .     S
Cu724  O752    1.964   .     S
Cu724  O748    1.965   .     S
Cu724  Cu725   2.675   .     S
Cu725  O751    1.939   .     S
Cu725  N747    2.010   .     S
Cu725  O753    1.965   .     S
Cu725  O755    1.952   .     S
Cu725  O749    1.964   .     S
H745   C143    1.084   1_556 S
C757   O812    1.290   .     A
C757   O811    1.291   .     A
C757   C765    1.449   .     S
C758   C760    1.476   .     S
C758   C779    1.419   .     A
C758   C775    1.403   .     A
C759   C765    1.401   .     A
C759   H795    1.083   .     S
C759   C950    1.384   .     S
C760   O813    1.296   .     A
C760   O814    1.296   .     A
C761   C762    1.401   .     A
C761   H789    1.083   .     S
C762   C763    1.401   .     A
C762   C771    1.450   .     S
C763   H800    1.083   .     S
C764   H802    1.083   .     S
C764   C765    1.401   .     A
C764   C952    1.383   .     S
C766   N810    1.367   .     A
C766   H803    1.079   .     S
C766   C830    1.415   .     S
C767   N809    1.366   .     A
C767   H804    1.082   .     S
C767   C892    1.415   1_455 S
C768   C779    1.418   .     A
C768   C210    1.418   1_556 S
C768   C214    1.424   1_556 S
C769   H805    1.082   .     S
C769   N809    1.367   .     A
C769   C896    1.416   1_455 S
C770   H806    1.082   .     S
C770   N810    1.367   .     A
C770   C832    1.416   .     S
C771   O816    1.291   .     A
C771   O815    1.290   .     A
C772   O817    1.294   .     A
C772   C774    1.468   .     S
C772   O818    1.294   .     A
C773   C786    1.399   .     A
C774   C785    1.398   .     A
C774   C786    1.409   .     A
C775   C776    1.388   .     A
C775   H791    1.083   .     S
C776   C210    1.391   1_556 S
C776   H226    1.083   1_556 S
C777   H792    1.078   .     S
C778   H796    1.116   .     S
C778   O819    1.412   .     S
C778   C780    1.521   .     S
C778   H797    1.113   .     S
C779   C784    1.410   .     A
C780   H801    1.110   .     S
C780   H799    1.111   .     S
C780   H861    1.111   .     S
C781   C785    1.401   .     A
C782   C783    1.392   .     A
C782   C206    1.402   1_556 S
C782   C214    1.419   1_556 S
C783   H807    1.084   .     S
C783   C784    1.386   .     A
C784   H794    1.078   .     S
C785   H790    1.077   .     S
C786   O819    1.383   .     S
Cu787  O817    1.939   .     S
Cu787  O813    1.952   .     S
Cu787  N809    2.010   .     S
Cu787  O815    1.964   .     S
Cu787  O811    1.965   .     S
Cu787  Cu788   2.675   .     S
Cu788  O814    1.939   .     S
Cu788  N810    2.010   .     S
Cu788  O816    1.965   .     S
Cu788  O818    1.952   .     S
Cu788  O812    1.964   .     S
H798   C906    1.111   1_455 S
H808   C206    1.084   1_556 S
C820   O875    1.290   .     A
C820   O874    1.291   .     A
C820   C828    1.449   .     S
C821   C823    1.476   .     S
C821   C842    1.419   .     A
C821   C838    1.403   .     A
C822   C828    1.401   .     A
C822   H858    1.083   .     S
C822   C1013   1.384   .     S
C823   O876    1.296   .     A
C823   O877    1.296   .     A
C824   C825    1.401   .     A
C824   H852    1.083   .     S
C825   C826    1.401   .     A
C825   C834    1.450   .     S
C826   H863    1.083   .     S
C827   H865    1.083   .     S
C827   C828    1.401   .     A
C827   C1015   1.383   .     S
C829   N873    1.367   .     A
C829   H866    1.079   .     S
C829   C893    1.415   .     S
C830   N872    1.366   .     A
C830   H867    1.082   .     S
C831   C842    1.418   .     A
C831   C273    1.418   1_556 S
C831   C277    1.424   1_556 S
C832   H868    1.082   .     S
C832   N872    1.367   .     A
C833   H869    1.082   .     S
C833   N873    1.367   .     A
C833   C895    1.416   .     S
C834   O879    1.291   .     A
C834   O878    1.290   .     A
C835   O880    1.294   .     A
C835   C837    1.468   .     S
C835   O881    1.294   .     A
C836   C849    1.399   .     A
C837   C848    1.398   .     A
C837   C849    1.409   .     A
C838   C839    1.388   .     A
C838   H854    1.083   .     S
C839   C273    1.391   1_556 S
C839   H289    1.083   1_556 S
C840   H855    1.078   .     S
C841   H859    1.116   .     S
C841   O882    1.412   .     S
C841   C843    1.521   .     S
C841   H860    1.113   .     S
C842   C847    1.410   .     A
C843   H864    1.110   .     S
C843   H862    1.111   .     S
C843   H924    1.111   .     S
C844   C848    1.401   .     A
C845   C846    1.392   .     A
C845   C269    1.402   1_556 S
C845   C277    1.419   1_556 S
C846   H870    1.084   .     S
C846   C847    1.386   .     A
C847   H857    1.078   .     S
C848   H853    1.077   .     S
C849   O882    1.383   .     S
Cu850  O880    1.939   .     S
Cu850  O876    1.952   .     S
Cu850  N872    2.010   .     S
Cu850  O878    1.964   .     S
Cu850  O874    1.965   .     S
Cu850  Cu851   2.675   .     S
Cu851  O877    1.939   .     S
Cu851  N873    2.010   .     S
Cu851  O879    1.965   .     S
Cu851  O881    1.952   .     S
Cu851  O875    1.964   .     S
H871   C269    1.084   1_556 S
C883   O938    1.290   .     A
C883   O937    1.291   .     A
C883   C891    1.449   .     S
C884   C886    1.476   .     S
C884   C905    1.419   .     A
C884   C901    1.403   .     A
C885   C891    1.401   .     A
C885   H921    1.083   .     S
C885   C1076   1.384   .     S
C886   O939    1.296   .     A
C886   O940    1.296   .     A
C887   C888    1.401   .     A
C887   H915    1.083   .     S
C888   C889    1.401   .     A
C888   C897    1.450   .     S
C889   H926    1.083   .     S
C890   H928    1.083   .     S
C890   C891    1.401   .     A
C890   C1078   1.383   .     S
C892   N936    1.367   .     A
C892   H929    1.079   .     S
C892   C767    1.415   1_655 S
C893   N935    1.366   .     A
C893   H930    1.082   .     S
C894   C905    1.418   .     A
C894   C336    1.418   1_556 S
C894   C340    1.424   1_556 S
C895   H931    1.082   .     S
C895   N935    1.367   .     A
C896   H932    1.082   .     S
C896   N936    1.367   .     A
C896   C769    1.416   1_655 S
C897   O942    1.291   .     A
C897   O941    1.290   .     A
C898   O943    1.294   .     A
C898   C900    1.468   .     S
C898   O944    1.294   .     A
C899   C912    1.399   .     A
C900   C911    1.398   .     A
C900   C912    1.409   .     A
C901   C902    1.388   .     A
C901   H917    1.083   .     S
C902   C336    1.391   1_556 S
C902   H352    1.083   1_556 S
C903   H918    1.078   .     S
C904   H922    1.116   .     S
C904   O945    1.412   .     S
C904   C906    1.521   .     S
C904   H923    1.113   .     S
C905   C910    1.410   .     A
C906   H927    1.110   .     S
C906   H925    1.111   .     S
C906   H798    1.111   1_655 S
C907   C911    1.401   .     A
C908   C909    1.392   .     A
C908   C332    1.402   1_556 S
C908   C340    1.419   1_556 S
C909   H933    1.084   .     S
C909   C910    1.386   .     A
C910   H920    1.078   .     S
C911   H916    1.077   .     S
C912   O945    1.383   .     S
Cu913  O943    1.939   .     S
Cu913  O939    1.952   .     S
Cu913  N935    2.010   .     S
Cu913  O941    1.964   .     S
Cu913  O937    1.965   .     S
Cu913  Cu914   2.675   .     S
Cu914  O940    1.939   .     S
Cu914  N936    2.010   .     S
Cu914  O942    1.965   .     S
Cu914  O944    1.952   .     S
Cu914  O938    1.964   .     S
H934   C332    1.084   1_556 S
C946   O1001   1.290   .     A
C946   O1000   1.291   .     A
C946   C954    1.449   .     S
C947   C949    1.476   .     S
C947   C968    1.419   .     A
C947   C964    1.403   .     A
C948   C954    1.401   .     A
C948   H984    1.083   .     S
C948   C572    1.384   1_565 S
C949   O1002   1.296   .     A
C949   O1003   1.296   .     A
C950   C951    1.401   .     A
C950   H978    1.083   .     S
C951   C952    1.401   .     A
C951   C960    1.450   .     S
C952   H989    1.083   .     S
C953   H991    1.083   .     S
C953   C954    1.401   .     A
C953   C574    1.383   1_565 S
C955   N999    1.367   .     A
C955   H992    1.079   .     S
C955   C1019   1.415   .     S
C956   N998    1.366   .     A
C956   H993    1.082   .     S
C956   C1081   1.415   1_455 S
C957   C968    1.418   .     A
C957   C399    1.418   1_556 S
C957   C403    1.424   1_556 S
C958   H994    1.082   .     S
C958   N998    1.367   .     A
C958   C1085   1.416   1_455 S
C959   H995    1.082   .     S
C959   N999    1.367   .     A
C959   C1021   1.416   .     S
C960   O1005   1.291   .     A
C960   O1004   1.290   .     A
C961   O1006   1.294   .     A
C961   C963    1.468   .     S
C961   O1007   1.294   .     A
C962   C975    1.399   .     A
C963   C974    1.398   .     A
C963   C975    1.409   .     A
C964   C965    1.388   .     A
C964   H980    1.083   .     S
C965   C399    1.391   1_556 S
C965   H415    1.083   1_556 S
C966   H981    1.078   .     S
C967   H985    1.116   .     S
C967   O1008   1.412   .     S
C967   C969    1.521   .     S
C967   H986    1.113   .     S
C968   C973    1.410   .     A
C969   H990    1.110   .     S
C969   H988    1.111   .     S
C969   H1050   1.111   .     S
C970   C974    1.401   .     A
C971   C972    1.392   .     A
C971   C395    1.402   1_556 S
C971   C403    1.419   1_556 S
C972   H996    1.084   .     S
C972   C973    1.386   .     A
C973   H983    1.078   .     S
C974   H979    1.077   .     S
C975   O1008   1.383   .     S
Cu976  O1006   1.939   .     S
Cu976  O1002   1.952   .     S
Cu976  N998    2.010   .     S
Cu976  O1004   1.964   .     S
Cu976  O1000   1.965   .     S
Cu976  Cu977   2.675   .     S
Cu977  O1003   1.939   .     S
Cu977  N999    2.010   .     S
Cu977  O1005   1.965   .     S
Cu977  O1007   1.952   .     S
Cu977  O1001   1.964   .     S
H987   C1095   1.111   1_455 S
H997   C395    1.084   1_556 S
C1009  O1064   1.290   .     A
C1009  O1063   1.291   .     A
C1009  C1017   1.449   .     S
C1010  C1012   1.476   .     S
C1010  C1031   1.419   .     A
C1010  C1027   1.403   .     A
C1011  C1017   1.401   .     A
C1011  H1047   1.083   .     S
C1011  C635    1.384   1_565 S
C1012  O1065   1.296   .     A
C1012  O1066   1.296   .     A
C1013  C1014   1.401   .     A
C1013  H1041   1.083   .     S
C1014  C1015   1.401   .     A
C1014  C1023   1.450   .     S
C1015  H1052   1.083   .     S
C1016  H1054   1.083   .     S
C1016  C1017   1.401   .     A
C1016  C637    1.383   1_565 S
C1018  N1062   1.367   .     A
C1018  H1055   1.079   .     S
C1018  C1082   1.415   .     S
C1019  N1061   1.366   .     A
C1019  H1056   1.082   .     S
C1020  C1031   1.418   .     A
C1020  C462    1.418   1_556 S
C1020  C466    1.424   1_556 S
C1021  H1057   1.082   .     S
C1021  N1061   1.367   .     A
C1022  H1058   1.082   .     S
C1022  N1062   1.367   .     A
C1022  C1084   1.416   .     S
C1023  O1068   1.291   .     A
C1023  O1067   1.290   .     A
C1024  O1069   1.294   .     A
C1024  C1026   1.468   .     S
C1024  O1070   1.294   .     A
C1025  C1038   1.399   .     A
C1026  C1037   1.398   .     A
C1026  C1038   1.409   .     A
C1027  C1028   1.388   .     A
C1027  H1043   1.083   .     S
C1028  C462    1.391   1_556 S
C1028  H478    1.083   1_556 S
C1029  H1044   1.078   .     S
C1030  H1048   1.116   .     S
C1030  O1071   1.412   .     S
C1030  C1032   1.521   .     S
C1030  H1049   1.113   .     S
C1031  C1036   1.410   .     A
C1032  H1053   1.110   .     S
C1032  H1051   1.111   .     S
C1032  H1113   1.111   .     S
C1033  C1037   1.401   .     A
C1034  C1035   1.392   .     A
C1034  C458    1.402   1_556 S
C1034  C466    1.419   1_556 S
C1035  H1059   1.084   .     S
C1035  C1036   1.386   .     A
C1036  H1046   1.078   .     S
C1037  H1042   1.077   .     S
C1038  O1071   1.383   .     S
Cu1039 O1069   1.939   .     S
Cu1039 O1065   1.952   .     S
Cu1039 N1061   2.010   .     S
Cu1039 O1067   1.964   .     S
Cu1039 O1063   1.965   .     S
Cu1039 Cu1040  2.675   .     S
Cu1040 O1066   1.939   .     S
Cu1040 N1062   2.010   .     S
Cu1040 O1068   1.965   .     S
Cu1040 O1070   1.952   .     S
Cu1040 O1064   1.964   .     S
H1060  C458    1.084   1_556 S
C1072  O1127   1.290   .     A
C1072  O1126   1.291   .     A
C1072  C1080   1.449   .     S
C1073  C1075   1.476   .     S
C1073  C1094   1.419   .     A
C1073  C1090   1.403   .     A
C1074  C1080   1.401   .     A
C1074  H1110   1.083   .     S
C1074  C698    1.384   1_565 S
C1075  O1128   1.296   .     A
C1075  O1129   1.296   .     A
C1076  C1077   1.401   .     A
C1076  H1104   1.083   .     S
C1077  C1078   1.401   .     A
C1077  C1086   1.450   .     S
C1078  H1115   1.083   .     S
C1079  H1117   1.083   .     S
C1079  C1080   1.401   .     A
C1079  C700    1.383   1_565 S
C1081  N1125   1.367   .     A
C1081  H1118   1.079   .     S
C1081  C956    1.415   1_655 S
C1082  N1124   1.366   .     A
C1082  H1119   1.082   .     S
C1083  C1094   1.418   .     A
C1083  C525    1.418   1_556 S
C1083  C529    1.424   1_556 S
C1084  H1120   1.082   .     S
C1084  N1124   1.367   .     A
C1085  H1121   1.082   .     S
C1085  N1125   1.367   .     A
C1085  C958    1.416   1_655 S
C1086  O1131   1.291   .     A
C1086  O1130   1.290   .     A
C1087  O1132   1.294   .     A
C1087  C1089   1.468   .     S
C1087  O1133   1.294   .     A
C1088  C1101   1.399   .     A
C1089  C1100   1.398   .     A
C1089  C1101   1.409   .     A
C1090  C1091   1.388   .     A
C1090  H1106   1.083   .     S
C1091  C525    1.391   1_556 S
C1091  H541    1.083   1_556 S
C1092  H1107   1.078   .     S
C1093  H1111   1.116   .     S
C1093  O1134   1.412   .     S
C1093  C1095   1.521   .     S
C1093  H1112   1.113   .     S
C1094  C1099   1.410   .     A
C1095  H1116   1.110   .     S
C1095  H1114   1.111   .     S
C1095  H987    1.111   1_655 S
C1096  C1100   1.401   .     A
C1097  C1098   1.392   .     A
C1097  C521    1.402   1_556 S
C1097  C529    1.419   1_556 S
C1098  H1122   1.084   .     S
C1098  C1099   1.386   .     A
C1099  H1109   1.078   .     S
C1100  H1105   1.077   .     S
C1101  O1134   1.383   .     S
Cu1102 O1132   1.939   .     S
Cu1102 O1128   1.952   .     S
Cu1102 N1124   2.010   .     S
Cu1102 O1130   1.964   .     S
Cu1102 O1126   1.965   .     S
Cu1102 Cu1103  2.675   .     S
Cu1103 O1129   1.939   .     S
Cu1103 N1125   2.010   .     S
Cu1103 O1131   1.965   .     S
Cu1103 O1133   1.952   .     S
Cu1103 O1127   1.964   .     S
H1123  C521    1.084   1_556 S
