data_str_m2_o1_o16_pcu_sym.172
_audit_creation_date              2020-01-03
_audit_creation_method            'Materials Studio'
_symmetry_space_group_name_H-M    'P1'
_symmetry_Int_Tables_number       1
_symmetry_cell_setting            triclinic
loop_
_symmetry_equiv_pos_as_xyz
  x,y,z
_cell_length_a                    28.5682
_cell_length_b                    32.4951
_cell_length_c                    26.9116
_cell_angle_alpha                 89.6586
_cell_angle_beta                  73.1539
_cell_angle_gamma                 89.8817
loop_
_atom_site_label
_atom_site_type_symbol
_atom_site_fract_x
_atom_site_fract_y
_atom_site_fract_z
_atom_site_U_iso_or_equiv
_atom_site_adp_type
_atom_site_occupancy
O1     O     0.12708   0.22678   0.25000   0.00000  Uiso   1.00
O2     O     0.20627   0.22679   0.25000   0.00000  Uiso   1.00
C3     C     0.16664   0.24597   0.25002   0.00000  Uiso   1.00
O4     O     0.10775   0.16665   0.32549   0.00000  Uiso   1.00
O5     O     0.18694   0.16666   0.32549   0.00000  Uiso   1.00
C6     C     0.14114   0.16123   0.34937   0.00000  Uiso   1.00
Cu7    Cu    0.11978   0.16666   0.25000   0.00000  Uiso   1.00
Cu8    Cu    0.21355   0.16667   0.25000   0.00000  Uiso   1.00
O9     O     0.12706   0.10654   0.24999   0.00000  Uiso   1.00
O10    O     0.20625   0.10655   0.24999   0.00000  Uiso   1.00
O11    O     0.14640   0.16667   0.17451   0.00000  Uiso   1.00
O12    O     0.22559   0.16668   0.17451   0.00000  Uiso   1.00
C13    C     0.16673   0.08736   0.24981   0.00000  Uiso   1.00
C14    C     0.19256   0.16740   0.15005   0.00000  Uiso   1.00
C15    C     0.26781   0.17160   0.00983   0.00000  Uiso   1.00
H16    H     0.28330   0.18123   0.08212   0.00000  Uiso   1.00
H17    H     0.28598   0.14708   0.41270   0.00000  Uiso   1.00
H18    H     0.30514   0.17737   0.48710   0.00000  Uiso   1.00
C19    C     0.20684   0.16737   0.09323   0.00000  Uiso   1.00
C20    C     0.07756   0.14550   0.43230   0.00000  Uiso   1.00
C21    C     0.06302   0.14017   0.48587   0.00000  Uiso   1.00
C22    C     0.09671   0.14404   0.01381   0.00000  Uiso   1.00
C23    C     0.14708   0.14908   0.48795   0.00000  Uiso   1.00
C24    C     0.16261   0.14604   0.43306   0.00000  Uiso   1.00
C25    C     0.18280   0.15650   0.01434   0.00000  Uiso   1.00
C26    C     0.23263   0.16076   0.48532   0.00000  Uiso   1.00
C27    C     0.24741   0.15048   0.43300   0.00000  Uiso   1.00
C28    C     0.21290   0.13884   0.40867   0.00000  Uiso   1.00
C29    C     0.17080   0.16014   0.06842   0.00000  Uiso   1.00
C30    C     0.25524   0.17425   0.06368   0.00000  Uiso   1.00
C31    C     0.12725   0.15011   0.40526   0.00000  Uiso   1.00
H32    H     0.13370   0.15656   0.09231   0.00000  Uiso   1.00
H33    H     0.04985   0.14588   0.41206   0.00000  Uiso   1.00
H34    H     0.08206   0.14215   0.05540   0.00000  Uiso   1.00
H35    H     0.02516   0.13435   0.00644   0.00000  Uiso   1.00
C36    C     0.21002   0.31198   0.24651   0.00000  Uiso   1.00
H37    H     0.24392   0.29591   0.24385   0.00000  Uiso   1.00
C38    C     0.21010   0.02122   0.24630   0.00000  Uiso   1.00
H39    H     0.24405   0.03717   0.24339   0.00000  Uiso   1.00
C40    C     0.16676   0.04274   0.24972   0.00000  Uiso   1.00
C41    C     0.12339   0.02136   0.25309   0.00000  Uiso   1.00
H42    H     0.08949   0.03743   0.25579   0.00000  Uiso   1.00
C43    C     0.12334   0.31212   0.25317   0.00000  Uiso   1.00
H44    H     0.08942   0.29615   0.25592   0.00000  Uiso   1.00
C45    C     0.16665   0.29059   0.24993   0.00000  Uiso   1.00
C46    C     0.29932   0.19094   0.28362   0.00000  Uiso   1.00
H47    H     0.27326   0.21037   0.31059   0.00000  Uiso   1.00
C48    C     0.01557   0.19086   0.28368   0.00000  Uiso   1.00
H49    H     0.02685   0.21025   0.31066   0.00000  Uiso   1.00
N50    N     0.04931   0.16666   0.24998   0.00000  Uiso   1.00
C51    C     0.03401   0.14240   0.21637   0.00000  Uiso   1.00
C52    C     0.31774   0.14240   0.21639   0.00000  Uiso   1.00
H53    H     0.30641   0.12292   0.18953   0.00000  Uiso   1.00
N54    N     0.28402   0.16669   0.24999   0.00000  Uiso   1.00
H55    H     0.06005   0.12291   0.18946   0.00000  Uiso   1.00
I56    I     0.23723   0.09143   0.35310   0.00000  Uiso   1.00
O57    O     0.46042   0.22678   0.25000   0.00000  Uiso   1.00
O58    O     0.53961   0.22679   0.25000   0.00000  Uiso   1.00
C59    C     0.49998   0.24597   0.25002   0.00000  Uiso   1.00
O60    O     0.44108   0.16665   0.32549   0.00000  Uiso   1.00
O61    O     0.52027   0.16666   0.32549   0.00000  Uiso   1.00
C62    C     0.47447   0.16123   0.34937   0.00000  Uiso   1.00
Cu63   Cu    0.45311   0.16666   0.25000   0.00000  Uiso   1.00
Cu64   Cu    0.54689   0.16667   0.25000   0.00000  Uiso   1.00
O65    O     0.46039   0.10654   0.24999   0.00000  Uiso   1.00
O66    O     0.53958   0.10655   0.24999   0.00000  Uiso   1.00
O67    O     0.47973   0.16667   0.17451   0.00000  Uiso   1.00
O68    O     0.55892   0.16668   0.17451   0.00000  Uiso   1.00
C69    C     0.50006   0.08736   0.24981   0.00000  Uiso   1.00
C70    C     0.52590   0.16740   0.15005   0.00000  Uiso   1.00
C71    C     0.60115   0.17160   0.00983   0.00000  Uiso   1.00
H72    H     0.61664   0.18123   0.08212   0.00000  Uiso   1.00
H73    H     0.61932   0.14708   0.41270   0.00000  Uiso   1.00
H74    H     0.63847   0.17737   0.48710   0.00000  Uiso   1.00
C75    C     0.54017   0.16737   0.09323   0.00000  Uiso   1.00
C76    C     0.41089   0.14550   0.43230   0.00000  Uiso   1.00
C77    C     0.39636   0.14017   0.48587   0.00000  Uiso   1.00
C78    C     0.43005   0.14404   0.01381   0.00000  Uiso   1.00
C79    C     0.48041   0.14908   0.48795   0.00000  Uiso   1.00
C80    C     0.49595   0.14604   0.43306   0.00000  Uiso   1.00
C81    C     0.51614   0.15650   0.01434   0.00000  Uiso   1.00
C82    C     0.56597   0.16076   0.48532   0.00000  Uiso   1.00
C83    C     0.58075   0.15048   0.43300   0.00000  Uiso   1.00
C84    C     0.54624   0.13884   0.40867   0.00000  Uiso   1.00
C85    C     0.50414   0.16014   0.06842   0.00000  Uiso   1.00
C86    C     0.58858   0.17425   0.06368   0.00000  Uiso   1.00
C87    C     0.46058   0.15011   0.40526   0.00000  Uiso   1.00
H88    H     0.46703   0.15656   0.09231   0.00000  Uiso   1.00
H89    H     0.38318   0.14588   0.41206   0.00000  Uiso   1.00
H90    H     0.41539   0.14215   0.05540   0.00000  Uiso   1.00
H91    H     0.35849   0.13435   0.00644   0.00000  Uiso   1.00
C92    C     0.54336   0.31198   0.24651   0.00000  Uiso   1.00
H93    H     0.57725   0.29591   0.24385   0.00000  Uiso   1.00
C94    C     0.54343   0.02122   0.24630   0.00000  Uiso   1.00
H95    H     0.57738   0.03717   0.24339   0.00000  Uiso   1.00
C96    C     0.50009   0.04274   0.24972   0.00000  Uiso   1.00
C97    C     0.45672   0.02136   0.25309   0.00000  Uiso   1.00
H98    H     0.42282   0.03743   0.25579   0.00000  Uiso   1.00
C99    C     0.45667   0.31212   0.25317   0.00000  Uiso   1.00
H100   H     0.42276   0.29615   0.25592   0.00000  Uiso   1.00
C101   C     0.49998   0.29059   0.24993   0.00000  Uiso   1.00
C102   C     0.63266   0.19094   0.28362   0.00000  Uiso   1.00
H103   H     0.60660   0.21037   0.31059   0.00000  Uiso   1.00
C104   C     0.34890   0.19086   0.28368   0.00000  Uiso   1.00
H105   H     0.36018   0.21025   0.31066   0.00000  Uiso   1.00
N106   N     0.38265   0.16666   0.24998   0.00000  Uiso   1.00
C107   C     0.36734   0.14240   0.21637   0.00000  Uiso   1.00
C108   C     0.65107   0.14240   0.21639   0.00000  Uiso   1.00
H109   H     0.63974   0.12292   0.18953   0.00000  Uiso   1.00
N110   N     0.61735   0.16669   0.24999   0.00000  Uiso   1.00
H111   H     0.39338   0.12291   0.18946   0.00000  Uiso   1.00
I112   I     0.57056   0.09143   0.35310   0.00000  Uiso   1.00
O113   O     0.79375   0.22678   0.25000   0.00000  Uiso   1.00
O114   O     0.87294   0.22679   0.25000   0.00000  Uiso   1.00
C115   C     0.83331   0.24597   0.25002   0.00000  Uiso   1.00
O116   O     0.77441   0.16665   0.32549   0.00000  Uiso   1.00
O117   O     0.85360   0.16666   0.32549   0.00000  Uiso   1.00
C118   C     0.80781   0.16123   0.34937   0.00000  Uiso   1.00
Cu119  Cu    0.78645   0.16666   0.25000   0.00000  Uiso   1.00
Cu120  Cu    0.88022   0.16667   0.25000   0.00000  Uiso   1.00
O121   O     0.79373   0.10654   0.24999   0.00000  Uiso   1.00
O122   O     0.87292   0.10655   0.24999   0.00000  Uiso   1.00
O123   O     0.81306   0.16667   0.17451   0.00000  Uiso   1.00
O124   O     0.89225   0.16668   0.17451   0.00000  Uiso   1.00
C125   C     0.83340   0.08736   0.24981   0.00000  Uiso   1.00
C126   C     0.85923   0.16740   0.15005   0.00000  Uiso   1.00
C127   C     0.93448   0.17160   0.00983   0.00000  Uiso   1.00
H128   H     0.94997   0.18123   0.08212   0.00000  Uiso   1.00
H129   H     0.95265   0.14708   0.41270   0.00000  Uiso   1.00
H130   H     0.97181   0.17737   0.48710   0.00000  Uiso   1.00
C131   C     0.87350   0.16737   0.09323   0.00000  Uiso   1.00
C132   C     0.74422   0.14550   0.43230   0.00000  Uiso   1.00
C133   C     0.72969   0.14017   0.48587   0.00000  Uiso   1.00
C134   C     0.76338   0.14404   0.01381   0.00000  Uiso   1.00
C135   C     0.81375   0.14908   0.48795   0.00000  Uiso   1.00
C136   C     0.82928   0.14604   0.43306   0.00000  Uiso   1.00
C137   C     0.84947   0.15650   0.01434   0.00000  Uiso   1.00
C138   C     0.89930   0.16076   0.48532   0.00000  Uiso   1.00
C139   C     0.91408   0.15048   0.43300   0.00000  Uiso   1.00
C140   C     0.87957   0.13884   0.40867   0.00000  Uiso   1.00
C141   C     0.83747   0.16014   0.06842   0.00000  Uiso   1.00
C142   C     0.92191   0.17425   0.06368   0.00000  Uiso   1.00
C143   C     0.79392   0.15011   0.40526   0.00000  Uiso   1.00
H144   H     0.80037   0.15656   0.09231   0.00000  Uiso   1.00
H145   H     0.71652   0.14588   0.41206   0.00000  Uiso   1.00
H146   H     0.74873   0.14215   0.05540   0.00000  Uiso   1.00
H147   H     0.69182   0.13435   0.00644   0.00000  Uiso   1.00
C148   C     0.87669   0.31198   0.24651   0.00000  Uiso   1.00
H149   H     0.91059   0.29591   0.24385   0.00000  Uiso   1.00
C150   C     0.87676   0.02122   0.24630   0.00000  Uiso   1.00
H151   H     0.91071   0.03717   0.24339   0.00000  Uiso   1.00
C152   C     0.83342   0.04274   0.24972   0.00000  Uiso   1.00
C153   C     0.79006   0.02136   0.25309   0.00000  Uiso   1.00
H154   H     0.75615   0.03743   0.25579   0.00000  Uiso   1.00
C155   C     0.79001   0.31212   0.25317   0.00000  Uiso   1.00
H156   H     0.75609   0.29615   0.25592   0.00000  Uiso   1.00
C157   C     0.83332   0.29059   0.24993   0.00000  Uiso   1.00
C158   C     0.96599   0.19094   0.28362   0.00000  Uiso   1.00
H159   H     0.93993   0.21037   0.31059   0.00000  Uiso   1.00
C160   C     0.68223   0.19086   0.28368   0.00000  Uiso   1.00
H161   H     0.69352   0.21025   0.31066   0.00000  Uiso   1.00
N162   N     0.71598   0.16666   0.24998   0.00000  Uiso   1.00
C163   C     0.70067   0.14240   0.21637   0.00000  Uiso   1.00
C164   C     0.98440   0.14240   0.21639   0.00000  Uiso   1.00
H165   H     0.97308   0.12292   0.18953   0.00000  Uiso   1.00
N166   N     0.95069   0.16669   0.24999   0.00000  Uiso   1.00
H167   H     0.72671   0.12291   0.18946   0.00000  Uiso   1.00
I168   I     0.90389   0.09143   0.35310   0.00000  Uiso   1.00
O169   O     0.12708   0.56011   0.25000   0.00000  Uiso   1.00
O170   O     0.20627   0.56012   0.25000   0.00000  Uiso   1.00
C171   C     0.16664   0.57930   0.25002   0.00000  Uiso   1.00
O172   O     0.10775   0.49998   0.32549   0.00000  Uiso   1.00
O173   O     0.18694   0.49999   0.32549   0.00000  Uiso   1.00
C174   C     0.14114   0.49456   0.34937   0.00000  Uiso   1.00
Cu175  Cu    0.11978   0.49999   0.25000   0.00000  Uiso   1.00
Cu176  Cu    0.21355   0.50001   0.25000   0.00000  Uiso   1.00
O177   O     0.12706   0.43988   0.24999   0.00000  Uiso   1.00
O178   O     0.20625   0.43989   0.24999   0.00000  Uiso   1.00
O179   O     0.14640   0.50001   0.17451   0.00000  Uiso   1.00
O180   O     0.22559   0.50002   0.17451   0.00000  Uiso   1.00
C181   C     0.16673   0.42069   0.24981   0.00000  Uiso   1.00
C182   C     0.19256   0.50073   0.15005   0.00000  Uiso   1.00
C183   C     0.26781   0.50494   0.00983   0.00000  Uiso   1.00
H184   H     0.28330   0.51456   0.08212   0.00000  Uiso   1.00
H185   H     0.28598   0.48041   0.41270   0.00000  Uiso   1.00
H186   H     0.30514   0.51071   0.48710   0.00000  Uiso   1.00
C187   C     0.20684   0.50070   0.09323   0.00000  Uiso   1.00
C188   C     0.07756   0.47883   0.43230   0.00000  Uiso   1.00
C189   C     0.06302   0.47350   0.48587   0.00000  Uiso   1.00
C190   C     0.09671   0.47737   0.01381   0.00000  Uiso   1.00
C191   C     0.14708   0.48241   0.48795   0.00000  Uiso   1.00
C192   C     0.16261   0.47937   0.43306   0.00000  Uiso   1.00
C193   C     0.18280   0.48983   0.01434   0.00000  Uiso   1.00
C194   C     0.23263   0.49409   0.48532   0.00000  Uiso   1.00
C195   C     0.24741   0.48382   0.43300   0.00000  Uiso   1.00
C196   C     0.21290   0.47217   0.40867   0.00000  Uiso   1.00
C197   C     0.17080   0.49347   0.06842   0.00000  Uiso   1.00
C198   C     0.25524   0.50758   0.06368   0.00000  Uiso   1.00
C199   C     0.12725   0.48344   0.40526   0.00000  Uiso   1.00
H200   H     0.13370   0.48990   0.09231   0.00000  Uiso   1.00
H201   H     0.04985   0.47921   0.41206   0.00000  Uiso   1.00
H202   H     0.08206   0.47548   0.05540   0.00000  Uiso   1.00
H203   H     0.02516   0.46769   0.00644   0.00000  Uiso   1.00
C204   C     0.21002   0.64531   0.24651   0.00000  Uiso   1.00
H205   H     0.24392   0.62925   0.24385   0.00000  Uiso   1.00
C206   C     0.21010   0.35455   0.24630   0.00000  Uiso   1.00
H207   H     0.24405   0.37050   0.24339   0.00000  Uiso   1.00
C208   C     0.16676   0.37608   0.24972   0.00000  Uiso   1.00
C209   C     0.12339   0.35469   0.25309   0.00000  Uiso   1.00
H210   H     0.08949   0.37076   0.25579   0.00000  Uiso   1.00
C211   C     0.12334   0.64545   0.25317   0.00000  Uiso   1.00
H212   H     0.08942   0.62949   0.25592   0.00000  Uiso   1.00
C213   C     0.16665   0.62392   0.24993   0.00000  Uiso   1.00
C214   C     0.29932   0.52427   0.28362   0.00000  Uiso   1.00
H215   H     0.27326   0.54370   0.31059   0.00000  Uiso   1.00
C216   C     0.01557   0.52419   0.28368   0.00000  Uiso   1.00
H217   H     0.02685   0.54358   0.31066   0.00000  Uiso   1.00
N218   N     0.04931   0.49999   0.24998   0.00000  Uiso   1.00
C219   C     0.03401   0.47573   0.21637   0.00000  Uiso   1.00
C220   C     0.31774   0.47574   0.21639   0.00000  Uiso   1.00
H221   H     0.30641   0.45625   0.18953   0.00000  Uiso   1.00
N222   N     0.28402   0.50002   0.24999   0.00000  Uiso   1.00
H223   H     0.06005   0.45624   0.18946   0.00000  Uiso   1.00
I224   I     0.23723   0.42476   0.35310   0.00000  Uiso   1.00
O225   O     0.46042   0.56011   0.25000   0.00000  Uiso   1.00
O226   O     0.53961   0.56012   0.25000   0.00000  Uiso   1.00
C227   C     0.49998   0.57930   0.25002   0.00000  Uiso   1.00
O228   O     0.44108   0.49998   0.32549   0.00000  Uiso   1.00
O229   O     0.52027   0.49999   0.32549   0.00000  Uiso   1.00
C230   C     0.47447   0.49456   0.34937   0.00000  Uiso   1.00
Cu231  Cu    0.45311   0.49999   0.25000   0.00000  Uiso   1.00
Cu232  Cu    0.54689   0.50001   0.25000   0.00000  Uiso   1.00
O233   O     0.46039   0.43988   0.24999   0.00000  Uiso   1.00
O234   O     0.53958   0.43989   0.24999   0.00000  Uiso   1.00
O235   O     0.47973   0.50001   0.17451   0.00000  Uiso   1.00
O236   O     0.55892   0.50002   0.17451   0.00000  Uiso   1.00
C237   C     0.50006   0.42069   0.24981   0.00000  Uiso   1.00
C238   C     0.52590   0.50073   0.15005   0.00000  Uiso   1.00
C239   C     0.60115   0.50494   0.00983   0.00000  Uiso   1.00
H240   H     0.61664   0.51456   0.08212   0.00000  Uiso   1.00
H241   H     0.61932   0.48041   0.41270   0.00000  Uiso   1.00
H242   H     0.63847   0.51071   0.48710   0.00000  Uiso   1.00
C243   C     0.54017   0.50070   0.09323   0.00000  Uiso   1.00
C244   C     0.41089   0.47883   0.43230   0.00000  Uiso   1.00
C245   C     0.39636   0.47350   0.48587   0.00000  Uiso   1.00
C246   C     0.43005   0.47737   0.01381   0.00000  Uiso   1.00
C247   C     0.48041   0.48241   0.48795   0.00000  Uiso   1.00
C248   C     0.49595   0.47937   0.43306   0.00000  Uiso   1.00
C249   C     0.51614   0.48983   0.01434   0.00000  Uiso   1.00
C250   C     0.56597   0.49409   0.48532   0.00000  Uiso   1.00
C251   C     0.58075   0.48382   0.43300   0.00000  Uiso   1.00
C252   C     0.54624   0.47217   0.40867   0.00000  Uiso   1.00
C253   C     0.50414   0.49347   0.06842   0.00000  Uiso   1.00
C254   C     0.58858   0.50758   0.06368   0.00000  Uiso   1.00
C255   C     0.46058   0.48344   0.40526   0.00000  Uiso   1.00
H256   H     0.46703   0.48990   0.09231   0.00000  Uiso   1.00
H257   H     0.38318   0.47921   0.41206   0.00000  Uiso   1.00
H258   H     0.41539   0.47548   0.05540   0.00000  Uiso   1.00
H259   H     0.35849   0.46769   0.00644   0.00000  Uiso   1.00
C260   C     0.54336   0.64531   0.24651   0.00000  Uiso   1.00
H261   H     0.57725   0.62925   0.24385   0.00000  Uiso   1.00
C262   C     0.54343   0.35455   0.24630   0.00000  Uiso   1.00
H263   H     0.57738   0.37050   0.24339   0.00000  Uiso   1.00
C264   C     0.50009   0.37608   0.24972   0.00000  Uiso   1.00
C265   C     0.45672   0.35469   0.25309   0.00000  Uiso   1.00
H266   H     0.42282   0.37076   0.25579   0.00000  Uiso   1.00
C267   C     0.45667   0.64545   0.25317   0.00000  Uiso   1.00
H268   H     0.42276   0.62949   0.25592   0.00000  Uiso   1.00
C269   C     0.49998   0.62392   0.24993   0.00000  Uiso   1.00
C270   C     0.63266   0.52427   0.28362   0.00000  Uiso   1.00
H271   H     0.60660   0.54370   0.31059   0.00000  Uiso   1.00
C272   C     0.34890   0.52419   0.28368   0.00000  Uiso   1.00
H273   H     0.36018   0.54358   0.31066   0.00000  Uiso   1.00
N274   N     0.38265   0.49999   0.24998   0.00000  Uiso   1.00
C275   C     0.36734   0.47573   0.21637   0.00000  Uiso   1.00
C276   C     0.65107   0.47574   0.21639   0.00000  Uiso   1.00
H277   H     0.63974   0.45625   0.18953   0.00000  Uiso   1.00
N278   N     0.61735   0.50002   0.24999   0.00000  Uiso   1.00
H279   H     0.39338   0.45624   0.18946   0.00000  Uiso   1.00
I280   I     0.57056   0.42476   0.35310   0.00000  Uiso   1.00
O281   O     0.79375   0.56011   0.25000   0.00000  Uiso   1.00
O282   O     0.87294   0.56012   0.25000   0.00000  Uiso   1.00
C283   C     0.83331   0.57930   0.25002   0.00000  Uiso   1.00
O284   O     0.77441   0.49998   0.32549   0.00000  Uiso   1.00
O285   O     0.85360   0.49999   0.32549   0.00000  Uiso   1.00
C286   C     0.80781   0.49456   0.34937   0.00000  Uiso   1.00
Cu287  Cu    0.78645   0.49999   0.25000   0.00000  Uiso   1.00
Cu288  Cu    0.88022   0.50001   0.25000   0.00000  Uiso   1.00
O289   O     0.79373   0.43988   0.24999   0.00000  Uiso   1.00
O290   O     0.87292   0.43989   0.24999   0.00000  Uiso   1.00
O291   O     0.81306   0.50001   0.17451   0.00000  Uiso   1.00
O292   O     0.89225   0.50002   0.17451   0.00000  Uiso   1.00
C293   C     0.83340   0.42069   0.24981   0.00000  Uiso   1.00
C294   C     0.85923   0.50073   0.15005   0.00000  Uiso   1.00
C295   C     0.93448   0.50494   0.00983   0.00000  Uiso   1.00
H296   H     0.94997   0.51456   0.08212   0.00000  Uiso   1.00
H297   H     0.95265   0.48041   0.41270   0.00000  Uiso   1.00
H298   H     0.97181   0.51071   0.48710   0.00000  Uiso   1.00
C299   C     0.87350   0.50070   0.09323   0.00000  Uiso   1.00
C300   C     0.74422   0.47883   0.43230   0.00000  Uiso   1.00
C301   C     0.72969   0.47350   0.48587   0.00000  Uiso   1.00
C302   C     0.76338   0.47737   0.01381   0.00000  Uiso   1.00
C303   C     0.81375   0.48241   0.48795   0.00000  Uiso   1.00
C304   C     0.82928   0.47937   0.43306   0.00000  Uiso   1.00
C305   C     0.84947   0.48983   0.01434   0.00000  Uiso   1.00
C306   C     0.89930   0.49409   0.48532   0.00000  Uiso   1.00
C307   C     0.91408   0.48382   0.43300   0.00000  Uiso   1.00
C308   C     0.87957   0.47217   0.40867   0.00000  Uiso   1.00
C309   C     0.83747   0.49347   0.06842   0.00000  Uiso   1.00
C310   C     0.92191   0.50758   0.06368   0.00000  Uiso   1.00
C311   C     0.79392   0.48344   0.40526   0.00000  Uiso   1.00
H312   H     0.80037   0.48990   0.09231   0.00000  Uiso   1.00
H313   H     0.71652   0.47921   0.41206   0.00000  Uiso   1.00
H314   H     0.74873   0.47548   0.05540   0.00000  Uiso   1.00
H315   H     0.69182   0.46769   0.00644   0.00000  Uiso   1.00
C316   C     0.87669   0.64531   0.24651   0.00000  Uiso   1.00
H317   H     0.91059   0.62925   0.24385   0.00000  Uiso   1.00
C318   C     0.87676   0.35455   0.24630   0.00000  Uiso   1.00
H319   H     0.91071   0.37050   0.24339   0.00000  Uiso   1.00
C320   C     0.83342   0.37608   0.24972   0.00000  Uiso   1.00
C321   C     0.79006   0.35469   0.25309   0.00000  Uiso   1.00
H322   H     0.75615   0.37076   0.25579   0.00000  Uiso   1.00
C323   C     0.79001   0.64545   0.25317   0.00000  Uiso   1.00
H324   H     0.75609   0.62949   0.25592   0.00000  Uiso   1.00
C325   C     0.83332   0.62392   0.24993   0.00000  Uiso   1.00
C326   C     0.96599   0.52427   0.28362   0.00000  Uiso   1.00
H327   H     0.93993   0.54370   0.31059   0.00000  Uiso   1.00
C328   C     0.68223   0.52419   0.28368   0.00000  Uiso   1.00
H329   H     0.69352   0.54358   0.31066   0.00000  Uiso   1.00
N330   N     0.71598   0.49999   0.24998   0.00000  Uiso   1.00
C331   C     0.70067   0.47573   0.21637   0.00000  Uiso   1.00
C332   C     0.98440   0.47574   0.21639   0.00000  Uiso   1.00
H333   H     0.97308   0.45625   0.18953   0.00000  Uiso   1.00
N334   N     0.95069   0.50002   0.24999   0.00000  Uiso   1.00
H335   H     0.72671   0.45624   0.18946   0.00000  Uiso   1.00
I336   I     0.90389   0.42476   0.35310   0.00000  Uiso   1.00
O337   O     0.12708   0.89345   0.25000   0.00000  Uiso   1.00
O338   O     0.20627   0.89346   0.25000   0.00000  Uiso   1.00
C339   C     0.16664   0.91264   0.25002   0.00000  Uiso   1.00
O340   O     0.10775   0.83332   0.32549   0.00000  Uiso   1.00
O341   O     0.18694   0.83333   0.32549   0.00000  Uiso   1.00
C342   C     0.14114   0.82789   0.34937   0.00000  Uiso   1.00
Cu343  Cu    0.11978   0.83333   0.25000   0.00000  Uiso   1.00
Cu344  Cu    0.21355   0.83334   0.25000   0.00000  Uiso   1.00
O345   O     0.12706   0.77321   0.24999   0.00000  Uiso   1.00
O346   O     0.20625   0.77322   0.24999   0.00000  Uiso   1.00
O347   O     0.14640   0.83334   0.17451   0.00000  Uiso   1.00
O348   O     0.22559   0.83335   0.17451   0.00000  Uiso   1.00
C349   C     0.16673   0.75403   0.24981   0.00000  Uiso   1.00
C350   C     0.19256   0.83407   0.15005   0.00000  Uiso   1.00
C351   C     0.26781   0.83827   0.00983   0.00000  Uiso   1.00
H352   H     0.28330   0.84790   0.08212   0.00000  Uiso   1.00
H353   H     0.28598   0.81375   0.41270   0.00000  Uiso   1.00
H354   H     0.30514   0.84404   0.48710   0.00000  Uiso   1.00
C355   C     0.20684   0.83403   0.09323   0.00000  Uiso   1.00
C356   C     0.07756   0.81216   0.43230   0.00000  Uiso   1.00
C357   C     0.06302   0.80684   0.48587   0.00000  Uiso   1.00
C358   C     0.09671   0.81071   0.01381   0.00000  Uiso   1.00
C359   C     0.14708   0.81575   0.48795   0.00000  Uiso   1.00
C360   C     0.16261   0.81270   0.43306   0.00000  Uiso   1.00
C361   C     0.18280   0.82317   0.01434   0.00000  Uiso   1.00
C362   C     0.23263   0.82743   0.48532   0.00000  Uiso   1.00
C363   C     0.24741   0.81715   0.43300   0.00000  Uiso   1.00
C364   C     0.21290   0.80551   0.40867   0.00000  Uiso   1.00
C365   C     0.17080   0.82681   0.06842   0.00000  Uiso   1.00
C366   C     0.25524   0.84091   0.06368   0.00000  Uiso   1.00
C367   C     0.12725   0.81677   0.40526   0.00000  Uiso   1.00
H368   H     0.13370   0.82323   0.09231   0.00000  Uiso   1.00
H369   H     0.04985   0.81254   0.41206   0.00000  Uiso   1.00
H370   H     0.08206   0.80881   0.05540   0.00000  Uiso   1.00
H371   H     0.02516   0.80102   0.00644   0.00000  Uiso   1.00
C372   C     0.21002   0.97865   0.24651   0.00000  Uiso   1.00
H373   H     0.24392   0.96258   0.24385   0.00000  Uiso   1.00
C374   C     0.21010   0.68788   0.24630   0.00000  Uiso   1.00
H375   H     0.24405   0.70384   0.24339   0.00000  Uiso   1.00
C376   C     0.16676   0.70941   0.24972   0.00000  Uiso   1.00
C377   C     0.12339   0.68803   0.25309   0.00000  Uiso   1.00
H378   H     0.08949   0.70410   0.25579   0.00000  Uiso   1.00
C379   C     0.12334   0.97878   0.25317   0.00000  Uiso   1.00
H380   H     0.08942   0.96282   0.25592   0.00000  Uiso   1.00
C381   C     0.16665   0.95726   0.24993   0.00000  Uiso   1.00
C382   C     0.29932   0.85761   0.28362   0.00000  Uiso   1.00
H383   H     0.27326   0.87704   0.31059   0.00000  Uiso   1.00
C384   C     0.01557   0.85752   0.28368   0.00000  Uiso   1.00
H385   H     0.02685   0.87691   0.31066   0.00000  Uiso   1.00
N386   N     0.04931   0.83332   0.24998   0.00000  Uiso   1.00
C387   C     0.03401   0.80907   0.21637   0.00000  Uiso   1.00
C388   C     0.31774   0.80907   0.21639   0.00000  Uiso   1.00
H389   H     0.30641   0.78959   0.18953   0.00000  Uiso   1.00
N390   N     0.28402   0.83335   0.24999   0.00000  Uiso   1.00
H391   H     0.06005   0.78958   0.18946   0.00000  Uiso   1.00
I392   I     0.23723   0.75809   0.35310   0.00000  Uiso   1.00
O393   O     0.46042   0.89345   0.25000   0.00000  Uiso   1.00
O394   O     0.53961   0.89346   0.25000   0.00000  Uiso   1.00
C395   C     0.49998   0.91264   0.25002   0.00000  Uiso   1.00
O396   O     0.44108   0.83332   0.32549   0.00000  Uiso   1.00
O397   O     0.52027   0.83333   0.32549   0.00000  Uiso   1.00
C398   C     0.47447   0.82789   0.34937   0.00000  Uiso   1.00
Cu399  Cu    0.45311   0.83333   0.25000   0.00000  Uiso   1.00
Cu400  Cu    0.54689   0.83334   0.25000   0.00000  Uiso   1.00
O401   O     0.46039   0.77321   0.24999   0.00000  Uiso   1.00
O402   O     0.53958   0.77322   0.24999   0.00000  Uiso   1.00
O403   O     0.47973   0.83334   0.17451   0.00000  Uiso   1.00
O404   O     0.55892   0.83335   0.17451   0.00000  Uiso   1.00
C405   C     0.50006   0.75403   0.24981   0.00000  Uiso   1.00
C406   C     0.52590   0.83407   0.15005   0.00000  Uiso   1.00
C407   C     0.60115   0.83827   0.00983   0.00000  Uiso   1.00
H408   H     0.61664   0.84790   0.08212   0.00000  Uiso   1.00
H409   H     0.61932   0.81375   0.41270   0.00000  Uiso   1.00
H410   H     0.63847   0.84404   0.48710   0.00000  Uiso   1.00
C411   C     0.54017   0.83403   0.09323   0.00000  Uiso   1.00
C412   C     0.41089   0.81216   0.43230   0.00000  Uiso   1.00
C413   C     0.39636   0.80684   0.48587   0.00000  Uiso   1.00
C414   C     0.43005   0.81071   0.01381   0.00000  Uiso   1.00
C415   C     0.48041   0.81575   0.48795   0.00000  Uiso   1.00
C416   C     0.49595   0.81270   0.43306   0.00000  Uiso   1.00
C417   C     0.51614   0.82317   0.01434   0.00000  Uiso   1.00
C418   C     0.56597   0.82743   0.48532   0.00000  Uiso   1.00
C419   C     0.58075   0.81715   0.43300   0.00000  Uiso   1.00
C420   C     0.54624   0.80551   0.40867   0.00000  Uiso   1.00
C421   C     0.50414   0.82681   0.06842   0.00000  Uiso   1.00
C422   C     0.58858   0.84091   0.06368   0.00000  Uiso   1.00
C423   C     0.46058   0.81677   0.40526   0.00000  Uiso   1.00
H424   H     0.46703   0.82323   0.09231   0.00000  Uiso   1.00
H425   H     0.38318   0.81254   0.41206   0.00000  Uiso   1.00
H426   H     0.41539   0.80881   0.05540   0.00000  Uiso   1.00
H427   H     0.35849   0.80102   0.00644   0.00000  Uiso   1.00
C428   C     0.54336   0.97865   0.24651   0.00000  Uiso   1.00
H429   H     0.57725   0.96258   0.24385   0.00000  Uiso   1.00
C430   C     0.54343   0.68788   0.24630   0.00000  Uiso   1.00
H431   H     0.57738   0.70384   0.24339   0.00000  Uiso   1.00
C432   C     0.50009   0.70941   0.24972   0.00000  Uiso   1.00
C433   C     0.45672   0.68803   0.25309   0.00000  Uiso   1.00
H434   H     0.42282   0.70410   0.25579   0.00000  Uiso   1.00
C435   C     0.45667   0.97878   0.25317   0.00000  Uiso   1.00
H436   H     0.42276   0.96282   0.25592   0.00000  Uiso   1.00
C437   C     0.49998   0.95726   0.24993   0.00000  Uiso   1.00
C438   C     0.63266   0.85761   0.28362   0.00000  Uiso   1.00
H439   H     0.60660   0.87704   0.31059   0.00000  Uiso   1.00
C440   C     0.34890   0.85752   0.28368   0.00000  Uiso   1.00
H441   H     0.36018   0.87691   0.31066   0.00000  Uiso   1.00
N442   N     0.38265   0.83332   0.24998   0.00000  Uiso   1.00
C443   C     0.36734   0.80907   0.21637   0.00000  Uiso   1.00
C444   C     0.65107   0.80907   0.21639   0.00000  Uiso   1.00
H445   H     0.63974   0.78959   0.18953   0.00000  Uiso   1.00
N446   N     0.61735   0.83335   0.24999   0.00000  Uiso   1.00
H447   H     0.39338   0.78958   0.18946   0.00000  Uiso   1.00
I448   I     0.57056   0.75809   0.35310   0.00000  Uiso   1.00
O449   O     0.79375   0.89345   0.25000   0.00000  Uiso   1.00
O450   O     0.87294   0.89346   0.25000   0.00000  Uiso   1.00
C451   C     0.83331   0.91264   0.25002   0.00000  Uiso   1.00
O452   O     0.77441   0.83332   0.32549   0.00000  Uiso   1.00
O453   O     0.85360   0.83333   0.32549   0.00000  Uiso   1.00
C454   C     0.80781   0.82789   0.34937   0.00000  Uiso   1.00
Cu455  Cu    0.78645   0.83333   0.25000   0.00000  Uiso   1.00
Cu456  Cu    0.88022   0.83334   0.25000   0.00000  Uiso   1.00
O457   O     0.79373   0.77321   0.24999   0.00000  Uiso   1.00
O458   O     0.87292   0.77322   0.24999   0.00000  Uiso   1.00
O459   O     0.81306   0.83334   0.17451   0.00000  Uiso   1.00
O460   O     0.89225   0.83335   0.17451   0.00000  Uiso   1.00
C461   C     0.83340   0.75403   0.24981   0.00000  Uiso   1.00
C462   C     0.85923   0.83407   0.15005   0.00000  Uiso   1.00
C463   C     0.93448   0.83827   0.00983   0.00000  Uiso   1.00
H464   H     0.94997   0.84790   0.08212   0.00000  Uiso   1.00
H465   H     0.95265   0.81375   0.41270   0.00000  Uiso   1.00
H466   H     0.97181   0.84404   0.48710   0.00000  Uiso   1.00
C467   C     0.87350   0.83403   0.09323   0.00000  Uiso   1.00
C468   C     0.74422   0.81216   0.43230   0.00000  Uiso   1.00
C469   C     0.72969   0.80684   0.48587   0.00000  Uiso   1.00
C470   C     0.76338   0.81071   0.01381   0.00000  Uiso   1.00
C471   C     0.81375   0.81575   0.48795   0.00000  Uiso   1.00
C472   C     0.82928   0.81270   0.43306   0.00000  Uiso   1.00
C473   C     0.84947   0.82317   0.01434   0.00000  Uiso   1.00
C474   C     0.89930   0.82743   0.48532   0.00000  Uiso   1.00
C475   C     0.91408   0.81715   0.43300   0.00000  Uiso   1.00
C476   C     0.87957   0.80551   0.40867   0.00000  Uiso   1.00
C477   C     0.83747   0.82681   0.06842   0.00000  Uiso   1.00
C478   C     0.92191   0.84091   0.06368   0.00000  Uiso   1.00
C479   C     0.79392   0.81677   0.40526   0.00000  Uiso   1.00
H480   H     0.80037   0.82323   0.09231   0.00000  Uiso   1.00
H481   H     0.71652   0.81254   0.41206   0.00000  Uiso   1.00
H482   H     0.74873   0.80881   0.05540   0.00000  Uiso   1.00
H483   H     0.69182   0.80102   0.00644   0.00000  Uiso   1.00
C484   C     0.87669   0.97865   0.24651   0.00000  Uiso   1.00
H485   H     0.91059   0.96258   0.24385   0.00000  Uiso   1.00
C486   C     0.87676   0.68788   0.24630   0.00000  Uiso   1.00
H487   H     0.91071   0.70384   0.24339   0.00000  Uiso   1.00
C488   C     0.83342   0.70941   0.24972   0.00000  Uiso   1.00
C489   C     0.79006   0.68803   0.25309   0.00000  Uiso   1.00
H490   H     0.75615   0.70410   0.25579   0.00000  Uiso   1.00
C491   C     0.79001   0.97878   0.25317   0.00000  Uiso   1.00
H492   H     0.75609   0.96282   0.25592   0.00000  Uiso   1.00
C493   C     0.83332   0.95726   0.24993   0.00000  Uiso   1.00
C494   C     0.96599   0.85761   0.28362   0.00000  Uiso   1.00
H495   H     0.93993   0.87704   0.31059   0.00000  Uiso   1.00
C496   C     0.68223   0.85752   0.28368   0.00000  Uiso   1.00
H497   H     0.69352   0.87691   0.31066   0.00000  Uiso   1.00
N498   N     0.71598   0.83332   0.24998   0.00000  Uiso   1.00
C499   C     0.70067   0.80907   0.21637   0.00000  Uiso   1.00
C500   C     0.98440   0.80907   0.21639   0.00000  Uiso   1.00
H501   H     0.97308   0.78959   0.18953   0.00000  Uiso   1.00
N502   N     0.95069   0.83335   0.24999   0.00000  Uiso   1.00
H503   H     0.72671   0.78958   0.18946   0.00000  Uiso   1.00
I504   I     0.90389   0.75809   0.35310   0.00000  Uiso   1.00
O505   O     0.12708   0.22678   0.75000   0.00000  Uiso   1.00
O506   O     0.20627   0.22679   0.75000   0.00000  Uiso   1.00
C507   C     0.16664   0.24597   0.75002   0.00000  Uiso   1.00
O508   O     0.10775   0.16665   0.82549   0.00000  Uiso   1.00
O509   O     0.18694   0.16666   0.82549   0.00000  Uiso   1.00
C510   C     0.14114   0.16123   0.84937   0.00000  Uiso   1.00
Cu511  Cu    0.11978   0.16666   0.75000   0.00000  Uiso   1.00
Cu512  Cu    0.21355   0.16667   0.75000   0.00000  Uiso   1.00
O513   O     0.12706   0.10654   0.74999   0.00000  Uiso   1.00
O514   O     0.20625   0.10655   0.74999   0.00000  Uiso   1.00
O515   O     0.14640   0.16667   0.67451   0.00000  Uiso   1.00
O516   O     0.22559   0.16668   0.67451   0.00000  Uiso   1.00
C517   C     0.16673   0.08736   0.74981   0.00000  Uiso   1.00
C518   C     0.19256   0.16740   0.65005   0.00000  Uiso   1.00
C519   C     0.26781   0.17160   0.50983   0.00000  Uiso   1.00
H520   H     0.28330   0.18123   0.58212   0.00000  Uiso   1.00
H521   H     0.28598   0.14708   0.91270   0.00000  Uiso   1.00
H522   H     0.30514   0.17737   0.98710   0.00000  Uiso   1.00
C523   C     0.20684   0.16737   0.59323   0.00000  Uiso   1.00
C524   C     0.07756   0.14550   0.93230   0.00000  Uiso   1.00
C525   C     0.06302   0.14017   0.98587   0.00000  Uiso   1.00
C526   C     0.09671   0.14404   0.51381   0.00000  Uiso   1.00
C527   C     0.14708   0.14908   0.98795   0.00000  Uiso   1.00
C528   C     0.16261   0.14604   0.93306   0.00000  Uiso   1.00
C529   C     0.18280   0.15650   0.51434   0.00000  Uiso   1.00
C530   C     0.23263   0.16076   0.98532   0.00000  Uiso   1.00
C531   C     0.24741   0.15048   0.93300   0.00000  Uiso   1.00
C532   C     0.21290   0.13884   0.90867   0.00000  Uiso   1.00
C533   C     0.17080   0.16014   0.56842   0.00000  Uiso   1.00
C534   C     0.25524   0.17425   0.56368   0.00000  Uiso   1.00
C535   C     0.12725   0.15011   0.90526   0.00000  Uiso   1.00
H536   H     0.13370   0.15656   0.59231   0.00000  Uiso   1.00
H537   H     0.04985   0.14588   0.91206   0.00000  Uiso   1.00
H538   H     0.08206   0.14215   0.55540   0.00000  Uiso   1.00
H539   H     0.02516   0.13435   0.50644   0.00000  Uiso   1.00
C540   C     0.21002   0.31198   0.74651   0.00000  Uiso   1.00
H541   H     0.24392   0.29591   0.74385   0.00000  Uiso   1.00
C542   C     0.21010   0.02122   0.74630   0.00000  Uiso   1.00
H543   H     0.24405   0.03717   0.74339   0.00000  Uiso   1.00
C544   C     0.16676   0.04274   0.74972   0.00000  Uiso   1.00
C545   C     0.12339   0.02136   0.75309   0.00000  Uiso   1.00
H546   H     0.08949   0.03743   0.75579   0.00000  Uiso   1.00
C547   C     0.12334   0.31212   0.75317   0.00000  Uiso   1.00
H548   H     0.08942   0.29615   0.75592   0.00000  Uiso   1.00
C549   C     0.16665   0.29059   0.74993   0.00000  Uiso   1.00
C550   C     0.29932   0.19094   0.78362   0.00000  Uiso   1.00
H551   H     0.27326   0.21037   0.81059   0.00000  Uiso   1.00
C552   C     0.01557   0.19086   0.78368   0.00000  Uiso   1.00
H553   H     0.02685   0.21025   0.81066   0.00000  Uiso   1.00
N554   N     0.04931   0.16666   0.74998   0.00000  Uiso   1.00
C555   C     0.03401   0.14240   0.71637   0.00000  Uiso   1.00
C556   C     0.31774   0.14240   0.71639   0.00000  Uiso   1.00
H557   H     0.30641   0.12292   0.68953   0.00000  Uiso   1.00
N558   N     0.28402   0.16669   0.74999   0.00000  Uiso   1.00
H559   H     0.06005   0.12291   0.68946   0.00000  Uiso   1.00
I560   I     0.23723   0.09143   0.85310   0.00000  Uiso   1.00
O561   O     0.46042   0.22678   0.75000   0.00000  Uiso   1.00
O562   O     0.53961   0.22679   0.75000   0.00000  Uiso   1.00
C563   C     0.49998   0.24597   0.75002   0.00000  Uiso   1.00
O564   O     0.44108   0.16665   0.82549   0.00000  Uiso   1.00
O565   O     0.52027   0.16666   0.82549   0.00000  Uiso   1.00
C566   C     0.47447   0.16123   0.84937   0.00000  Uiso   1.00
Cu567  Cu    0.45311   0.16666   0.75000   0.00000  Uiso   1.00
Cu568  Cu    0.54689   0.16667   0.75000   0.00000  Uiso   1.00
O569   O     0.46039   0.10654   0.74999   0.00000  Uiso   1.00
O570   O     0.53958   0.10655   0.74999   0.00000  Uiso   1.00
O571   O     0.47973   0.16667   0.67451   0.00000  Uiso   1.00
O572   O     0.55892   0.16668   0.67451   0.00000  Uiso   1.00
C573   C     0.50006   0.08736   0.74981   0.00000  Uiso   1.00
C574   C     0.52590   0.16740   0.65005   0.00000  Uiso   1.00
C575   C     0.60115   0.17160   0.50983   0.00000  Uiso   1.00
H576   H     0.61664   0.18123   0.58212   0.00000  Uiso   1.00
H577   H     0.61932   0.14708   0.91270   0.00000  Uiso   1.00
H578   H     0.63847   0.17737   0.98710   0.00000  Uiso   1.00
C579   C     0.54017   0.16737   0.59323   0.00000  Uiso   1.00
C580   C     0.41089   0.14550   0.93230   0.00000  Uiso   1.00
C581   C     0.39636   0.14017   0.98587   0.00000  Uiso   1.00
C582   C     0.43005   0.14404   0.51381   0.00000  Uiso   1.00
C583   C     0.48041   0.14908   0.98795   0.00000  Uiso   1.00
C584   C     0.49595   0.14604   0.93306   0.00000  Uiso   1.00
C585   C     0.51614   0.15650   0.51434   0.00000  Uiso   1.00
C586   C     0.56597   0.16076   0.98532   0.00000  Uiso   1.00
C587   C     0.58075   0.15048   0.93300   0.00000  Uiso   1.00
C588   C     0.54624   0.13884   0.90867   0.00000  Uiso   1.00
C589   C     0.50414   0.16014   0.56842   0.00000  Uiso   1.00
C590   C     0.58858   0.17425   0.56368   0.00000  Uiso   1.00
C591   C     0.46058   0.15011   0.90526   0.00000  Uiso   1.00
H592   H     0.46703   0.15656   0.59231   0.00000  Uiso   1.00
H593   H     0.38318   0.14588   0.91206   0.00000  Uiso   1.00
H594   H     0.41539   0.14215   0.55540   0.00000  Uiso   1.00
H595   H     0.35849   0.13435   0.50644   0.00000  Uiso   1.00
C596   C     0.54336   0.31198   0.74651   0.00000  Uiso   1.00
H597   H     0.57725   0.29591   0.74385   0.00000  Uiso   1.00
C598   C     0.54343   0.02122   0.74630   0.00000  Uiso   1.00
H599   H     0.57738   0.03717   0.74339   0.00000  Uiso   1.00
C600   C     0.50009   0.04274   0.74972   0.00000  Uiso   1.00
C601   C     0.45672   0.02136   0.75309   0.00000  Uiso   1.00
H602   H     0.42282   0.03743   0.75579   0.00000  Uiso   1.00
C603   C     0.45667   0.31212   0.75317   0.00000  Uiso   1.00
H604   H     0.42276   0.29615   0.75592   0.00000  Uiso   1.00
C605   C     0.49998   0.29059   0.74993   0.00000  Uiso   1.00
C606   C     0.63266   0.19094   0.78362   0.00000  Uiso   1.00
H607   H     0.60660   0.21037   0.81059   0.00000  Uiso   1.00
C608   C     0.34890   0.19086   0.78368   0.00000  Uiso   1.00
H609   H     0.36018   0.21025   0.81066   0.00000  Uiso   1.00
N610   N     0.38265   0.16666   0.74998   0.00000  Uiso   1.00
C611   C     0.36734   0.14240   0.71637   0.00000  Uiso   1.00
C612   C     0.65107   0.14240   0.71639   0.00000  Uiso   1.00
H613   H     0.63974   0.12292   0.68953   0.00000  Uiso   1.00
N614   N     0.61735   0.16669   0.74999   0.00000  Uiso   1.00
H615   H     0.39338   0.12291   0.68946   0.00000  Uiso   1.00
I616   I     0.57056   0.09143   0.85310   0.00000  Uiso   1.00
O617   O     0.79375   0.22678   0.75000   0.00000  Uiso   1.00
O618   O     0.87294   0.22679   0.75000   0.00000  Uiso   1.00
C619   C     0.83331   0.24597   0.75002   0.00000  Uiso   1.00
O620   O     0.77441   0.16665   0.82549   0.00000  Uiso   1.00
O621   O     0.85360   0.16666   0.82549   0.00000  Uiso   1.00
C622   C     0.80781   0.16123   0.84937   0.00000  Uiso   1.00
Cu623  Cu    0.78645   0.16666   0.75000   0.00000  Uiso   1.00
Cu624  Cu    0.88022   0.16667   0.75000   0.00000  Uiso   1.00
O625   O     0.79373   0.10654   0.74999   0.00000  Uiso   1.00
O626   O     0.87292   0.10655   0.74999   0.00000  Uiso   1.00
O627   O     0.81306   0.16667   0.67451   0.00000  Uiso   1.00
O628   O     0.89225   0.16668   0.67451   0.00000  Uiso   1.00
C629   C     0.83340   0.08736   0.74981   0.00000  Uiso   1.00
C630   C     0.85923   0.16740   0.65005   0.00000  Uiso   1.00
C631   C     0.93448   0.17160   0.50983   0.00000  Uiso   1.00
H632   H     0.94997   0.18123   0.58212   0.00000  Uiso   1.00
H633   H     0.95265   0.14708   0.91270   0.00000  Uiso   1.00
H634   H     0.97181   0.17737   0.98710   0.00000  Uiso   1.00
C635   C     0.87350   0.16737   0.59323   0.00000  Uiso   1.00
C636   C     0.74422   0.14550   0.93230   0.00000  Uiso   1.00
C637   C     0.72969   0.14017   0.98587   0.00000  Uiso   1.00
C638   C     0.76338   0.14404   0.51381   0.00000  Uiso   1.00
C639   C     0.81375   0.14908   0.98795   0.00000  Uiso   1.00
C640   C     0.82928   0.14604   0.93306   0.00000  Uiso   1.00
C641   C     0.84947   0.15650   0.51434   0.00000  Uiso   1.00
C642   C     0.89930   0.16076   0.98532   0.00000  Uiso   1.00
C643   C     0.91408   0.15048   0.93300   0.00000  Uiso   1.00
C644   C     0.87957   0.13884   0.90867   0.00000  Uiso   1.00
C645   C     0.83747   0.16014   0.56842   0.00000  Uiso   1.00
C646   C     0.92191   0.17425   0.56368   0.00000  Uiso   1.00
C647   C     0.79392   0.15011   0.90526   0.00000  Uiso   1.00
H648   H     0.80037   0.15656   0.59231   0.00000  Uiso   1.00
H649   H     0.71652   0.14588   0.91206   0.00000  Uiso   1.00
H650   H     0.74873   0.14215   0.55540   0.00000  Uiso   1.00
H651   H     0.69182   0.13435   0.50644   0.00000  Uiso   1.00
C652   C     0.87669   0.31198   0.74651   0.00000  Uiso   1.00
H653   H     0.91059   0.29591   0.74385   0.00000  Uiso   1.00
C654   C     0.87676   0.02122   0.74630   0.00000  Uiso   1.00
H655   H     0.91071   0.03717   0.74339   0.00000  Uiso   1.00
C656   C     0.83342   0.04274   0.74972   0.00000  Uiso   1.00
C657   C     0.79006   0.02136   0.75309   0.00000  Uiso   1.00
H658   H     0.75615   0.03743   0.75579   0.00000  Uiso   1.00
C659   C     0.79001   0.31212   0.75317   0.00000  Uiso   1.00
H660   H     0.75609   0.29615   0.75592   0.00000  Uiso   1.00
C661   C     0.83332   0.29059   0.74993   0.00000  Uiso   1.00
C662   C     0.96599   0.19094   0.78362   0.00000  Uiso   1.00
H663   H     0.93993   0.21037   0.81059   0.00000  Uiso   1.00
C664   C     0.68223   0.19086   0.78368   0.00000  Uiso   1.00
H665   H     0.69352   0.21025   0.81066   0.00000  Uiso   1.00
N666   N     0.71598   0.16666   0.74998   0.00000  Uiso   1.00
C667   C     0.70067   0.14240   0.71637   0.00000  Uiso   1.00
C668   C     0.98440   0.14240   0.71639   0.00000  Uiso   1.00
H669   H     0.97308   0.12292   0.68953   0.00000  Uiso   1.00
N670   N     0.95069   0.16669   0.74999   0.00000  Uiso   1.00
H671   H     0.72671   0.12291   0.68946   0.00000  Uiso   1.00
I672   I     0.90389   0.09143   0.85310   0.00000  Uiso   1.00
O673   O     0.12708   0.56011   0.75000   0.00000  Uiso   1.00
O674   O     0.20627   0.56012   0.75000   0.00000  Uiso   1.00
C675   C     0.16664   0.57930   0.75002   0.00000  Uiso   1.00
O676   O     0.10775   0.49998   0.82549   0.00000  Uiso   1.00
O677   O     0.18694   0.49999   0.82549   0.00000  Uiso   1.00
C678   C     0.14114   0.49456   0.84937   0.00000  Uiso   1.00
Cu679  Cu    0.11978   0.49999   0.75000   0.00000  Uiso   1.00
Cu680  Cu    0.21355   0.50001   0.75000   0.00000  Uiso   1.00
O681   O     0.12706   0.43988   0.74999   0.00000  Uiso   1.00
O682   O     0.20625   0.43989   0.74999   0.00000  Uiso   1.00
O683   O     0.14640   0.50001   0.67451   0.00000  Uiso   1.00
O684   O     0.22559   0.50002   0.67451   0.00000  Uiso   1.00
C685   C     0.16673   0.42069   0.74981   0.00000  Uiso   1.00
C686   C     0.19256   0.50073   0.65005   0.00000  Uiso   1.00
C687   C     0.26781   0.50494   0.50983   0.00000  Uiso   1.00
H688   H     0.28330   0.51456   0.58212   0.00000  Uiso   1.00
H689   H     0.28598   0.48041   0.91270   0.00000  Uiso   1.00
H690   H     0.30514   0.51071   0.98710   0.00000  Uiso   1.00
C691   C     0.20684   0.50070   0.59323   0.00000  Uiso   1.00
C692   C     0.07756   0.47883   0.93230   0.00000  Uiso   1.00
C693   C     0.06302   0.47350   0.98587   0.00000  Uiso   1.00
C694   C     0.09671   0.47737   0.51381   0.00000  Uiso   1.00
C695   C     0.14708   0.48241   0.98795   0.00000  Uiso   1.00
C696   C     0.16261   0.47937   0.93306   0.00000  Uiso   1.00
C697   C     0.18280   0.48983   0.51434   0.00000  Uiso   1.00
C698   C     0.23263   0.49409   0.98532   0.00000  Uiso   1.00
C699   C     0.24741   0.48382   0.93300   0.00000  Uiso   1.00
C700   C     0.21290   0.47217   0.90867   0.00000  Uiso   1.00
C701   C     0.17080   0.49347   0.56842   0.00000  Uiso   1.00
C702   C     0.25524   0.50758   0.56368   0.00000  Uiso   1.00
C703   C     0.12725   0.48344   0.90526   0.00000  Uiso   1.00
H704   H     0.13370   0.48990   0.59231   0.00000  Uiso   1.00
H705   H     0.04985   0.47921   0.91206   0.00000  Uiso   1.00
H706   H     0.08206   0.47548   0.55540   0.00000  Uiso   1.00
H707   H     0.02516   0.46769   0.50644   0.00000  Uiso   1.00
C708   C     0.21002   0.64531   0.74651   0.00000  Uiso   1.00
H709   H     0.24392   0.62925   0.74385   0.00000  Uiso   1.00
C710   C     0.21010   0.35455   0.74630   0.00000  Uiso   1.00
H711   H     0.24405   0.37050   0.74339   0.00000  Uiso   1.00
C712   C     0.16676   0.37608   0.74972   0.00000  Uiso   1.00
C713   C     0.12339   0.35469   0.75309   0.00000  Uiso   1.00
H714   H     0.08949   0.37076   0.75579   0.00000  Uiso   1.00
C715   C     0.12334   0.64545   0.75317   0.00000  Uiso   1.00
H716   H     0.08942   0.62949   0.75592   0.00000  Uiso   1.00
C717   C     0.16665   0.62392   0.74993   0.00000  Uiso   1.00
C718   C     0.29932   0.52427   0.78362   0.00000  Uiso   1.00
H719   H     0.27326   0.54370   0.81059   0.00000  Uiso   1.00
C720   C     0.01557   0.52419   0.78368   0.00000  Uiso   1.00
H721   H     0.02685   0.54358   0.81066   0.00000  Uiso   1.00
N722   N     0.04931   0.49999   0.74998   0.00000  Uiso   1.00
C723   C     0.03401   0.47573   0.71637   0.00000  Uiso   1.00
C724   C     0.31774   0.47574   0.71639   0.00000  Uiso   1.00
H725   H     0.30641   0.45625   0.68953   0.00000  Uiso   1.00
N726   N     0.28402   0.50002   0.74999   0.00000  Uiso   1.00
H727   H     0.06005   0.45624   0.68946   0.00000  Uiso   1.00
I728   I     0.23723   0.42476   0.85310   0.00000  Uiso   1.00
O729   O     0.46042   0.56011   0.75000   0.00000  Uiso   1.00
O730   O     0.53961   0.56012   0.75000   0.00000  Uiso   1.00
C731   C     0.49998   0.57930   0.75002   0.00000  Uiso   1.00
O732   O     0.44108   0.49998   0.82549   0.00000  Uiso   1.00
O733   O     0.52027   0.49999   0.82549   0.00000  Uiso   1.00
C734   C     0.47447   0.49456   0.84937   0.00000  Uiso   1.00
Cu735  Cu    0.45311   0.49999   0.75000   0.00000  Uiso   1.00
Cu736  Cu    0.54689   0.50001   0.75000   0.00000  Uiso   1.00
O737   O     0.46039   0.43988   0.74999   0.00000  Uiso   1.00
O738   O     0.53958   0.43989   0.74999   0.00000  Uiso   1.00
O739   O     0.47973   0.50001   0.67451   0.00000  Uiso   1.00
O740   O     0.55892   0.50002   0.67451   0.00000  Uiso   1.00
C741   C     0.50006   0.42069   0.74981   0.00000  Uiso   1.00
C742   C     0.52590   0.50073   0.65005   0.00000  Uiso   1.00
C743   C     0.60115   0.50494   0.50983   0.00000  Uiso   1.00
H744   H     0.61664   0.51456   0.58212   0.00000  Uiso   1.00
H745   H     0.61932   0.48041   0.91270   0.00000  Uiso   1.00
H746   H     0.63847   0.51071   0.98710   0.00000  Uiso   1.00
C747   C     0.54017   0.50070   0.59323   0.00000  Uiso   1.00
C748   C     0.41089   0.47883   0.93230   0.00000  Uiso   1.00
C749   C     0.39636   0.47350   0.98587   0.00000  Uiso   1.00
C750   C     0.43005   0.47737   0.51381   0.00000  Uiso   1.00
C751   C     0.48041   0.48241   0.98795   0.00000  Uiso   1.00
C752   C     0.49595   0.47937   0.93306   0.00000  Uiso   1.00
C753   C     0.51614   0.48983   0.51434   0.00000  Uiso   1.00
C754   C     0.56597   0.49409   0.98532   0.00000  Uiso   1.00
C755   C     0.58075   0.48382   0.93300   0.00000  Uiso   1.00
C756   C     0.54624   0.47217   0.90867   0.00000  Uiso   1.00
C757   C     0.50414   0.49347   0.56842   0.00000  Uiso   1.00
C758   C     0.58858   0.50758   0.56368   0.00000  Uiso   1.00
C759   C     0.46058   0.48344   0.90526   0.00000  Uiso   1.00
H760   H     0.46703   0.48990   0.59231   0.00000  Uiso   1.00
H761   H     0.38318   0.47921   0.91206   0.00000  Uiso   1.00
H762   H     0.41539   0.47548   0.55540   0.00000  Uiso   1.00
H763   H     0.35849   0.46769   0.50644   0.00000  Uiso   1.00
C764   C     0.54336   0.64531   0.74651   0.00000  Uiso   1.00
H765   H     0.57725   0.62925   0.74385   0.00000  Uiso   1.00
C766   C     0.54343   0.35455   0.74630   0.00000  Uiso   1.00
H767   H     0.57738   0.37050   0.74339   0.00000  Uiso   1.00
C768   C     0.50009   0.37608   0.74972   0.00000  Uiso   1.00
C769   C     0.45672   0.35469   0.75309   0.00000  Uiso   1.00
H770   H     0.42282   0.37076   0.75579   0.00000  Uiso   1.00
C771   C     0.45667   0.64545   0.75317   0.00000  Uiso   1.00
H772   H     0.42276   0.62949   0.75592   0.00000  Uiso   1.00
C773   C     0.49998   0.62392   0.74993   0.00000  Uiso   1.00
C774   C     0.63266   0.52427   0.78362   0.00000  Uiso   1.00
H775   H     0.60660   0.54370   0.81059   0.00000  Uiso   1.00
C776   C     0.34890   0.52419   0.78368   0.00000  Uiso   1.00
H777   H     0.36018   0.54358   0.81066   0.00000  Uiso   1.00
N778   N     0.38265   0.49999   0.74998   0.00000  Uiso   1.00
C779   C     0.36734   0.47573   0.71637   0.00000  Uiso   1.00
C780   C     0.65107   0.47574   0.71639   0.00000  Uiso   1.00
H781   H     0.63974   0.45625   0.68953   0.00000  Uiso   1.00
N782   N     0.61735   0.50002   0.74999   0.00000  Uiso   1.00
H783   H     0.39338   0.45624   0.68946   0.00000  Uiso   1.00
I784   I     0.57056   0.42476   0.85310   0.00000  Uiso   1.00
O785   O     0.79375   0.56011   0.75000   0.00000  Uiso   1.00
O786   O     0.87294   0.56012   0.75000   0.00000  Uiso   1.00
C787   C     0.83331   0.57930   0.75002   0.00000  Uiso   1.00
O788   O     0.77441   0.49998   0.82549   0.00000  Uiso   1.00
O789   O     0.85360   0.49999   0.82549   0.00000  Uiso   1.00
C790   C     0.80781   0.49456   0.84937   0.00000  Uiso   1.00
Cu791  Cu    0.78645   0.49999   0.75000   0.00000  Uiso   1.00
Cu792  Cu    0.88022   0.50001   0.75000   0.00000  Uiso   1.00
O793   O     0.79373   0.43988   0.74999   0.00000  Uiso   1.00
O794   O     0.87292   0.43989   0.74999   0.00000  Uiso   1.00
O795   O     0.81306   0.50001   0.67451   0.00000  Uiso   1.00
O796   O     0.89225   0.50002   0.67451   0.00000  Uiso   1.00
C797   C     0.83340   0.42069   0.74981   0.00000  Uiso   1.00
C798   C     0.85923   0.50073   0.65005   0.00000  Uiso   1.00
C799   C     0.93448   0.50494   0.50983   0.00000  Uiso   1.00
H800   H     0.94997   0.51456   0.58212   0.00000  Uiso   1.00
H801   H     0.95265   0.48041   0.91270   0.00000  Uiso   1.00
H802   H     0.97181   0.51071   0.98710   0.00000  Uiso   1.00
C803   C     0.87350   0.50070   0.59323   0.00000  Uiso   1.00
C804   C     0.74422   0.47883   0.93230   0.00000  Uiso   1.00
C805   C     0.72969   0.47350   0.98587   0.00000  Uiso   1.00
C806   C     0.76338   0.47737   0.51381   0.00000  Uiso   1.00
C807   C     0.81375   0.48241   0.98795   0.00000  Uiso   1.00
C808   C     0.82928   0.47937   0.93306   0.00000  Uiso   1.00
C809   C     0.84947   0.48983   0.51434   0.00000  Uiso   1.00
C810   C     0.89930   0.49409   0.98532   0.00000  Uiso   1.00
C811   C     0.91408   0.48382   0.93300   0.00000  Uiso   1.00
C812   C     0.87957   0.47217   0.90867   0.00000  Uiso   1.00
C813   C     0.83747   0.49347   0.56842   0.00000  Uiso   1.00
C814   C     0.92191   0.50758   0.56368   0.00000  Uiso   1.00
C815   C     0.79392   0.48344   0.90526   0.00000  Uiso   1.00
H816   H     0.80037   0.48990   0.59231   0.00000  Uiso   1.00
H817   H     0.71652   0.47921   0.91206   0.00000  Uiso   1.00
H818   H     0.74873   0.47548   0.55540   0.00000  Uiso   1.00
H819   H     0.69182   0.46769   0.50644   0.00000  Uiso   1.00
C820   C     0.87669   0.64531   0.74651   0.00000  Uiso   1.00
H821   H     0.91059   0.62925   0.74385   0.00000  Uiso   1.00
C822   C     0.87676   0.35455   0.74630   0.00000  Uiso   1.00
H823   H     0.91071   0.37050   0.74339   0.00000  Uiso   1.00
C824   C     0.83342   0.37608   0.74972   0.00000  Uiso   1.00
C825   C     0.79006   0.35469   0.75309   0.00000  Uiso   1.00
H826   H     0.75615   0.37076   0.75579   0.00000  Uiso   1.00
C827   C     0.79001   0.64545   0.75317   0.00000  Uiso   1.00
H828   H     0.75609   0.62949   0.75592   0.00000  Uiso   1.00
C829   C     0.83332   0.62392   0.74993   0.00000  Uiso   1.00
C830   C     0.96599   0.52427   0.78362   0.00000  Uiso   1.00
H831   H     0.93993   0.54370   0.81059   0.00000  Uiso   1.00
C832   C     0.68223   0.52419   0.78368   0.00000  Uiso   1.00
H833   H     0.69352   0.54358   0.81066   0.00000  Uiso   1.00
N834   N     0.71598   0.49999   0.74998   0.00000  Uiso   1.00
C835   C     0.70067   0.47573   0.71637   0.00000  Uiso   1.00
C836   C     0.98440   0.47574   0.71639   0.00000  Uiso   1.00
H837   H     0.97308   0.45625   0.68953   0.00000  Uiso   1.00
N838   N     0.95069   0.50002   0.74999   0.00000  Uiso   1.00
H839   H     0.72671   0.45624   0.68946   0.00000  Uiso   1.00
I840   I     0.90389   0.42476   0.85310   0.00000  Uiso   1.00
O841   O     0.12708   0.89345   0.75000   0.00000  Uiso   1.00
O842   O     0.20627   0.89346   0.75000   0.00000  Uiso   1.00
C843   C     0.16664   0.91264   0.75002   0.00000  Uiso   1.00
O844   O     0.10775   0.83332   0.82549   0.00000  Uiso   1.00
O845   O     0.18694   0.83333   0.82549   0.00000  Uiso   1.00
C846   C     0.14114   0.82789   0.84937   0.00000  Uiso   1.00
Cu847  Cu    0.11978   0.83333   0.75000   0.00000  Uiso   1.00
Cu848  Cu    0.21355   0.83334   0.75000   0.00000  Uiso   1.00
O849   O     0.12706   0.77321   0.74999   0.00000  Uiso   1.00
O850   O     0.20625   0.77322   0.74999   0.00000  Uiso   1.00
O851   O     0.14640   0.83334   0.67451   0.00000  Uiso   1.00
O852   O     0.22559   0.83335   0.67451   0.00000  Uiso   1.00
C853   C     0.16673   0.75403   0.74981   0.00000  Uiso   1.00
C854   C     0.19256   0.83407   0.65005   0.00000  Uiso   1.00
C855   C     0.26781   0.83827   0.50983   0.00000  Uiso   1.00
H856   H     0.28330   0.84790   0.58212   0.00000  Uiso   1.00
H857   H     0.28598   0.81375   0.91270   0.00000  Uiso   1.00
H858   H     0.30514   0.84404   0.98710   0.00000  Uiso   1.00
C859   C     0.20684   0.83403   0.59323   0.00000  Uiso   1.00
C860   C     0.07756   0.81216   0.93230   0.00000  Uiso   1.00
C861   C     0.06302   0.80684   0.98587   0.00000  Uiso   1.00
C862   C     0.09671   0.81071   0.51381   0.00000  Uiso   1.00
C863   C     0.14708   0.81575   0.98795   0.00000  Uiso   1.00
C864   C     0.16261   0.81270   0.93306   0.00000  Uiso   1.00
C865   C     0.18280   0.82317   0.51434   0.00000  Uiso   1.00
C866   C     0.23263   0.82743   0.98532   0.00000  Uiso   1.00
C867   C     0.24741   0.81715   0.93300   0.00000  Uiso   1.00
C868   C     0.21290   0.80551   0.90867   0.00000  Uiso   1.00
C869   C     0.17080   0.82681   0.56842   0.00000  Uiso   1.00
C870   C     0.25524   0.84091   0.56368   0.00000  Uiso   1.00
C871   C     0.12725   0.81677   0.90526   0.00000  Uiso   1.00
H872   H     0.13370   0.82323   0.59231   0.00000  Uiso   1.00
H873   H     0.04985   0.81254   0.91206   0.00000  Uiso   1.00
H874   H     0.08206   0.80881   0.55540   0.00000  Uiso   1.00
H875   H     0.02516   0.80102   0.50644   0.00000  Uiso   1.00
C876   C     0.21002   0.97865   0.74651   0.00000  Uiso   1.00
H877   H     0.24392   0.96258   0.74385   0.00000  Uiso   1.00
C878   C     0.21010   0.68788   0.74630   0.00000  Uiso   1.00
H879   H     0.24405   0.70384   0.74339   0.00000  Uiso   1.00
C880   C     0.16676   0.70941   0.74972   0.00000  Uiso   1.00
C881   C     0.12339   0.68803   0.75309   0.00000  Uiso   1.00
H882   H     0.08949   0.70410   0.75579   0.00000  Uiso   1.00
C883   C     0.12334   0.97878   0.75317   0.00000  Uiso   1.00
H884   H     0.08942   0.96282   0.75592   0.00000  Uiso   1.00
C885   C     0.16665   0.95726   0.74993   0.00000  Uiso   1.00
C886   C     0.29932   0.85761   0.78362   0.00000  Uiso   1.00
H887   H     0.27326   0.87704   0.81059   0.00000  Uiso   1.00
C888   C     0.01557   0.85752   0.78368   0.00000  Uiso   1.00
H889   H     0.02685   0.87691   0.81066   0.00000  Uiso   1.00
N890   N     0.04931   0.83332   0.74998   0.00000  Uiso   1.00
C891   C     0.03401   0.80907   0.71637   0.00000  Uiso   1.00
C892   C     0.31774   0.80907   0.71639   0.00000  Uiso   1.00
H893   H     0.30641   0.78959   0.68953   0.00000  Uiso   1.00
N894   N     0.28402   0.83335   0.74999   0.00000  Uiso   1.00
H895   H     0.06005   0.78958   0.68946   0.00000  Uiso   1.00
I896   I     0.23723   0.75809   0.85310   0.00000  Uiso   1.00
O897   O     0.46042   0.89345   0.75000   0.00000  Uiso   1.00
O898   O     0.53961   0.89346   0.75000   0.00000  Uiso   1.00
C899   C     0.49998   0.91264   0.75002   0.00000  Uiso   1.00
O900   O     0.44108   0.83332   0.82549   0.00000  Uiso   1.00
O901   O     0.52027   0.83333   0.82549   0.00000  Uiso   1.00
C902   C     0.47447   0.82789   0.84937   0.00000  Uiso   1.00
Cu903  Cu    0.45311   0.83333   0.75000   0.00000  Uiso   1.00
Cu904  Cu    0.54689   0.83334   0.75000   0.00000  Uiso   1.00
O905   O     0.46039   0.77321   0.74999   0.00000  Uiso   1.00
O906   O     0.53958   0.77322   0.74999   0.00000  Uiso   1.00
O907   O     0.47973   0.83334   0.67451   0.00000  Uiso   1.00
O908   O     0.55892   0.83335   0.67451   0.00000  Uiso   1.00
C909   C     0.50006   0.75403   0.74981   0.00000  Uiso   1.00
C910   C     0.52590   0.83407   0.65005   0.00000  Uiso   1.00
C911   C     0.60115   0.83827   0.50983   0.00000  Uiso   1.00
H912   H     0.61664   0.84790   0.58212   0.00000  Uiso   1.00
H913   H     0.61932   0.81375   0.91270   0.00000  Uiso   1.00
H914   H     0.63847   0.84404   0.98710   0.00000  Uiso   1.00
C915   C     0.54017   0.83403   0.59323   0.00000  Uiso   1.00
C916   C     0.41089   0.81216   0.93230   0.00000  Uiso   1.00
C917   C     0.39636   0.80684   0.98587   0.00000  Uiso   1.00
C918   C     0.43005   0.81071   0.51381   0.00000  Uiso   1.00
C919   C     0.48041   0.81575   0.98795   0.00000  Uiso   1.00
C920   C     0.49595   0.81270   0.93306   0.00000  Uiso   1.00
C921   C     0.51614   0.82317   0.51434   0.00000  Uiso   1.00
C922   C     0.56597   0.82743   0.98532   0.00000  Uiso   1.00
C923   C     0.58075   0.81715   0.93300   0.00000  Uiso   1.00
C924   C     0.54624   0.80551   0.90867   0.00000  Uiso   1.00
C925   C     0.50414   0.82681   0.56842   0.00000  Uiso   1.00
C926   C     0.58858   0.84091   0.56368   0.00000  Uiso   1.00
C927   C     0.46058   0.81677   0.90526   0.00000  Uiso   1.00
H928   H     0.46703   0.82323   0.59231   0.00000  Uiso   1.00
H929   H     0.38318   0.81254   0.91206   0.00000  Uiso   1.00
H930   H     0.41539   0.80881   0.55540   0.00000  Uiso   1.00
H931   H     0.35849   0.80102   0.50644   0.00000  Uiso   1.00
C932   C     0.54336   0.97865   0.74651   0.00000  Uiso   1.00
H933   H     0.57725   0.96258   0.74385   0.00000  Uiso   1.00
C934   C     0.54343   0.68788   0.74630   0.00000  Uiso   1.00
H935   H     0.57738   0.70384   0.74339   0.00000  Uiso   1.00
C936   C     0.50009   0.70941   0.74972   0.00000  Uiso   1.00
C937   C     0.45672   0.68803   0.75309   0.00000  Uiso   1.00
H938   H     0.42282   0.70410   0.75579   0.00000  Uiso   1.00
C939   C     0.45667   0.97878   0.75317   0.00000  Uiso   1.00
H940   H     0.42276   0.96282   0.75592   0.00000  Uiso   1.00
C941   C     0.49998   0.95726   0.74993   0.00000  Uiso   1.00
C942   C     0.63266   0.85761   0.78362   0.00000  Uiso   1.00
H943   H     0.60660   0.87704   0.81059   0.00000  Uiso   1.00
C944   C     0.34890   0.85752   0.78368   0.00000  Uiso   1.00
H945   H     0.36018   0.87691   0.81066   0.00000  Uiso   1.00
N946   N     0.38265   0.83332   0.74998   0.00000  Uiso   1.00
C947   C     0.36734   0.80907   0.71637   0.00000  Uiso   1.00
C948   C     0.65107   0.80907   0.71639   0.00000  Uiso   1.00
H949   H     0.63974   0.78959   0.68953   0.00000  Uiso   1.00
N950   N     0.61735   0.83335   0.74999   0.00000  Uiso   1.00
H951   H     0.39338   0.78958   0.68946   0.00000  Uiso   1.00
I952   I     0.57056   0.75809   0.85310   0.00000  Uiso   1.00
O953   O     0.79375   0.89345   0.75000   0.00000  Uiso   1.00
O954   O     0.87294   0.89346   0.75000   0.00000  Uiso   1.00
C955   C     0.83331   0.91264   0.75002   0.00000  Uiso   1.00
O956   O     0.77441   0.83332   0.82549   0.00000  Uiso   1.00
O957   O     0.85360   0.83333   0.82549   0.00000  Uiso   1.00
C958   C     0.80781   0.82789   0.84937   0.00000  Uiso   1.00
Cu959  Cu    0.78645   0.83333   0.75000   0.00000  Uiso   1.00
Cu960  Cu    0.88022   0.83334   0.75000   0.00000  Uiso   1.00
O961   O     0.79373   0.77321   0.74999   0.00000  Uiso   1.00
O962   O     0.87292   0.77322   0.74999   0.00000  Uiso   1.00
O963   O     0.81306   0.83334   0.67451   0.00000  Uiso   1.00
O964   O     0.89225   0.83335   0.67451   0.00000  Uiso   1.00
C965   C     0.83340   0.75403   0.74981   0.00000  Uiso   1.00
C966   C     0.85923   0.83407   0.65005   0.00000  Uiso   1.00
C967   C     0.93448   0.83827   0.50983   0.00000  Uiso   1.00
H968   H     0.94997   0.84790   0.58212   0.00000  Uiso   1.00
H969   H     0.95265   0.81375   0.91270   0.00000  Uiso   1.00
H970   H     0.97181   0.84404   0.98710   0.00000  Uiso   1.00
C971   C     0.87350   0.83403   0.59323   0.00000  Uiso   1.00
C972   C     0.74422   0.81216   0.93230   0.00000  Uiso   1.00
C973   C     0.72969   0.80684   0.98587   0.00000  Uiso   1.00
C974   C     0.76338   0.81071   0.51381   0.00000  Uiso   1.00
C975   C     0.81375   0.81575   0.98795   0.00000  Uiso   1.00
C976   C     0.82928   0.81270   0.93306   0.00000  Uiso   1.00
C977   C     0.84947   0.82317   0.51434   0.00000  Uiso   1.00
C978   C     0.89930   0.82743   0.98532   0.00000  Uiso   1.00
C979   C     0.91408   0.81715   0.93300   0.00000  Uiso   1.00
C980   C     0.87957   0.80551   0.90867   0.00000  Uiso   1.00
C981   C     0.83747   0.82681   0.56842   0.00000  Uiso   1.00
C982   C     0.92191   0.84091   0.56368   0.00000  Uiso   1.00
C983   C     0.79392   0.81677   0.90526   0.00000  Uiso   1.00
H984   H     0.80037   0.82323   0.59231   0.00000  Uiso   1.00
H985   H     0.71652   0.81254   0.91206   0.00000  Uiso   1.00
H986   H     0.74873   0.80881   0.55540   0.00000  Uiso   1.00
H987   H     0.69182   0.80102   0.50644   0.00000  Uiso   1.00
C988   C     0.87669   0.97865   0.74651   0.00000  Uiso   1.00
H989   H     0.91059   0.96258   0.74385   0.00000  Uiso   1.00
C990   C     0.87676   0.68788   0.74630   0.00000  Uiso   1.00
H991   H     0.91071   0.70384   0.74339   0.00000  Uiso   1.00
C992   C     0.83342   0.70941   0.74972   0.00000  Uiso   1.00
C993   C     0.79006   0.68803   0.75309   0.00000  Uiso   1.00
H994   H     0.75615   0.70410   0.75579   0.00000  Uiso   1.00
C995   C     0.79001   0.97878   0.75317   0.00000  Uiso   1.00
H996   H     0.75609   0.96282   0.75592   0.00000  Uiso   1.00
C997   C     0.83332   0.95726   0.74993   0.00000  Uiso   1.00
C998   C     0.96599   0.85761   0.78362   0.00000  Uiso   1.00
H999   H     0.93993   0.87704   0.81059   0.00000  Uiso   1.00
C1000  C     0.68223   0.85752   0.78368   0.00000  Uiso   1.00
H1001  H     0.69352   0.87691   0.81066   0.00000  Uiso   1.00
N1002  N     0.71598   0.83332   0.74998   0.00000  Uiso   1.00
C1003  C     0.70067   0.80907   0.71637   0.00000  Uiso   1.00
C1004  C     0.98440   0.80907   0.71639   0.00000  Uiso   1.00
H1005  H     0.97308   0.78959   0.68953   0.00000  Uiso   1.00
N1006  N     0.95069   0.83335   0.74999   0.00000  Uiso   1.00
H1007  H     0.72671   0.78958   0.68946   0.00000  Uiso   1.00
I1008  I     0.90389   0.75809   0.85310   0.00000  Uiso   1.00
loop_
_geom_bond_atom_site_label_1
_geom_bond_atom_site_label_2
_geom_bond_distance
_geom_bond_site_symmetry_2
_ccdc_geom_bond_type
O1     C3      1.292   .     A
O1     Cu7     1.965   .     S
O2     C3      1.291   .     A
O2     Cu8     1.964   .     S
C3     C45     1.450   .     S
O4     Cu7     1.960   .     S
O4     C6      1.307   .     A
O5     Cu8     1.952   .     S
O5     C6      1.292   .     A
C6     C31     1.483   .     S
Cu7    O11     1.952   .     S
Cu7    Cu8     2.679   .     S
Cu7    O9      1.964   .     S
Cu7    N50     2.013   .     S
Cu8    O10     1.965   .     S
Cu8    O12     1.960   .     S
Cu8    N54     2.013   .     S
O9     C13     1.291   .     A
O10    C13     1.292   .     A
O11    C14     1.292   .     A
O12    C14     1.298   .     A
C13    C40     1.450   .     S
C14    C19     1.464   .     S
C15    C30     1.391   .     A
C15    H522    1.081   1_554 S
C15    C530    1.399   1_554 S
H16    C30     1.083   .     S
H17    C27     1.084   .     S
H18    C519    1.081   .     S
C19    C30     1.399   .     A
C19    C29     1.401   .     A
C20    H33     1.083   .     S
C20    C21     1.390   .     A
C20    C31     1.403   .     A
C21    C526    1.389   .     S
C21    H539    1.079   .     S
C22    H34     1.077   .     S
C22    C525    1.389   1_554 S
C22    C527    1.415   1_554 S
C23    C24     1.418   .     A
C23    C526    1.415   .     S
C23    C529    1.424   .     S
C24    C31     1.426   .     A
C24    C28     1.415   .     A
C25    C29     1.401   .     A
C25    C527    1.424   1_554 S
C25    C530    1.418   1_554 S
C26    C27     1.390   .     A
C26    C519    1.399   .     S
C26    C529    1.418   .     S
C27    C28     1.387   .     A
C28    I56     2.125   .     S
C29    H32     1.075   .     S
H35    C525    1.079   1_554 S
C36    C45     1.401   .     A
C36    H37     1.083   .     S
C36    C206    1.383   .     S
C38    C40     1.401   .     A
C38    H39     1.083   .     S
C38    C372    1.383   1_545 S
C40    C41     1.401   .     A
C41    H42     1.083   .     S
C41    C379    1.384   1_545 S
C43    C45     1.401   .     A
C43    H44     1.083   .     S
C43    C209    1.384   .     S
C46    N54     1.367   .     A
C46    H47     1.082   .     S
C46    C104    1.417   .     S
C48    H49     1.082   .     S
C48    N50     1.367   .     A
C48    C158    1.417   1_455 S
N50    C51     1.367   .     A
C51    H55     1.082   .     S
C51    C164    1.417   1_455 S
C52    H53     1.082   .     S
C52    N54     1.367   .     A
C52    C107    1.417   .     S
O57    C59     1.292   .     A
O57    Cu63    1.965   .     S
O58    C59     1.291   .     A
O58    Cu64    1.964   .     S
C59    C101    1.450   .     S
O60    Cu63    1.960   .     S
O60    C62     1.307   .     A
O61    Cu64    1.952   .     S
O61    C62     1.292   .     A
C62    C87     1.483   .     S
Cu63   O67     1.952   .     S
Cu63   Cu64    2.679   .     S
Cu63   O65     1.964   .     S
Cu63   N106    2.013   .     S
Cu64   O66     1.965   .     S
Cu64   O68     1.960   .     S
Cu64   N110    2.013   .     S
O65    C69     1.291   .     A
O66    C69     1.292   .     A
O67    C70     1.292   .     A
O68    C70     1.298   .     A
C69    C96     1.450   .     S
C70    C75     1.464   .     S
C71    C86     1.391   .     A
C71    H578    1.081   1_554 S
C71    C586    1.399   1_554 S
H72    C86     1.083   .     S
H73    C83     1.084   .     S
H74    C575    1.081   .     S
C75    C86     1.399   .     A
C75    C85     1.401   .     A
C76    H89     1.083   .     S
C76    C77     1.390   .     A
C76    C87     1.403   .     A
C77    C582    1.389   .     S
C77    H595    1.079   .     S
C78    H90     1.077   .     S
C78    C581    1.389   1_554 S
C78    C583    1.415   1_554 S
C79    C80     1.418   .     A
C79    C582    1.415   .     S
C79    C585    1.424   .     S
C80    C87     1.426   .     A
C80    C84     1.415   .     A
C81    C85     1.401   .     A
C81    C583    1.424   1_554 S
C81    C586    1.418   1_554 S
C82    C83     1.390   .     A
C82    C575    1.399   .     S
C82    C585    1.418   .     S
C83    C84     1.387   .     A
C84    I112    2.125   .     S
C85    H88     1.075   .     S
H91    C581    1.079   1_554 S
C92    C101    1.401   .     A
C92    H93     1.083   .     S
C92    C262    1.383   .     S
C94    C96     1.401   .     A
C94    H95     1.083   .     S
C94    C428    1.383   1_545 S
C96    C97     1.401   .     A
C97    H98     1.083   .     S
C97    C435    1.384   1_545 S
C99    C101    1.401   .     A
C99    H100    1.083   .     S
C99    C265    1.384   .     S
C102   N110    1.367   .     A
C102   H103    1.082   .     S
C102   C160    1.417   .     S
C104   H105    1.082   .     S
C104   N106    1.367   .     A
N106   C107    1.367   .     A
C107   H111    1.082   .     S
C108   H109    1.082   .     S
C108   N110    1.367   .     A
C108   C163    1.417   .     S
O113   C115    1.292   .     A
O113   Cu119   1.965   .     S
O114   C115    1.291   .     A
O114   Cu120   1.964   .     S
C115   C157    1.450   .     S
O116   Cu119   1.960   .     S
O116   C118    1.307   .     A
O117   Cu120   1.952   .     S
O117   C118    1.292   .     A
C118   C143    1.483   .     S
Cu119  O123    1.952   .     S
Cu119  Cu120   2.679   .     S
Cu119  O121    1.964   .     S
Cu119  N162    2.013   .     S
Cu120  O122    1.965   .     S
Cu120  O124    1.960   .     S
Cu120  N166    2.013   .     S
O121   C125    1.291   .     A
O122   C125    1.292   .     A
O123   C126    1.292   .     A
O124   C126    1.298   .     A
C125   C152    1.450   .     S
C126   C131    1.464   .     S
C127   C142    1.391   .     A
C127   H634    1.081   1_554 S
C127   C642    1.399   1_554 S
H128   C142    1.083   .     S
H129   C139    1.084   .     S
H130   C631    1.081   .     S
C131   C142    1.399   .     A
C131   C141    1.401   .     A
C132   H145    1.083   .     S
C132   C133    1.390   .     A
C132   C143    1.403   .     A
C133   C638    1.389   .     S
C133   H651    1.079   .     S
C134   H146    1.077   .     S
C134   C637    1.389   1_554 S
C134   C639    1.415   1_554 S
C135   C136    1.418   .     A
C135   C638    1.415   .     S
C135   C641    1.424   .     S
C136   C143    1.426   .     A
C136   C140    1.415   .     A
C137   C141    1.401   .     A
C137   C639    1.424   1_554 S
C137   C642    1.418   1_554 S
C138   C139    1.390   .     A
C138   C631    1.399   .     S
C138   C641    1.418   .     S
C139   C140    1.387   .     A
C140   I168    2.125   .     S
C141   H144    1.075   .     S
H147   C637    1.079   1_554 S
C148   C157    1.401   .     A
C148   H149    1.083   .     S
C148   C318    1.383   .     S
C150   C152    1.401   .     A
C150   H151    1.083   .     S
C150   C484    1.383   1_545 S
C152   C153    1.401   .     A
C153   H154    1.083   .     S
C153   C491    1.384   1_545 S
C155   C157    1.401   .     A
C155   H156    1.083   .     S
C155   C321    1.384   .     S
C158   N166    1.367   .     A
C158   H159    1.082   .     S
C158   C48     1.417   1_655 S
C160   H161    1.082   .     S
C160   N162    1.367   .     A
N162   C163    1.367   .     A
C163   H167    1.082   .     S
C164   H165    1.082   .     S
C164   N166    1.367   .     A
C164   C51     1.417   1_655 S
O169   C171    1.292   .     A
O169   Cu175   1.965   .     S
O170   C171    1.291   .     A
O170   Cu176   1.964   .     S
C171   C213    1.450   .     S
O172   Cu175   1.960   .     S
O172   C174    1.307   .     A
O173   Cu176   1.952   .     S
O173   C174    1.292   .     A
C174   C199    1.483   .     S
Cu175  O179    1.952   .     S
Cu175  Cu176   2.679   .     S
Cu175  O177    1.964   .     S
Cu175  N218    2.013   .     S
Cu176  O178    1.965   .     S
Cu176  O180    1.960   .     S
Cu176  N222    2.013   .     S
O177   C181    1.291   .     A
O178   C181    1.292   .     A
O179   C182    1.292   .     A
O180   C182    1.298   .     A
C181   C208    1.450   .     S
C182   C187    1.464   .     S
C183   C198    1.391   .     A
C183   H690    1.081   1_554 S
C183   C698    1.399   1_554 S
H184   C198    1.083   .     S
H185   C195    1.084   .     S
H186   C687    1.081   .     S
C187   C198    1.399   .     A
C187   C197    1.401   .     A
C188   H201    1.083   .     S
C188   C189    1.390   .     A
C188   C199    1.403   .     A
C189   C694    1.389   .     S
C189   H707    1.079   .     S
C190   H202    1.077   .     S
C190   C693    1.389   1_554 S
C190   C695    1.415   1_554 S
C191   C192    1.418   .     A
C191   C694    1.415   .     S
C191   C697    1.424   .     S
C192   C199    1.426   .     A
C192   C196    1.415   .     A
C193   C197    1.401   .     A
C193   C695    1.424   1_554 S
C193   C698    1.418   1_554 S
C194   C195    1.390   .     A
C194   C687    1.399   .     S
C194   C697    1.418   .     S
C195   C196    1.387   .     A
C196   I224    2.125   .     S
C197   H200    1.075   .     S
H203   C693    1.079   1_554 S
C204   C213    1.401   .     A
C204   H205    1.083   .     S
C204   C374    1.383   .     S
C206   C208    1.401   .     A
C206   H207    1.083   .     S
C208   C209    1.401   .     A
C209   H210    1.083   .     S
C211   C213    1.401   .     A
C211   H212    1.083   .     S
C211   C377    1.384   .     S
C214   N222    1.367   .     A
C214   H215    1.082   .     S
C214   C272    1.417   .     S
C216   H217    1.082   .     S
C216   N218    1.367   .     A
C216   C326    1.417   1_455 S
N218   C219    1.367   .     A
C219   H223    1.082   .     S
C219   C332    1.417   1_455 S
C220   H221    1.082   .     S
C220   N222    1.367   .     A
C220   C275    1.417   .     S
O225   C227    1.292   .     A
O225   Cu231   1.965   .     S
O226   C227    1.291   .     A
O226   Cu232   1.964   .     S
C227   C269    1.450   .     S
O228   Cu231   1.960   .     S
O228   C230    1.307   .     A
O229   Cu232   1.952   .     S
O229   C230    1.292   .     A
C230   C255    1.483   .     S
Cu231  O235    1.952   .     S
Cu231  Cu232   2.679   .     S
Cu231  O233    1.964   .     S
Cu231  N274    2.013   .     S
Cu232  O234    1.965   .     S
Cu232  O236    1.960   .     S
Cu232  N278    2.013   .     S
O233   C237    1.291   .     A
O234   C237    1.292   .     A
O235   C238    1.292   .     A
O236   C238    1.298   .     A
C237   C264    1.450   .     S
C238   C243    1.464   .     S
C239   C254    1.391   .     A
C239   H746    1.081   1_554 S
C239   C754    1.399   1_554 S
H240   C254    1.083   .     S
H241   C251    1.084   .     S
H242   C743    1.081   .     S
C243   C254    1.399   .     A
C243   C253    1.401   .     A
C244   H257    1.083   .     S
C244   C245    1.390   .     A
C244   C255    1.403   .     A
C245   C750    1.389   .     S
C245   H763    1.079   .     S
C246   H258    1.077   .     S
C246   C749    1.389   1_554 S
C246   C751    1.415   1_554 S
C247   C248    1.418   .     A
C247   C750    1.415   .     S
C247   C753    1.424   .     S
C248   C255    1.426   .     A
C248   C252    1.415   .     A
C249   C253    1.401   .     A
C249   C751    1.424   1_554 S
C249   C754    1.418   1_554 S
C250   C251    1.390   .     A
C250   C743    1.399   .     S
C250   C753    1.418   .     S
C251   C252    1.387   .     A
C252   I280    2.125   .     S
C253   H256    1.075   .     S
H259   C749    1.079   1_554 S
C260   C269    1.401   .     A
C260   H261    1.083   .     S
C260   C430    1.383   .     S
C262   C264    1.401   .     A
C262   H263    1.083   .     S
C264   C265    1.401   .     A
C265   H266    1.083   .     S
C267   C269    1.401   .     A
C267   H268    1.083   .     S
C267   C433    1.384   .     S
C270   N278    1.367   .     A
C270   H271    1.082   .     S
C270   C328    1.417   .     S
C272   H273    1.082   .     S
C272   N274    1.367   .     A
N274   C275    1.367   .     A
C275   H279    1.082   .     S
C276   H277    1.082   .     S
C276   N278    1.367   .     A
C276   C331    1.417   .     S
O281   C283    1.292   .     A
O281   Cu287   1.965   .     S
O282   C283    1.291   .     A
O282   Cu288   1.964   .     S
C283   C325    1.450   .     S
O284   Cu287   1.960   .     S
O284   C286    1.307   .     A
O285   Cu288   1.952   .     S
O285   C286    1.292   .     A
C286   C311    1.483   .     S
Cu287  O291    1.952   .     S
Cu287  Cu288   2.679   .     S
Cu287  O289    1.964   .     S
Cu287  N330    2.013   .     S
Cu288  O290    1.965   .     S
Cu288  O292    1.960   .     S
Cu288  N334    2.013   .     S
O289   C293    1.291   .     A
O290   C293    1.292   .     A
O291   C294    1.292   .     A
O292   C294    1.298   .     A
C293   C320    1.450   .     S
C294   C299    1.464   .     S
C295   C310    1.391   .     A
C295   H802    1.081   1_554 S
C295   C810    1.399   1_554 S
H296   C310    1.083   .     S
H297   C307    1.084   .     S
H298   C799    1.081   .     S
C299   C310    1.399   .     A
C299   C309    1.401   .     A
C300   H313    1.083   .     S
C300   C301    1.390   .     A
C300   C311    1.403   .     A
C301   C806    1.389   .     S
C301   H819    1.079   .     S
C302   H314    1.077   .     S
C302   C805    1.389   1_554 S
C302   C807    1.415   1_554 S
C303   C304    1.418   .     A
C303   C806    1.415   .     S
C303   C809    1.424   .     S
C304   C311    1.426   .     A
C304   C308    1.415   .     A
C305   C309    1.401   .     A
C305   C807    1.424   1_554 S
C305   C810    1.418   1_554 S
C306   C307    1.390   .     A
C306   C799    1.399   .     S
C306   C809    1.418   .     S
C307   C308    1.387   .     A
C308   I336    2.125   .     S
C309   H312    1.075   .     S
H315   C805    1.079   1_554 S
C316   C325    1.401   .     A
C316   H317    1.083   .     S
C316   C486    1.383   .     S
C318   C320    1.401   .     A
C318   H319    1.083   .     S
C320   C321    1.401   .     A
C321   H322    1.083   .     S
C323   C325    1.401   .     A
C323   H324    1.083   .     S
C323   C489    1.384   .     S
C326   N334    1.367   .     A
C326   H327    1.082   .     S
C326   C216    1.417   1_655 S
C328   H329    1.082   .     S
C328   N330    1.367   .     A
N330   C331    1.367   .     A
C331   H335    1.082   .     S
C332   H333    1.082   .     S
C332   N334    1.367   .     A
C332   C219    1.417   1_655 S
O337   C339    1.292   .     A
O337   Cu343   1.965   .     S
O338   C339    1.291   .     A
O338   Cu344   1.964   .     S
C339   C381    1.450   .     S
O340   Cu343   1.960   .     S
O340   C342    1.307   .     A
O341   Cu344   1.952   .     S
O341   C342    1.292   .     A
C342   C367    1.483   .     S
Cu343  O347    1.952   .     S
Cu343  Cu344   2.679   .     S
Cu343  O345    1.964   .     S
Cu343  N386    2.013   .     S
Cu344  O346    1.965   .     S
Cu344  O348    1.960   .     S
Cu344  N390    2.013   .     S
O345   C349    1.291   .     A
O346   C349    1.292   .     A
O347   C350    1.292   .     A
O348   C350    1.298   .     A
C349   C376    1.450   .     S
C350   C355    1.464   .     S
C351   C366    1.391   .     A
C351   H858    1.081   1_554 S
C351   C866    1.399   1_554 S
H352   C366    1.083   .     S
H353   C363    1.084   .     S
H354   C855    1.081   .     S
C355   C366    1.399   .     A
C355   C365    1.401   .     A
C356   H369    1.083   .     S
C356   C357    1.390   .     A
C356   C367    1.403   .     A
C357   C862    1.389   .     S
C357   H875    1.079   .     S
C358   H370    1.077   .     S
C358   C861    1.389   1_554 S
C358   C863    1.415   1_554 S
C359   C360    1.418   .     A
C359   C862    1.415   .     S
C359   C865    1.424   .     S
C360   C367    1.426   .     A
C360   C364    1.415   .     A
C361   C365    1.401   .     A
C361   C863    1.424   1_554 S
C361   C866    1.418   1_554 S
C362   C363    1.390   .     A
C362   C855    1.399   .     S
C362   C865    1.418   .     S
C363   C364    1.387   .     A
C364   I392    2.125   .     S
C365   H368    1.075   .     S
H371   C861    1.079   1_554 S
C372   C381    1.401   .     A
C372   H373    1.083   .     S
C372   C38     1.383   1_565 S
C374   C376    1.401   .     A
C374   H375    1.083   .     S
C376   C377    1.401   .     A
C377   H378    1.083   .     S
C379   C381    1.401   .     A
C379   H380    1.083   .     S
C379   C41     1.384   1_565 S
C382   N390    1.367   .     A
C382   H383    1.082   .     S
C382   C440    1.417   .     S
C384   H385    1.082   .     S
C384   N386    1.367   .     A
C384   C494    1.417   1_455 S
N386   C387    1.367   .     A
C387   H391    1.082   .     S
C387   C500    1.417   1_455 S
C388   H389    1.082   .     S
C388   N390    1.367   .     A
C388   C443    1.417   .     S
O393   C395    1.292   .     A
O393   Cu399   1.965   .     S
O394   C395    1.291   .     A
O394   Cu400   1.964   .     S
C395   C437    1.450   .     S
O396   Cu399   1.960   .     S
O396   C398    1.307   .     A
O397   Cu400   1.952   .     S
O397   C398    1.292   .     A
C398   C423    1.483   .     S
Cu399  O403    1.952   .     S
Cu399  Cu400   2.679   .     S
Cu399  O401    1.964   .     S
Cu399  N442    2.013   .     S
Cu400  O402    1.965   .     S
Cu400  O404    1.960   .     S
Cu400  N446    2.013   .     S
O401   C405    1.291   .     A
O402   C405    1.292   .     A
O403   C406    1.292   .     A
O404   C406    1.298   .     A
C405   C432    1.450   .     S
C406   C411    1.464   .     S
C407   C422    1.391   .     A
C407   H914    1.081   1_554 S
C407   C922    1.399   1_554 S
H408   C422    1.083   .     S
H409   C419    1.084   .     S
H410   C911    1.081   .     S
C411   C422    1.399   .     A
C411   C421    1.401   .     A
C412   H425    1.083   .     S
C412   C413    1.390   .     A
C412   C423    1.403   .     A
C413   C918    1.389   .     S
C413   H931    1.079   .     S
C414   H426    1.077   .     S
C414   C917    1.389   1_554 S
C414   C919    1.415   1_554 S
C415   C416    1.418   .     A
C415   C918    1.415   .     S
C415   C921    1.424   .     S
C416   C423    1.426   .     A
C416   C420    1.415   .     A
C417   C421    1.401   .     A
C417   C919    1.424   1_554 S
C417   C922    1.418   1_554 S
C418   C419    1.390   .     A
C418   C911    1.399   .     S
C418   C921    1.418   .     S
C419   C420    1.387   .     A
C420   I448    2.125   .     S
C421   H424    1.075   .     S
H427   C917    1.079   1_554 S
C428   C437    1.401   .     A
C428   H429    1.083   .     S
C428   C94     1.383   1_565 S
C430   C432    1.401   .     A
C430   H431    1.083   .     S
C432   C433    1.401   .     A
C433   H434    1.083   .     S
C435   C437    1.401   .     A
C435   H436    1.083   .     S
C435   C97     1.384   1_565 S
C438   N446    1.367   .     A
C438   H439    1.082   .     S
C438   C496    1.417   .     S
C440   H441    1.082   .     S
C440   N442    1.367   .     A
N442   C443    1.367   .     A
C443   H447    1.082   .     S
C444   H445    1.082   .     S
C444   N446    1.367   .     A
C444   C499    1.417   .     S
O449   C451    1.292   .     A
O449   Cu455   1.965   .     S
O450   C451    1.291   .     A
O450   Cu456   1.964   .     S
C451   C493    1.450   .     S
O452   Cu455   1.960   .     S
O452   C454    1.307   .     A
O453   Cu456   1.952   .     S
O453   C454    1.292   .     A
C454   C479    1.483   .     S
Cu455  O459    1.952   .     S
Cu455  Cu456   2.679   .     S
Cu455  O457    1.964   .     S
Cu455  N498    2.013   .     S
Cu456  O458    1.965   .     S
Cu456  O460    1.960   .     S
Cu456  N502    2.013   .     S
O457   C461    1.291   .     A
O458   C461    1.292   .     A
O459   C462    1.292   .     A
O460   C462    1.298   .     A
C461   C488    1.450   .     S
C462   C467    1.464   .     S
C463   C478    1.391   .     A
C463   H970    1.081   1_554 S
C463   C978    1.399   1_554 S
H464   C478    1.083   .     S
H465   C475    1.084   .     S
H466   C967    1.081   .     S
C467   C478    1.399   .     A
C467   C477    1.401   .     A
C468   H481    1.083   .     S
C468   C469    1.390   .     A
C468   C479    1.403   .     A
C469   C974    1.389   .     S
C469   H987    1.079   .     S
C470   H482    1.077   .     S
C470   C973    1.389   1_554 S
C470   C975    1.415   1_554 S
C471   C472    1.418   .     A
C471   C974    1.415   .     S
C471   C977    1.424   .     S
C472   C479    1.426   .     A
C472   C476    1.415   .     A
C473   C477    1.401   .     A
C473   C975    1.424   1_554 S
C473   C978    1.418   1_554 S
C474   C475    1.390   .     A
C474   C967    1.399   .     S
C474   C977    1.418   .     S
C475   C476    1.387   .     A
C476   I504    2.125   .     S
C477   H480    1.075   .     S
H483   C973    1.079   1_554 S
C484   C493    1.401   .     A
C484   H485    1.083   .     S
C484   C150    1.383   1_565 S
C486   C488    1.401   .     A
C486   H487    1.083   .     S
C488   C489    1.401   .     A
C489   H490    1.083   .     S
C491   C493    1.401   .     A
C491   H492    1.083   .     S
C491   C153    1.384   1_565 S
C494   N502    1.367   .     A
C494   H495    1.082   .     S
C494   C384    1.417   1_655 S
C496   H497    1.082   .     S
C496   N498    1.367   .     A
N498   C499    1.367   .     A
C499   H503    1.082   .     S
C500   H501    1.082   .     S
C500   N502    1.367   .     A
C500   C387    1.417   1_655 S
O505   C507    1.292   .     A
O505   Cu511   1.965   .     S
O506   C507    1.291   .     A
O506   Cu512   1.964   .     S
C507   C549    1.450   .     S
O508   Cu511   1.960   .     S
O508   C510    1.307   .     A
O509   Cu512   1.952   .     S
O509   C510    1.292   .     A
C510   C535    1.483   .     S
Cu511  O515    1.952   .     S
Cu511  Cu512   2.679   .     S
Cu511  O513    1.964   .     S
Cu511  N554    2.013   .     S
Cu512  O514    1.965   .     S
Cu512  O516    1.960   .     S
Cu512  N558    2.013   .     S
O513   C517    1.291   .     A
O514   C517    1.292   .     A
O515   C518    1.292   .     A
O516   C518    1.298   .     A
C517   C544    1.450   .     S
C518   C523    1.464   .     S
C519   C534    1.391   .     A
H520   C534    1.083   .     S
H521   C531    1.084   .     S
H522   C15     1.081   1_556 S
C523   C534    1.399   .     A
C523   C533    1.401   .     A
C524   H537    1.083   .     S
C524   C525    1.390   .     A
C524   C535    1.403   .     A
C525   C22     1.389   1_556 S
C525   H35     1.079   1_556 S
C526   H538    1.077   .     S
C527   C528    1.418   .     A
C527   C22     1.415   1_556 S
C527   C25     1.424   1_556 S
C528   C535    1.426   .     A
C528   C532    1.415   .     A
C529   C533    1.401   .     A
C530   C531    1.390   .     A
C530   C15     1.399   1_556 S
C530   C25     1.418   1_556 S
C531   C532    1.387   .     A
C532   I560    2.125   .     S
C533   H536    1.075   .     S
C540   C549    1.401   .     A
C540   H541    1.083   .     S
C540   C710    1.383   .     S
C542   C544    1.401   .     A
C542   H543    1.083   .     S
C542   C876    1.383   1_545 S
C544   C545    1.401   .     A
C545   H546    1.083   .     S
C545   C883    1.384   1_545 S
C547   C549    1.401   .     A
C547   H548    1.083   .     S
C547   C713    1.384   .     S
C550   N558    1.367   .     A
C550   H551    1.082   .     S
C550   C608    1.417   .     S
C552   H553    1.082   .     S
C552   N554    1.367   .     A
C552   C662    1.417   1_455 S
N554   C555    1.367   .     A
C555   H559    1.082   .     S
C555   C668    1.417   1_455 S
C556   H557    1.082   .     S
C556   N558    1.367   .     A
C556   C611    1.417   .     S
O561   C563    1.292   .     A
O561   Cu567   1.965   .     S
O562   C563    1.291   .     A
O562   Cu568   1.964   .     S
C563   C605    1.450   .     S
O564   Cu567   1.960   .     S
O564   C566    1.307   .     A
O565   Cu568   1.952   .     S
O565   C566    1.292   .     A
C566   C591    1.483   .     S
Cu567  O571    1.952   .     S
Cu567  Cu568   2.679   .     S
Cu567  O569    1.964   .     S
Cu567  N610    2.013   .     S
Cu568  O570    1.965   .     S
Cu568  O572    1.960   .     S
Cu568  N614    2.013   .     S
O569   C573    1.291   .     A
O570   C573    1.292   .     A
O571   C574    1.292   .     A
O572   C574    1.298   .     A
C573   C600    1.450   .     S
C574   C579    1.464   .     S
C575   C590    1.391   .     A
H576   C590    1.083   .     S
H577   C587    1.084   .     S
H578   C71     1.081   1_556 S
C579   C590    1.399   .     A
C579   C589    1.401   .     A
C580   H593    1.083   .     S
C580   C581    1.390   .     A
C580   C591    1.403   .     A
C581   C78     1.389   1_556 S
C581   H91     1.079   1_556 S
C582   H594    1.077   .     S
C583   C584    1.418   .     A
C583   C78     1.415   1_556 S
C583   C81     1.424   1_556 S
C584   C591    1.426   .     A
C584   C588    1.415   .     A
C585   C589    1.401   .     A
C586   C587    1.390   .     A
C586   C71     1.399   1_556 S
C586   C81     1.418   1_556 S
C587   C588    1.387   .     A
C588   I616    2.125   .     S
C589   H592    1.075   .     S
C596   C605    1.401   .     A
C596   H597    1.083   .     S
C596   C766    1.383   .     S
C598   C600    1.401   .     A
C598   H599    1.083   .     S
C598   C932    1.383   1_545 S
C600   C601    1.401   .     A
C601   H602    1.083   .     S
C601   C939    1.384   1_545 S
C603   C605    1.401   .     A
C603   H604    1.083   .     S
C603   C769    1.384   .     S
C606   N614    1.367   .     A
C606   H607    1.082   .     S
C606   C664    1.417   .     S
C608   H609    1.082   .     S
C608   N610    1.367   .     A
N610   C611    1.367   .     A
C611   H615    1.082   .     S
C612   H613    1.082   .     S
C612   N614    1.367   .     A
C612   C667    1.417   .     S
O617   C619    1.292   .     A
O617   Cu623   1.965   .     S
O618   C619    1.291   .     A
O618   Cu624   1.964   .     S
C619   C661    1.450   .     S
O620   Cu623   1.960   .     S
O620   C622    1.307   .     A
O621   Cu624   1.952   .     S
O621   C622    1.292   .     A
C622   C647    1.483   .     S
Cu623  O627    1.952   .     S
Cu623  Cu624   2.679   .     S
Cu623  O625    1.964   .     S
Cu623  N666    2.013   .     S
Cu624  O626    1.965   .     S
Cu624  O628    1.960   .     S
Cu624  N670    2.013   .     S
O625   C629    1.291   .     A
O626   C629    1.292   .     A
O627   C630    1.292   .     A
O628   C630    1.298   .     A
C629   C656    1.450   .     S
C630   C635    1.464   .     S
C631   C646    1.391   .     A
H632   C646    1.083   .     S
H633   C643    1.084   .     S
H634   C127    1.081   1_556 S
C635   C646    1.399   .     A
C635   C645    1.401   .     A
C636   H649    1.083   .     S
C636   C637    1.390   .     A
C636   C647    1.403   .     A
C637   C134    1.389   1_556 S
C637   H147    1.079   1_556 S
C638   H650    1.077   .     S
C639   C640    1.418   .     A
C639   C134    1.415   1_556 S
C639   C137    1.424   1_556 S
C640   C647    1.426   .     A
C640   C644    1.415   .     A
C641   C645    1.401   .     A
C642   C643    1.390   .     A
C642   C127    1.399   1_556 S
C642   C137    1.418   1_556 S
C643   C644    1.387   .     A
C644   I672    2.125   .     S
C645   H648    1.075   .     S
C652   C661    1.401   .     A
C652   H653    1.083   .     S
C652   C822    1.383   .     S
C654   C656    1.401   .     A
C654   H655    1.083   .     S
C654   C988    1.383   1_545 S
C656   C657    1.401   .     A
C657   H658    1.083   .     S
C657   C995    1.384   1_545 S
C659   C661    1.401   .     A
C659   H660    1.083   .     S
C659   C825    1.384   .     S
C662   N670    1.367   .     A
C662   H663    1.082   .     S
C662   C552    1.417   1_655 S
C664   H665    1.082   .     S
C664   N666    1.367   .     A
N666   C667    1.367   .     A
C667   H671    1.082   .     S
C668   H669    1.082   .     S
C668   N670    1.367   .     A
C668   C555    1.417   1_655 S
O673   C675    1.292   .     A
O673   Cu679   1.965   .     S
O674   C675    1.291   .     A
O674   Cu680   1.964   .     S
C675   C717    1.450   .     S
O676   Cu679   1.960   .     S
O676   C678    1.307   .     A
O677   Cu680   1.952   .     S
O677   C678    1.292   .     A
C678   C703    1.483   .     S
Cu679  O683    1.952   .     S
Cu679  Cu680   2.679   .     S
Cu679  O681    1.964   .     S
Cu679  N722    2.013   .     S
Cu680  O682    1.965   .     S
Cu680  O684    1.960   .     S
Cu680  N726    2.013   .     S
O681   C685    1.291   .     A
O682   C685    1.292   .     A
O683   C686    1.292   .     A
O684   C686    1.298   .     A
C685   C712    1.450   .     S
C686   C691    1.464   .     S
C687   C702    1.391   .     A
H688   C702    1.083   .     S
H689   C699    1.084   .     S
H690   C183    1.081   1_556 S
C691   C702    1.399   .     A
C691   C701    1.401   .     A
C692   H705    1.083   .     S
C692   C693    1.390   .     A
C692   C703    1.403   .     A
C693   C190    1.389   1_556 S
C693   H203    1.079   1_556 S
C694   H706    1.077   .     S
C695   C696    1.418   .     A
C695   C190    1.415   1_556 S
C695   C193    1.424   1_556 S
C696   C703    1.426   .     A
C696   C700    1.415   .     A
C697   C701    1.401   .     A
C698   C699    1.390   .     A
C698   C183    1.399   1_556 S
C698   C193    1.418   1_556 S
C699   C700    1.387   .     A
C700   I728    2.125   .     S
C701   H704    1.075   .     S
C708   C717    1.401   .     A
C708   H709    1.083   .     S
C708   C878    1.383   .     S
C710   C712    1.401   .     A
C710   H711    1.083   .     S
C712   C713    1.401   .     A
C713   H714    1.083   .     S
C715   C717    1.401   .     A
C715   H716    1.083   .     S
C715   C881    1.384   .     S
C718   N726    1.367   .     A
C718   H719    1.082   .     S
C718   C776    1.417   .     S
C720   H721    1.082   .     S
C720   N722    1.367   .     A
C720   C830    1.417   1_455 S
N722   C723    1.367   .     A
C723   H727    1.082   .     S
C723   C836    1.417   1_455 S
C724   H725    1.082   .     S
C724   N726    1.367   .     A
C724   C779    1.417   .     S
O729   C731    1.292   .     A
O729   Cu735   1.965   .     S
O730   C731    1.291   .     A
O730   Cu736   1.964   .     S
C731   C773    1.450   .     S
O732   Cu735   1.960   .     S
O732   C734    1.307   .     A
O733   Cu736   1.952   .     S
O733   C734    1.292   .     A
C734   C759    1.483   .     S
Cu735  O739    1.952   .     S
Cu735  Cu736   2.679   .     S
Cu735  O737    1.964   .     S
Cu735  N778    2.013   .     S
Cu736  O738    1.965   .     S
Cu736  O740    1.960   .     S
Cu736  N782    2.013   .     S
O737   C741    1.291   .     A
O738   C741    1.292   .     A
O739   C742    1.292   .     A
O740   C742    1.298   .     A
C741   C768    1.450   .     S
C742   C747    1.464   .     S
C743   C758    1.391   .     A
H744   C758    1.083   .     S
H745   C755    1.084   .     S
H746   C239    1.081   1_556 S
C747   C758    1.399   .     A
C747   C757    1.401   .     A
C748   H761    1.083   .     S
C748   C749    1.390   .     A
C748   C759    1.403   .     A
C749   C246    1.389   1_556 S
C749   H259    1.079   1_556 S
C750   H762    1.077   .     S
C751   C752    1.418   .     A
C751   C246    1.415   1_556 S
C751   C249    1.424   1_556 S
C752   C759    1.426   .     A
C752   C756    1.415   .     A
C753   C757    1.401   .     A
C754   C755    1.390   .     A
C754   C239    1.399   1_556 S
C754   C249    1.418   1_556 S
C755   C756    1.387   .     A
C756   I784    2.125   .     S
C757   H760    1.075   .     S
C764   C773    1.401   .     A
C764   H765    1.083   .     S
C764   C934    1.383   .     S
C766   C768    1.401   .     A
C766   H767    1.083   .     S
C768   C769    1.401   .     A
C769   H770    1.083   .     S
C771   C773    1.401   .     A
C771   H772    1.083   .     S
C771   C937    1.384   .     S
C774   N782    1.367   .     A
C774   H775    1.082   .     S
C774   C832    1.417   .     S
C776   H777    1.082   .     S
C776   N778    1.367   .     A
N778   C779    1.367   .     A
C779   H783    1.082   .     S
C780   H781    1.082   .     S
C780   N782    1.367   .     A
C780   C835    1.417   .     S
O785   C787    1.292   .     A
O785   Cu791   1.965   .     S
O786   C787    1.291   .     A
O786   Cu792   1.964   .     S
C787   C829    1.450   .     S
O788   Cu791   1.960   .     S
O788   C790    1.307   .     A
O789   Cu792   1.952   .     S
O789   C790    1.292   .     A
C790   C815    1.483   .     S
Cu791  O795    1.952   .     S
Cu791  Cu792   2.679   .     S
Cu791  O793    1.964   .     S
Cu791  N834    2.013   .     S
Cu792  O794    1.965   .     S
Cu792  O796    1.960   .     S
Cu792  N838    2.013   .     S
O793   C797    1.291   .     A
O794   C797    1.292   .     A
O795   C798    1.292   .     A
O796   C798    1.298   .     A
C797   C824    1.450   .     S
C798   C803    1.464   .     S
C799   C814    1.391   .     A
H800   C814    1.083   .     S
H801   C811    1.084   .     S
H802   C295    1.081   1_556 S
C803   C814    1.399   .     A
C803   C813    1.401   .     A
C804   H817    1.083   .     S
C804   C805    1.390   .     A
C804   C815    1.403   .     A
C805   C302    1.389   1_556 S
C805   H315    1.079   1_556 S
C806   H818    1.077   .     S
C807   C808    1.418   .     A
C807   C302    1.415   1_556 S
C807   C305    1.424   1_556 S
C808   C815    1.426   .     A
C808   C812    1.415   .     A
C809   C813    1.401   .     A
C810   C811    1.390   .     A
C810   C295    1.399   1_556 S
C810   C305    1.418   1_556 S
C811   C812    1.387   .     A
C812   I840    2.125   .     S
C813   H816    1.075   .     S
C820   C829    1.401   .     A
C820   H821    1.083   .     S
C820   C990    1.383   .     S
C822   C824    1.401   .     A
C822   H823    1.083   .     S
C824   C825    1.401   .     A
C825   H826    1.083   .     S
C827   C829    1.401   .     A
C827   H828    1.083   .     S
C827   C993    1.384   .     S
C830   N838    1.367   .     A
C830   H831    1.082   .     S
C830   C720    1.417   1_655 S
C832   H833    1.082   .     S
C832   N834    1.367   .     A
N834   C835    1.367   .     A
C835   H839    1.082   .     S
C836   H837    1.082   .     S
C836   N838    1.367   .     A
C836   C723    1.417   1_655 S
O841   C843    1.292   .     A
O841   Cu847   1.965   .     S
O842   C843    1.291   .     A
O842   Cu848   1.964   .     S
C843   C885    1.450   .     S
O844   Cu847   1.960   .     S
O844   C846    1.307   .     A
O845   Cu848   1.952   .     S
O845   C846    1.292   .     A
C846   C871    1.483   .     S
Cu847  O851    1.952   .     S
Cu847  Cu848   2.679   .     S
Cu847  O849    1.964   .     S
Cu847  N890    2.013   .     S
Cu848  O850    1.965   .     S
Cu848  O852    1.960   .     S
Cu848  N894    2.013   .     S
O849   C853    1.291   .     A
O850   C853    1.292   .     A
O851   C854    1.292   .     A
O852   C854    1.298   .     A
C853   C880    1.450   .     S
C854   C859    1.464   .     S
C855   C870    1.391   .     A
H856   C870    1.083   .     S
H857   C867    1.084   .     S
H858   C351    1.081   1_556 S
C859   C870    1.399   .     A
C859   C869    1.401   .     A
C860   H873    1.083   .     S
C860   C861    1.390   .     A
C860   C871    1.403   .     A
C861   C358    1.389   1_556 S
C861   H371    1.079   1_556 S
C862   H874    1.077   .     S
C863   C864    1.418   .     A
C863   C358    1.415   1_556 S
C863   C361    1.424   1_556 S
C864   C871    1.426   .     A
C864   C868    1.415   .     A
C865   C869    1.401   .     A
C866   C867    1.390   .     A
C866   C351    1.399   1_556 S
C866   C361    1.418   1_556 S
C867   C868    1.387   .     A
C868   I896    2.125   .     S
C869   H872    1.075   .     S
C876   C885    1.401   .     A
C876   H877    1.083   .     S
C876   C542    1.383   1_565 S
C878   C880    1.401   .     A
C878   H879    1.083   .     S
C880   C881    1.401   .     A
C881   H882    1.083   .     S
C883   C885    1.401   .     A
C883   H884    1.083   .     S
C883   C545    1.384   1_565 S
C886   N894    1.367   .     A
C886   H887    1.082   .     S
C886   C944    1.417   .     S
C888   H889    1.082   .     S
C888   N890    1.367   .     A
C888   C998    1.417   1_455 S
N890   C891    1.367   .     A
C891   H895    1.082   .     S
C891   C1004   1.417   1_455 S
C892   H893    1.082   .     S
C892   N894    1.367   .     A
C892   C947    1.417   .     S
O897   C899    1.292   .     A
O897   Cu903   1.965   .     S
O898   C899    1.291   .     A
O898   Cu904   1.964   .     S
C899   C941    1.450   .     S
O900   Cu903   1.960   .     S
O900   C902    1.307   .     A
O901   Cu904   1.952   .     S
O901   C902    1.292   .     A
C902   C927    1.483   .     S
Cu903  O907    1.952   .     S
Cu903  Cu904   2.679   .     S
Cu903  O905    1.964   .     S
Cu903  N946    2.013   .     S
Cu904  O906    1.965   .     S
Cu904  O908    1.960   .     S
Cu904  N950    2.013   .     S
O905   C909    1.291   .     A
O906   C909    1.292   .     A
O907   C910    1.292   .     A
O908   C910    1.298   .     A
C909   C936    1.450   .     S
C910   C915    1.464   .     S
C911   C926    1.391   .     A
H912   C926    1.083   .     S
H913   C923    1.084   .     S
H914   C407    1.081   1_556 S
C915   C926    1.399   .     A
C915   C925    1.401   .     A
C916   H929    1.083   .     S
C916   C917    1.390   .     A
C916   C927    1.403   .     A
C917   C414    1.389   1_556 S
C917   H427    1.079   1_556 S
C918   H930    1.077   .     S
C919   C920    1.418   .     A
C919   C414    1.415   1_556 S
C919   C417    1.424   1_556 S
C920   C927    1.426   .     A
C920   C924    1.415   .     A
C921   C925    1.401   .     A
C922   C923    1.390   .     A
C922   C407    1.399   1_556 S
C922   C417    1.418   1_556 S
C923   C924    1.387   .     A
C924   I952    2.125   .     S
C925   H928    1.075   .     S
C932   C941    1.401   .     A
C932   H933    1.083   .     S
C932   C598    1.383   1_565 S
C934   C936    1.401   .     A
C934   H935    1.083   .     S
C936   C937    1.401   .     A
C937   H938    1.083   .     S
C939   C941    1.401   .     A
C939   H940    1.083   .     S
C939   C601    1.384   1_565 S
C942   N950    1.367   .     A
C942   H943    1.082   .     S
C942   C1000   1.417   .     S
C944   H945    1.082   .     S
C944   N946    1.367   .     A
N946   C947    1.367   .     A
C947   H951    1.082   .     S
C948   H949    1.082   .     S
C948   N950    1.367   .     A
C948   C1003   1.417   .     S
O953   C955    1.292   .     A
O953   Cu959   1.965   .     S
O954   C955    1.291   .     A
O954   Cu960   1.964   .     S
C955   C997    1.450   .     S
O956   Cu959   1.960   .     S
O956   C958    1.307   .     A
O957   Cu960   1.952   .     S
O957   C958    1.292   .     A
C958   C983    1.483   .     S
Cu959  O963    1.952   .     S
Cu959  Cu960   2.679   .     S
Cu959  O961    1.964   .     S
Cu959  N1002   2.013   .     S
Cu960  O962    1.965   .     S
Cu960  O964    1.960   .     S
Cu960  N1006   2.013   .     S
O961   C965    1.291   .     A
O962   C965    1.292   .     A
O963   C966    1.292   .     A
O964   C966    1.298   .     A
C965   C992    1.450   .     S
C966   C971    1.464   .     S
C967   C982    1.391   .     A
H968   C982    1.083   .     S
H969   C979    1.084   .     S
H970   C463    1.081   1_556 S
C971   C982    1.399   .     A
C971   C981    1.401   .     A
C972   H985    1.083   .     S
C972   C973    1.390   .     A
C972   C983    1.403   .     A
C973   C470    1.389   1_556 S
C973   H483    1.079   1_556 S
C974   H986    1.077   .     S
C975   C976    1.418   .     A
C975   C470    1.415   1_556 S
C975   C473    1.424   1_556 S
C976   C983    1.426   .     A
C976   C980    1.415   .     A
C977   C981    1.401   .     A
C978   C979    1.390   .     A
C978   C463    1.399   1_556 S
C978   C473    1.418   1_556 S
C979   C980    1.387   .     A
C980   I1008   2.125   .     S
C981   H984    1.075   .     S
C988   C997    1.401   .     A
C988   H989    1.083   .     S
C988   C654    1.383   1_565 S
C990   C992    1.401   .     A
C990   H991    1.083   .     S
C992   C993    1.401   .     A
C993   H994    1.083   .     S
C995   C997    1.401   .     A
C995   H996    1.083   .     S
C995   C657    1.384   1_565 S
C998   N1006   1.367   .     A
C998   H999    1.082   .     S
C998   C888    1.417   1_655 S
C1000  H1001   1.082   .     S
C1000  N1002   1.367   .     A
N1002  C1003   1.367   .     A
C1003  H1007   1.082   .     S
C1004  H1005   1.082   .     S
C1004  N1006   1.367   .     A
C1004  C891    1.417   1_655 S
