data_str_m3_o1_o16_pcu_sym.29
_audit_creation_date              2020-01-03
_audit_creation_method            'Materials Studio'
_symmetry_space_group_name_H-M    'P1'
_symmetry_Int_Tables_number       1
_symmetry_cell_setting            triclinic
loop_
_symmetry_equiv_pos_as_xyz
  x,y,z
_cell_length_a                    29.4769
_cell_length_b                    32.2412
_cell_length_c                    26.1335
_cell_angle_alpha                 90.5216
_cell_angle_beta                  69.5328
_cell_angle_gamma                 90.7190
loop_
_atom_site_label
_atom_site_type_symbol
_atom_site_fract_x
_atom_site_fract_y
_atom_site_fract_z
_atom_site_U_iso_or_equiv
_atom_site_adp_type
_atom_site_occupancy
C1     C     0.16817   0.24649   0.24530   0.00000  Uiso   1.00
C2     C     0.12021   0.17296   0.41283   0.00000  Uiso   1.00
C3     C     0.20681   0.31222   0.24930   0.00000  Uiso   1.00
C4     C     0.13931   0.16866   0.35272   0.00000  Uiso   1.00
C5     C     0.20563   0.02122   0.25222   0.00000  Uiso   1.00
C6     C     0.16679   0.04207   0.24592   0.00000  Uiso   1.00
C7     C     0.13000   0.02051   0.23355   0.00000  Uiso   1.00
C8     C     0.13457   0.31144   0.22303   0.00000  Uiso   1.00
C9     C     0.17029   0.29046   0.23763   0.00000  Uiso   1.00
C10    C     0.31910   0.14068   0.21618   0.00000  Uiso   1.00
C11    C     0.03471   0.14034   0.21556   0.00000  Uiso   1.00
C12    C     0.14496   0.17352   0.49210   0.00000  Uiso   1.00
C13    C     0.01400   0.19290   0.28337   0.00000  Uiso   1.00
C14    C     0.29951   0.19296   0.28321   0.00000  Uiso   1.00
C15    C     0.16636   0.08645   0.24979   0.00000  Uiso   1.00
C16    C     0.19379   0.16694   0.14751   0.00000  Uiso   1.00
C17    C     0.25790   0.21364   0.00951   0.00000  Uiso   1.00
C18    C     0.21130   0.17342   0.08871   0.00000  Uiso   1.00
C19    C     0.07318   0.15839   0.44554   0.00000  Uiso   1.00
C20    C     0.06347   0.15122   0.00101   0.00000  Uiso   1.00
C21    C     0.09926   0.15695   0.02346   0.00000  Uiso   1.00
C22    C     0.28197   0.25109   0.10086   0.00000  Uiso   1.00
C23    C     0.15216   0.18726   0.43894   0.00000  Uiso   1.00
C24    C     0.05090   0.03500   0.27900   0.00000  Uiso   1.00
C25    C     0.10205   0.29065   0.19537   0.00000  Uiso   1.00
C26    C     0.13163   0.27212   0.13958   0.00000  Uiso   1.00
C27    C     0.09862   0.25163   0.11268   0.00000  Uiso   1.00
C28    C     0.05466   0.08542   0.15134   0.00000  Uiso   1.00
C29    C     0.03130   0.15247   0.42518   0.00000  Uiso   1.00
C30    C     0.02792   0.10779   0.40650   0.00000  Uiso   1.00
C31    C     0.31648   0.10158   0.39052   0.00000  Uiso   1.00
C32    C     0.15745   0.27365   0.39184   0.00000  Uiso   1.00
C33    C     0.18247   0.17938   0.01333   0.00000  Uiso   1.00
C34    C     0.22274   0.20510   0.48586   0.00000  Uiso   1.00
C35    C     0.22577   0.22384   0.43689   0.00000  Uiso   1.00
C36    C     0.18991   0.21642   0.41434   0.00000  Uiso   1.00
C37    C     0.18013   0.16100   0.06215   0.00000  Uiso   1.00
C38    C     0.25150   0.19913   0.06213   0.00000  Uiso   1.00
H39    H     0.23420   0.03743   0.26166   0.00000  Uiso   1.00
H40    H     0.23544   0.29656   0.25832   0.00000  Uiso   1.00
H41    H     0.30480   0.25714   0.12611   0.00000  Uiso   1.00
H42    H     0.24432   0.26007   0.12577   0.00000  Uiso   1.00
H43    H     0.29617   0.27084   0.06392   0.00000  Uiso   1.00
H44    H     0.02131   0.05601   0.27932   0.00000  Uiso   1.00
H45    H     0.06062   0.04239   0.31555   0.00000  Uiso   1.00
H46    H     0.03670   0.00269   0.28188   0.00000  Uiso   1.00
H47    H     0.07096   0.27377   0.11008   0.00000  Uiso   1.00
H48    H     0.12049   0.24179   0.07064   0.00000  Uiso   1.00
H49    H     0.08023   0.22397   0.13634   0.00000  Uiso   1.00
H50    H     0.30708   0.12083   0.18986   0.00000  Uiso   1.00
H51    H     0.15308   0.29718   0.11255   0.00000  Uiso   1.00
H52    H     0.15720   0.24871   0.14385   0.00000  Uiso   1.00
H53    H     0.07721   0.26740   0.22219   0.00000  Uiso   1.00
H54    H     0.07739   0.31339   0.18738   0.00000  Uiso   1.00
H55    H     0.08580   0.06591   0.12770   0.00000  Uiso   1.00
H56    H     0.02688   0.06452   0.17940   0.00000  Uiso   1.00
H57    H     0.04086   0.10005   0.12145   0.00000  Uiso   1.00
H58    H     0.28327   0.11088   0.42463   0.00000  Uiso   1.00
H59    H     0.31981   0.12026   0.35390   0.00000  Uiso   1.00
H60    H     0.31267   0.06837   0.38114   0.00000  Uiso   1.00
H61    H     0.02420   0.21394   0.31007   0.00000  Uiso   1.00
H62    H     0.06086   0.10020   0.37115   0.00000  Uiso   1.00
H63    H     0.02548   0.08615   0.44027   0.00000  Uiso   1.00
H64    H     0.33037   0.15956   0.45904   0.00000  Uiso   1.00
H65    H     0.03267   0.17515   0.39307   0.00000  Uiso   1.00
H66    H     0.16861   0.29317   0.42086   0.00000  Uiso   1.00
H67    H     0.11962   0.26219   0.41175   0.00000  Uiso   1.00
H68    H     0.15780   0.29377   0.35762   0.00000  Uiso   1.00
H69    H     0.27363   0.21423   0.30953   0.00000  Uiso   1.00
H70    H     0.25487   0.24556   0.41707   0.00000  Uiso   1.00
H71    H     0.28916   0.23280   0.48820   0.00000  Uiso   1.00
H72    H     0.15229   0.13848   0.08222   0.00000  Uiso   1.00
H73    H     0.08904   0.15129   0.06658   0.00000  Uiso   1.00
H74    H     0.02803   0.14038   0.02711   0.00000  Uiso   1.00
N75    N     0.04760   0.16668   0.25002   0.00000  Uiso   1.00
N76    N     0.28573   0.16665   0.25001   0.00000  Uiso   1.00
O77    O     0.12846   0.22775   0.25001   0.00000  Uiso   1.00
O78    O     0.09042   0.04118   0.22998   0.00000  Uiso   1.00
O79    O     0.07111   0.11553   0.18056   0.00000  Uiso   1.00
O80    O     0.18984   0.24064   0.37097   0.00000  Uiso   1.00
O81    O     0.20490   0.22774   0.25001   0.00000  Uiso   1.00
O82    O     0.10947   0.16666   0.32681   0.00000  Uiso   1.00
O83    O     0.18591   0.16665   0.32681   0.00000  Uiso   1.00
O84    O     0.12843   0.10559   0.25000   0.00000  Uiso   1.00
O85    O     0.20488   0.10558   0.25000   0.00000  Uiso   1.00
O86    O     0.14742   0.16668   0.17319   0.00000  Uiso   1.00
O87    O     0.22387   0.16667   0.17319   0.00000  Uiso   1.00
O88    O     0.28495   0.20861   0.08685   0.00000  Uiso   1.00
Zn89   Zn    0.11562   0.16667   0.25000   0.00000  Uiso   1.00
Zn90   Zn    0.21771   0.16666   0.25000   0.00000  Uiso   1.00
C91    C     0.50150   0.24649   0.24530   0.00000  Uiso   1.00
C92    C     0.45354   0.17296   0.41283   0.00000  Uiso   1.00
C93    C     0.54014   0.31222   0.24930   0.00000  Uiso   1.00
C94    C     0.47264   0.16866   0.35272   0.00000  Uiso   1.00
C95    C     0.53897   0.02122   0.25222   0.00000  Uiso   1.00
C96    C     0.50012   0.04207   0.24592   0.00000  Uiso   1.00
C97    C     0.46333   0.02051   0.23355   0.00000  Uiso   1.00
C98    C     0.46790   0.31144   0.22303   0.00000  Uiso   1.00
C99    C     0.50362   0.29046   0.23763   0.00000  Uiso   1.00
C100   C     0.65243   0.14068   0.21618   0.00000  Uiso   1.00
C101   C     0.36804   0.14034   0.21556   0.00000  Uiso   1.00
C102   C     0.47829   0.17352   0.49210   0.00000  Uiso   1.00
C103   C     0.34734   0.19290   0.28337   0.00000  Uiso   1.00
C104   C     0.63285   0.19296   0.28321   0.00000  Uiso   1.00
C105   C     0.49969   0.08645   0.24979   0.00000  Uiso   1.00
C106   C     0.52713   0.16694   0.14751   0.00000  Uiso   1.00
C107   C     0.59123   0.21364   0.00951   0.00000  Uiso   1.00
C108   C     0.54463   0.17342   0.08871   0.00000  Uiso   1.00
C109   C     0.40651   0.15839   0.44554   0.00000  Uiso   1.00
C110   C     0.39680   0.15122   0.00101   0.00000  Uiso   1.00
C111   C     0.43260   0.15695   0.02346   0.00000  Uiso   1.00
C112   C     0.61530   0.25109   0.10086   0.00000  Uiso   1.00
C113   C     0.48550   0.18726   0.43894   0.00000  Uiso   1.00
C114   C     0.38423   0.03500   0.27900   0.00000  Uiso   1.00
C115   C     0.43538   0.29065   0.19537   0.00000  Uiso   1.00
C116   C     0.46496   0.27212   0.13958   0.00000  Uiso   1.00
C117   C     0.43196   0.25163   0.11268   0.00000  Uiso   1.00
C118   C     0.38799   0.08542   0.15134   0.00000  Uiso   1.00
C119   C     0.36463   0.15247   0.42518   0.00000  Uiso   1.00
C120   C     0.36125   0.10779   0.40650   0.00000  Uiso   1.00
C121   C     0.64981   0.10158   0.39052   0.00000  Uiso   1.00
C122   C     0.49079   0.27365   0.39184   0.00000  Uiso   1.00
C123   C     0.51580   0.17938   0.01333   0.00000  Uiso   1.00
C124   C     0.55608   0.20510   0.48586   0.00000  Uiso   1.00
C125   C     0.55910   0.22384   0.43689   0.00000  Uiso   1.00
C126   C     0.52325   0.21642   0.41434   0.00000  Uiso   1.00
C127   C     0.51346   0.16100   0.06215   0.00000  Uiso   1.00
C128   C     0.58483   0.19913   0.06213   0.00000  Uiso   1.00
H129   H     0.56753   0.03743   0.26166   0.00000  Uiso   1.00
H130   H     0.56877   0.29656   0.25832   0.00000  Uiso   1.00
H131   H     0.63813   0.25714   0.12611   0.00000  Uiso   1.00
H132   H     0.57765   0.26007   0.12577   0.00000  Uiso   1.00
H133   H     0.62951   0.27084   0.06392   0.00000  Uiso   1.00
H134   H     0.35464   0.05601   0.27932   0.00000  Uiso   1.00
H135   H     0.39395   0.04239   0.31555   0.00000  Uiso   1.00
H136   H     0.37003   0.00269   0.28188   0.00000  Uiso   1.00
H137   H     0.40430   0.27377   0.11008   0.00000  Uiso   1.00
H138   H     0.45382   0.24179   0.07064   0.00000  Uiso   1.00
H139   H     0.41357   0.22397   0.13634   0.00000  Uiso   1.00
H140   H     0.64041   0.12083   0.18986   0.00000  Uiso   1.00
H141   H     0.48641   0.29718   0.11255   0.00000  Uiso   1.00
H142   H     0.49053   0.24871   0.14385   0.00000  Uiso   1.00
H143   H     0.41055   0.26740   0.22219   0.00000  Uiso   1.00
H144   H     0.41072   0.31339   0.18738   0.00000  Uiso   1.00
H145   H     0.41914   0.06591   0.12770   0.00000  Uiso   1.00
H146   H     0.36022   0.06452   0.17940   0.00000  Uiso   1.00
H147   H     0.37419   0.10005   0.12145   0.00000  Uiso   1.00
H148   H     0.61660   0.11088   0.42463   0.00000  Uiso   1.00
H149   H     0.65314   0.12026   0.35390   0.00000  Uiso   1.00
H150   H     0.64601   0.06837   0.38114   0.00000  Uiso   1.00
H151   H     0.35753   0.21394   0.31007   0.00000  Uiso   1.00
H152   H     0.39419   0.10020   0.37115   0.00000  Uiso   1.00
H153   H     0.35881   0.08615   0.44027   0.00000  Uiso   1.00
H154   H     0.66370   0.15956   0.45904   0.00000  Uiso   1.00
H155   H     0.36601   0.17515   0.39307   0.00000  Uiso   1.00
H156   H     0.50194   0.29317   0.42086   0.00000  Uiso   1.00
H157   H     0.45295   0.26219   0.41175   0.00000  Uiso   1.00
H158   H     0.49114   0.29377   0.35762   0.00000  Uiso   1.00
H159   H     0.60697   0.21423   0.30953   0.00000  Uiso   1.00
H160   H     0.58820   0.24556   0.41707   0.00000  Uiso   1.00
H161   H     0.62249   0.23280   0.48820   0.00000  Uiso   1.00
H162   H     0.48563   0.13848   0.08222   0.00000  Uiso   1.00
H163   H     0.42237   0.15129   0.06658   0.00000  Uiso   1.00
H164   H     0.36137   0.14038   0.02711   0.00000  Uiso   1.00
N165   N     0.38093   0.16668   0.25002   0.00000  Uiso   1.00
N166   N     0.61906   0.16665   0.25001   0.00000  Uiso   1.00
O167   O     0.46179   0.22775   0.25001   0.00000  Uiso   1.00
O168   O     0.42376   0.04118   0.22998   0.00000  Uiso   1.00
O169   O     0.40444   0.11553   0.18056   0.00000  Uiso   1.00
O170   O     0.52317   0.24064   0.37097   0.00000  Uiso   1.00
O171   O     0.53823   0.22774   0.25001   0.00000  Uiso   1.00
O172   O     0.44280   0.16666   0.32681   0.00000  Uiso   1.00
O173   O     0.51924   0.16665   0.32681   0.00000  Uiso   1.00
O174   O     0.46177   0.10559   0.25000   0.00000  Uiso   1.00
O175   O     0.53821   0.10558   0.25000   0.00000  Uiso   1.00
O176   O     0.48076   0.16668   0.17319   0.00000  Uiso   1.00
O177   O     0.55720   0.16667   0.17319   0.00000  Uiso   1.00
O178   O     0.61829   0.20861   0.08685   0.00000  Uiso   1.00
Zn179  Zn    0.44896   0.16667   0.25000   0.00000  Uiso   1.00
Zn180  Zn    0.55104   0.16666   0.25000   0.00000  Uiso   1.00
C181   C     0.83483   0.24649   0.24530   0.00000  Uiso   1.00
C182   C     0.78688   0.17296   0.41283   0.00000  Uiso   1.00
C183   C     0.87347   0.31222   0.24930   0.00000  Uiso   1.00
C184   C     0.80597   0.16866   0.35272   0.00000  Uiso   1.00
C185   C     0.87230   0.02122   0.25222   0.00000  Uiso   1.00
C186   C     0.83346   0.04207   0.24592   0.00000  Uiso   1.00
C187   C     0.79666   0.02051   0.23355   0.00000  Uiso   1.00
C188   C     0.80123   0.31144   0.22303   0.00000  Uiso   1.00
C189   C     0.83695   0.29046   0.23763   0.00000  Uiso   1.00
C190   C     0.98577   0.14068   0.21618   0.00000  Uiso   1.00
C191   C     0.70137   0.14034   0.21556   0.00000  Uiso   1.00
C192   C     0.81162   0.17352   0.49210   0.00000  Uiso   1.00
C193   C     0.68067   0.19290   0.28337   0.00000  Uiso   1.00
C194   C     0.96618   0.19296   0.28321   0.00000  Uiso   1.00
C195   C     0.83302   0.08645   0.24979   0.00000  Uiso   1.00
C196   C     0.86046   0.16694   0.14751   0.00000  Uiso   1.00
C197   C     0.92456   0.21364   0.00951   0.00000  Uiso   1.00
C198   C     0.87796   0.17342   0.08871   0.00000  Uiso   1.00
C199   C     0.73984   0.15839   0.44554   0.00000  Uiso   1.00
C200   C     0.73014   0.15122   0.00101   0.00000  Uiso   1.00
C201   C     0.76593   0.15695   0.02346   0.00000  Uiso   1.00
C202   C     0.94864   0.25109   0.10086   0.00000  Uiso   1.00
C203   C     0.81883   0.18726   0.43894   0.00000  Uiso   1.00
C204   C     0.71756   0.03500   0.27900   0.00000  Uiso   1.00
C205   C     0.76871   0.29065   0.19537   0.00000  Uiso   1.00
C206   C     0.79830   0.27212   0.13958   0.00000  Uiso   1.00
C207   C     0.76529   0.25163   0.11268   0.00000  Uiso   1.00
C208   C     0.72133   0.08542   0.15134   0.00000  Uiso   1.00
C209   C     0.69796   0.15247   0.42518   0.00000  Uiso   1.00
C210   C     0.69458   0.10779   0.40650   0.00000  Uiso   1.00
C211   C     0.98314   0.10158   0.39052   0.00000  Uiso   1.00
C212   C     0.82412   0.27365   0.39184   0.00000  Uiso   1.00
C213   C     0.84914   0.17938   0.01333   0.00000  Uiso   1.00
C214   C     0.88941   0.20510   0.48586   0.00000  Uiso   1.00
C215   C     0.89243   0.22384   0.43689   0.00000  Uiso   1.00
C216   C     0.85658   0.21642   0.41434   0.00000  Uiso   1.00
C217   C     0.84679   0.16100   0.06215   0.00000  Uiso   1.00
C218   C     0.91816   0.19913   0.06213   0.00000  Uiso   1.00
H219   H     0.90087   0.03743   0.26166   0.00000  Uiso   1.00
H220   H     0.90210   0.29656   0.25832   0.00000  Uiso   1.00
H221   H     0.97147   0.25714   0.12611   0.00000  Uiso   1.00
H222   H     0.91098   0.26007   0.12577   0.00000  Uiso   1.00
H223   H     0.96284   0.27084   0.06392   0.00000  Uiso   1.00
H224   H     0.68797   0.05601   0.27932   0.00000  Uiso   1.00
H225   H     0.72728   0.04239   0.31555   0.00000  Uiso   1.00
H226   H     0.70336   0.00269   0.28188   0.00000  Uiso   1.00
H227   H     0.73763   0.27377   0.11008   0.00000  Uiso   1.00
H228   H     0.78715   0.24179   0.07064   0.00000  Uiso   1.00
H229   H     0.74690   0.22397   0.13634   0.00000  Uiso   1.00
H230   H     0.97375   0.12083   0.18986   0.00000  Uiso   1.00
H231   H     0.81974   0.29718   0.11255   0.00000  Uiso   1.00
H232   H     0.82387   0.24871   0.14385   0.00000  Uiso   1.00
H233   H     0.74388   0.26740   0.22219   0.00000  Uiso   1.00
H234   H     0.74405   0.31339   0.18738   0.00000  Uiso   1.00
H235   H     0.75247   0.06591   0.12770   0.00000  Uiso   1.00
H236   H     0.69355   0.06452   0.17940   0.00000  Uiso   1.00
H237   H     0.70753   0.10005   0.12145   0.00000  Uiso   1.00
H238   H     0.94993   0.11088   0.42463   0.00000  Uiso   1.00
H239   H     0.98647   0.12026   0.35390   0.00000  Uiso   1.00
H240   H     0.97934   0.06837   0.38114   0.00000  Uiso   1.00
H241   H     0.69087   0.21394   0.31007   0.00000  Uiso   1.00
H242   H     0.72753   0.10020   0.37115   0.00000  Uiso   1.00
H243   H     0.69214   0.08615   0.44027   0.00000  Uiso   1.00
H244   H     0.99704   0.15956   0.45904   0.00000  Uiso   1.00
H245   H     0.69934   0.17515   0.39307   0.00000  Uiso   1.00
H246   H     0.83528   0.29317   0.42086   0.00000  Uiso   1.00
H247   H     0.78628   0.26219   0.41175   0.00000  Uiso   1.00
H248   H     0.82447   0.29377   0.35762   0.00000  Uiso   1.00
H249   H     0.94030   0.21423   0.30953   0.00000  Uiso   1.00
H250   H     0.92153   0.24556   0.41707   0.00000  Uiso   1.00
H251   H     0.95583   0.23280   0.48820   0.00000  Uiso   1.00
H252   H     0.81896   0.13848   0.08222   0.00000  Uiso   1.00
H253   H     0.75571   0.15129   0.06658   0.00000  Uiso   1.00
H254   H     0.69470   0.14038   0.02711   0.00000  Uiso   1.00
N255   N     0.71426   0.16668   0.25002   0.00000  Uiso   1.00
N256   N     0.95239   0.16665   0.25001   0.00000  Uiso   1.00
O257   O     0.79512   0.22775   0.25001   0.00000  Uiso   1.00
O258   O     0.75709   0.04118   0.22998   0.00000  Uiso   1.00
O259   O     0.73778   0.11553   0.18056   0.00000  Uiso   1.00
O260   O     0.85651   0.24064   0.37097   0.00000  Uiso   1.00
O261   O     0.87157   0.22774   0.25001   0.00000  Uiso   1.00
O262   O     0.77613   0.16666   0.32681   0.00000  Uiso   1.00
O263   O     0.85258   0.16665   0.32681   0.00000  Uiso   1.00
O264   O     0.79510   0.10559   0.25000   0.00000  Uiso   1.00
O265   O     0.87154   0.10558   0.25000   0.00000  Uiso   1.00
O266   O     0.81409   0.16668   0.17319   0.00000  Uiso   1.00
O267   O     0.89053   0.16667   0.17319   0.00000  Uiso   1.00
O268   O     0.95162   0.20861   0.08685   0.00000  Uiso   1.00
Zn269  Zn    0.78229   0.16667   0.25000   0.00000  Uiso   1.00
Zn270  Zn    0.88438   0.16666   0.25000   0.00000  Uiso   1.00
C271   C     0.16817   0.57982   0.24530   0.00000  Uiso   1.00
C272   C     0.12021   0.50629   0.41283   0.00000  Uiso   1.00
C273   C     0.20681   0.64556   0.24930   0.00000  Uiso   1.00
C274   C     0.13931   0.50200   0.35272   0.00000  Uiso   1.00
C275   C     0.20563   0.35456   0.25222   0.00000  Uiso   1.00
C276   C     0.16679   0.37541   0.24592   0.00000  Uiso   1.00
C277   C     0.13000   0.35384   0.23355   0.00000  Uiso   1.00
C278   C     0.13457   0.64477   0.22303   0.00000  Uiso   1.00
C279   C     0.17029   0.62379   0.23763   0.00000  Uiso   1.00
C280   C     0.31910   0.47401   0.21618   0.00000  Uiso   1.00
C281   C     0.03471   0.47368   0.21556   0.00000  Uiso   1.00
C282   C     0.14496   0.50685   0.49210   0.00000  Uiso   1.00
C283   C     0.01400   0.52623   0.28337   0.00000  Uiso   1.00
C284   C     0.29951   0.52629   0.28321   0.00000  Uiso   1.00
C285   C     0.16636   0.41979   0.24979   0.00000  Uiso   1.00
C286   C     0.19379   0.50027   0.14751   0.00000  Uiso   1.00
C287   C     0.25790   0.54697   0.00951   0.00000  Uiso   1.00
C288   C     0.21130   0.50676   0.08871   0.00000  Uiso   1.00
C289   C     0.07318   0.49172   0.44554   0.00000  Uiso   1.00
C290   C     0.06347   0.48455   0.00101   0.00000  Uiso   1.00
C291   C     0.09926   0.49028   0.02346   0.00000  Uiso   1.00
C292   C     0.28197   0.58442   0.10086   0.00000  Uiso   1.00
C293   C     0.15216   0.52060   0.43894   0.00000  Uiso   1.00
C294   C     0.05090   0.36833   0.27900   0.00000  Uiso   1.00
C295   C     0.10205   0.62399   0.19537   0.00000  Uiso   1.00
C296   C     0.13163   0.60546   0.13958   0.00000  Uiso   1.00
C297   C     0.09862   0.58496   0.11268   0.00000  Uiso   1.00
C298   C     0.05466   0.41875   0.15134   0.00000  Uiso   1.00
C299   C     0.03130   0.48580   0.42518   0.00000  Uiso   1.00
C300   C     0.02792   0.44112   0.40650   0.00000  Uiso   1.00
C301   C     0.31648   0.43492   0.39052   0.00000  Uiso   1.00
C302   C     0.15745   0.60699   0.39184   0.00000  Uiso   1.00
C303   C     0.18247   0.51271   0.01333   0.00000  Uiso   1.00
C304   C     0.22274   0.53843   0.48586   0.00000  Uiso   1.00
C305   C     0.22577   0.55717   0.43689   0.00000  Uiso   1.00
C306   C     0.18991   0.54976   0.41434   0.00000  Uiso   1.00
C307   C     0.18013   0.49434   0.06215   0.00000  Uiso   1.00
C308   C     0.25150   0.53247   0.06213   0.00000  Uiso   1.00
H309   H     0.23420   0.37076   0.26166   0.00000  Uiso   1.00
H310   H     0.23544   0.62989   0.25832   0.00000  Uiso   1.00
H311   H     0.30480   0.59047   0.12611   0.00000  Uiso   1.00
H312   H     0.24432   0.59340   0.12577   0.00000  Uiso   1.00
H313   H     0.29617   0.60418   0.06392   0.00000  Uiso   1.00
H314   H     0.02131   0.38935   0.27932   0.00000  Uiso   1.00
H315   H     0.06062   0.37573   0.31555   0.00000  Uiso   1.00
H316   H     0.03670   0.33602   0.28188   0.00000  Uiso   1.00
H317   H     0.07096   0.60711   0.11008   0.00000  Uiso   1.00
H318   H     0.12049   0.57512   0.07064   0.00000  Uiso   1.00
H319   H     0.08023   0.55730   0.13634   0.00000  Uiso   1.00
H320   H     0.30708   0.45416   0.18986   0.00000  Uiso   1.00
H321   H     0.15308   0.63051   0.11255   0.00000  Uiso   1.00
H322   H     0.15720   0.58204   0.14385   0.00000  Uiso   1.00
H323   H     0.07721   0.60074   0.22219   0.00000  Uiso   1.00
H324   H     0.07739   0.64672   0.18738   0.00000  Uiso   1.00
H325   H     0.08580   0.39924   0.12770   0.00000  Uiso   1.00
H326   H     0.02688   0.39786   0.17940   0.00000  Uiso   1.00
H327   H     0.04086   0.43338   0.12145   0.00000  Uiso   1.00
H328   H     0.28327   0.44422   0.42463   0.00000  Uiso   1.00
H329   H     0.31981   0.45359   0.35390   0.00000  Uiso   1.00
H330   H     0.31267   0.40170   0.38114   0.00000  Uiso   1.00
H331   H     0.02420   0.54727   0.31007   0.00000  Uiso   1.00
H332   H     0.06086   0.43353   0.37115   0.00000  Uiso   1.00
H333   H     0.02548   0.41949   0.44027   0.00000  Uiso   1.00
H334   H     0.33037   0.49289   0.45904   0.00000  Uiso   1.00
H335   H     0.03267   0.50848   0.39307   0.00000  Uiso   1.00
H336   H     0.16861   0.62651   0.42086   0.00000  Uiso   1.00
H337   H     0.11962   0.59553   0.41175   0.00000  Uiso   1.00
H338   H     0.15780   0.62710   0.35762   0.00000  Uiso   1.00
H339   H     0.27363   0.54756   0.30953   0.00000  Uiso   1.00
H340   H     0.25487   0.57890   0.41707   0.00000  Uiso   1.00
H341   H     0.28916   0.56614   0.48820   0.00000  Uiso   1.00
H342   H     0.15229   0.47182   0.08222   0.00000  Uiso   1.00
H343   H     0.08904   0.48462   0.06658   0.00000  Uiso   1.00
H344   H     0.02803   0.47372   0.02711   0.00000  Uiso   1.00
N345   N     0.04760   0.50001   0.25002   0.00000  Uiso   1.00
N346   N     0.28573   0.49998   0.25001   0.00000  Uiso   1.00
O347   O     0.12846   0.56108   0.25001   0.00000  Uiso   1.00
O348   O     0.09042   0.37452   0.22998   0.00000  Uiso   1.00
O349   O     0.07111   0.44886   0.18056   0.00000  Uiso   1.00
O350   O     0.18984   0.57398   0.37097   0.00000  Uiso   1.00
O351   O     0.20490   0.56107   0.25001   0.00000  Uiso   1.00
O352   O     0.10947   0.50000   0.32681   0.00000  Uiso   1.00
O353   O     0.18591   0.49999   0.32681   0.00000  Uiso   1.00
O354   O     0.12843   0.43893   0.25000   0.00000  Uiso   1.00
O355   O     0.20488   0.43892   0.25000   0.00000  Uiso   1.00
O356   O     0.14742   0.50001   0.17319   0.00000  Uiso   1.00
O357   O     0.22387   0.50000   0.17319   0.00000  Uiso   1.00
O358   O     0.28495   0.54194   0.08685   0.00000  Uiso   1.00
Zn359  Zn    0.11562   0.50001   0.25000   0.00000  Uiso   1.00
Zn360  Zn    0.21771   0.49999   0.25000   0.00000  Uiso   1.00
C361   C     0.50150   0.57982   0.24530   0.00000  Uiso   1.00
C362   C     0.45354   0.50629   0.41283   0.00000  Uiso   1.00
C363   C     0.54014   0.64556   0.24930   0.00000  Uiso   1.00
C364   C     0.47264   0.50200   0.35272   0.00000  Uiso   1.00
C365   C     0.53897   0.35456   0.25222   0.00000  Uiso   1.00
C366   C     0.50012   0.37541   0.24592   0.00000  Uiso   1.00
C367   C     0.46333   0.35384   0.23355   0.00000  Uiso   1.00
C368   C     0.46790   0.64477   0.22303   0.00000  Uiso   1.00
C369   C     0.50362   0.62379   0.23763   0.00000  Uiso   1.00
C370   C     0.65243   0.47401   0.21618   0.00000  Uiso   1.00
C371   C     0.36804   0.47368   0.21556   0.00000  Uiso   1.00
C372   C     0.47829   0.50685   0.49210   0.00000  Uiso   1.00
C373   C     0.34734   0.52623   0.28337   0.00000  Uiso   1.00
C374   C     0.63285   0.52629   0.28321   0.00000  Uiso   1.00
C375   C     0.49969   0.41979   0.24979   0.00000  Uiso   1.00
C376   C     0.52713   0.50027   0.14751   0.00000  Uiso   1.00
C377   C     0.59123   0.54697   0.00951   0.00000  Uiso   1.00
C378   C     0.54463   0.50676   0.08871   0.00000  Uiso   1.00
C379   C     0.40651   0.49172   0.44554   0.00000  Uiso   1.00
C380   C     0.39680   0.48455   0.00101   0.00000  Uiso   1.00
C381   C     0.43260   0.49028   0.02346   0.00000  Uiso   1.00
C382   C     0.61530   0.58442   0.10086   0.00000  Uiso   1.00
C383   C     0.48550   0.52060   0.43894   0.00000  Uiso   1.00
C384   C     0.38423   0.36833   0.27900   0.00000  Uiso   1.00
C385   C     0.43538   0.62399   0.19537   0.00000  Uiso   1.00
C386   C     0.46496   0.60546   0.13958   0.00000  Uiso   1.00
C387   C     0.43196   0.58496   0.11268   0.00000  Uiso   1.00
C388   C     0.38799   0.41875   0.15134   0.00000  Uiso   1.00
C389   C     0.36463   0.48580   0.42518   0.00000  Uiso   1.00
C390   C     0.36125   0.44112   0.40650   0.00000  Uiso   1.00
C391   C     0.64981   0.43492   0.39052   0.00000  Uiso   1.00
C392   C     0.49079   0.60699   0.39184   0.00000  Uiso   1.00
C393   C     0.51580   0.51271   0.01333   0.00000  Uiso   1.00
C394   C     0.55608   0.53843   0.48586   0.00000  Uiso   1.00
C395   C     0.55910   0.55717   0.43689   0.00000  Uiso   1.00
C396   C     0.52325   0.54976   0.41434   0.00000  Uiso   1.00
C397   C     0.51346   0.49434   0.06215   0.00000  Uiso   1.00
C398   C     0.58483   0.53247   0.06213   0.00000  Uiso   1.00
H399   H     0.56753   0.37076   0.26166   0.00000  Uiso   1.00
H400   H     0.56877   0.62989   0.25832   0.00000  Uiso   1.00
H401   H     0.63813   0.59047   0.12611   0.00000  Uiso   1.00
H402   H     0.57765   0.59340   0.12577   0.00000  Uiso   1.00
H403   H     0.62951   0.60418   0.06392   0.00000  Uiso   1.00
H404   H     0.35464   0.38935   0.27932   0.00000  Uiso   1.00
H405   H     0.39395   0.37573   0.31555   0.00000  Uiso   1.00
H406   H     0.37003   0.33602   0.28188   0.00000  Uiso   1.00
H407   H     0.40430   0.60711   0.11008   0.00000  Uiso   1.00
H408   H     0.45382   0.57512   0.07064   0.00000  Uiso   1.00
H409   H     0.41357   0.55730   0.13634   0.00000  Uiso   1.00
H410   H     0.64041   0.45416   0.18986   0.00000  Uiso   1.00
H411   H     0.48641   0.63051   0.11255   0.00000  Uiso   1.00
H412   H     0.49053   0.58204   0.14385   0.00000  Uiso   1.00
H413   H     0.41055   0.60074   0.22219   0.00000  Uiso   1.00
H414   H     0.41072   0.64672   0.18738   0.00000  Uiso   1.00
H415   H     0.41914   0.39924   0.12770   0.00000  Uiso   1.00
H416   H     0.36022   0.39786   0.17940   0.00000  Uiso   1.00
H417   H     0.37419   0.43338   0.12145   0.00000  Uiso   1.00
H418   H     0.61660   0.44422   0.42463   0.00000  Uiso   1.00
H419   H     0.65314   0.45359   0.35390   0.00000  Uiso   1.00
H420   H     0.64601   0.40170   0.38114   0.00000  Uiso   1.00
H421   H     0.35753   0.54727   0.31007   0.00000  Uiso   1.00
H422   H     0.39419   0.43353   0.37115   0.00000  Uiso   1.00
H423   H     0.35881   0.41949   0.44027   0.00000  Uiso   1.00
H424   H     0.66370   0.49289   0.45904   0.00000  Uiso   1.00
H425   H     0.36601   0.50848   0.39307   0.00000  Uiso   1.00
H426   H     0.50194   0.62651   0.42086   0.00000  Uiso   1.00
H427   H     0.45295   0.59553   0.41175   0.00000  Uiso   1.00
H428   H     0.49114   0.62710   0.35762   0.00000  Uiso   1.00
H429   H     0.60697   0.54756   0.30953   0.00000  Uiso   1.00
H430   H     0.58820   0.57890   0.41707   0.00000  Uiso   1.00
H431   H     0.62249   0.56614   0.48820   0.00000  Uiso   1.00
H432   H     0.48563   0.47182   0.08222   0.00000  Uiso   1.00
H433   H     0.42237   0.48462   0.06658   0.00000  Uiso   1.00
H434   H     0.36137   0.47372   0.02711   0.00000  Uiso   1.00
N435   N     0.38093   0.50001   0.25002   0.00000  Uiso   1.00
N436   N     0.61906   0.49998   0.25001   0.00000  Uiso   1.00
O437   O     0.46179   0.56108   0.25001   0.00000  Uiso   1.00
O438   O     0.42376   0.37452   0.22998   0.00000  Uiso   1.00
O439   O     0.40444   0.44886   0.18056   0.00000  Uiso   1.00
O440   O     0.52317   0.57398   0.37097   0.00000  Uiso   1.00
O441   O     0.53823   0.56107   0.25001   0.00000  Uiso   1.00
O442   O     0.44280   0.50000   0.32681   0.00000  Uiso   1.00
O443   O     0.51924   0.49999   0.32681   0.00000  Uiso   1.00
O444   O     0.46177   0.43893   0.25000   0.00000  Uiso   1.00
O445   O     0.53821   0.43892   0.25000   0.00000  Uiso   1.00
O446   O     0.48076   0.50001   0.17319   0.00000  Uiso   1.00
O447   O     0.55720   0.50000   0.17319   0.00000  Uiso   1.00
O448   O     0.61829   0.54194   0.08685   0.00000  Uiso   1.00
Zn449  Zn    0.44896   0.50001   0.25000   0.00000  Uiso   1.00
Zn450  Zn    0.55104   0.49999   0.25000   0.00000  Uiso   1.00
C451   C     0.83483   0.57982   0.24530   0.00000  Uiso   1.00
C452   C     0.78688   0.50629   0.41283   0.00000  Uiso   1.00
C453   C     0.87347   0.64556   0.24930   0.00000  Uiso   1.00
C454   C     0.80597   0.50200   0.35272   0.00000  Uiso   1.00
C455   C     0.87230   0.35456   0.25222   0.00000  Uiso   1.00
C456   C     0.83346   0.37541   0.24592   0.00000  Uiso   1.00
C457   C     0.79666   0.35384   0.23355   0.00000  Uiso   1.00
C458   C     0.80123   0.64477   0.22303   0.00000  Uiso   1.00
C459   C     0.83695   0.62379   0.23763   0.00000  Uiso   1.00
C460   C     0.98577   0.47401   0.21618   0.00000  Uiso   1.00
C461   C     0.70137   0.47368   0.21556   0.00000  Uiso   1.00
C462   C     0.81162   0.50685   0.49210   0.00000  Uiso   1.00
C463   C     0.68067   0.52623   0.28337   0.00000  Uiso   1.00
C464   C     0.96618   0.52629   0.28321   0.00000  Uiso   1.00
C465   C     0.83302   0.41979   0.24979   0.00000  Uiso   1.00
C466   C     0.86046   0.50027   0.14751   0.00000  Uiso   1.00
C467   C     0.92456   0.54697   0.00951   0.00000  Uiso   1.00
C468   C     0.87796   0.50676   0.08871   0.00000  Uiso   1.00
C469   C     0.73984   0.49172   0.44554   0.00000  Uiso   1.00
C470   C     0.73014   0.48455   0.00101   0.00000  Uiso   1.00
C471   C     0.76593   0.49028   0.02346   0.00000  Uiso   1.00
C472   C     0.94864   0.58442   0.10086   0.00000  Uiso   1.00
C473   C     0.81883   0.52060   0.43894   0.00000  Uiso   1.00
C474   C     0.71756   0.36833   0.27900   0.00000  Uiso   1.00
C475   C     0.76871   0.62399   0.19537   0.00000  Uiso   1.00
C476   C     0.79830   0.60546   0.13958   0.00000  Uiso   1.00
C477   C     0.76529   0.58496   0.11268   0.00000  Uiso   1.00
C478   C     0.72133   0.41875   0.15134   0.00000  Uiso   1.00
C479   C     0.69796   0.48580   0.42518   0.00000  Uiso   1.00
C480   C     0.69458   0.44112   0.40650   0.00000  Uiso   1.00
C481   C     0.98314   0.43492   0.39052   0.00000  Uiso   1.00
C482   C     0.82412   0.60699   0.39184   0.00000  Uiso   1.00
C483   C     0.84914   0.51271   0.01333   0.00000  Uiso   1.00
C484   C     0.88941   0.53843   0.48586   0.00000  Uiso   1.00
C485   C     0.89243   0.55717   0.43689   0.00000  Uiso   1.00
C486   C     0.85658   0.54976   0.41434   0.00000  Uiso   1.00
C487   C     0.84679   0.49434   0.06215   0.00000  Uiso   1.00
C488   C     0.91816   0.53247   0.06213   0.00000  Uiso   1.00
H489   H     0.90087   0.37076   0.26166   0.00000  Uiso   1.00
H490   H     0.90210   0.62989   0.25832   0.00000  Uiso   1.00
H491   H     0.97147   0.59047   0.12611   0.00000  Uiso   1.00
H492   H     0.91098   0.59340   0.12577   0.00000  Uiso   1.00
H493   H     0.96284   0.60418   0.06392   0.00000  Uiso   1.00
H494   H     0.68797   0.38935   0.27932   0.00000  Uiso   1.00
H495   H     0.72728   0.37573   0.31555   0.00000  Uiso   1.00
H496   H     0.70336   0.33602   0.28188   0.00000  Uiso   1.00
H497   H     0.73763   0.60711   0.11008   0.00000  Uiso   1.00
H498   H     0.78715   0.57512   0.07064   0.00000  Uiso   1.00
H499   H     0.74690   0.55730   0.13634   0.00000  Uiso   1.00
H500   H     0.97375   0.45416   0.18986   0.00000  Uiso   1.00
H501   H     0.81974   0.63051   0.11255   0.00000  Uiso   1.00
H502   H     0.82387   0.58204   0.14385   0.00000  Uiso   1.00
H503   H     0.74388   0.60074   0.22219   0.00000  Uiso   1.00
H504   H     0.74405   0.64672   0.18738   0.00000  Uiso   1.00
H505   H     0.75247   0.39924   0.12770   0.00000  Uiso   1.00
H506   H     0.69355   0.39786   0.17940   0.00000  Uiso   1.00
H507   H     0.70753   0.43338   0.12145   0.00000  Uiso   1.00
H508   H     0.94993   0.44422   0.42463   0.00000  Uiso   1.00
H509   H     0.98647   0.45359   0.35390   0.00000  Uiso   1.00
H510   H     0.97934   0.40170   0.38114   0.00000  Uiso   1.00
H511   H     0.69087   0.54727   0.31007   0.00000  Uiso   1.00
H512   H     0.72753   0.43353   0.37115   0.00000  Uiso   1.00
H513   H     0.69214   0.41949   0.44027   0.00000  Uiso   1.00
H514   H     0.99704   0.49289   0.45904   0.00000  Uiso   1.00
H515   H     0.69934   0.50848   0.39307   0.00000  Uiso   1.00
H516   H     0.83528   0.62651   0.42086   0.00000  Uiso   1.00
H517   H     0.78628   0.59553   0.41175   0.00000  Uiso   1.00
H518   H     0.82447   0.62710   0.35762   0.00000  Uiso   1.00
H519   H     0.94030   0.54756   0.30953   0.00000  Uiso   1.00
H520   H     0.92153   0.57890   0.41707   0.00000  Uiso   1.00
H521   H     0.95583   0.56614   0.48820   0.00000  Uiso   1.00
H522   H     0.81896   0.47182   0.08222   0.00000  Uiso   1.00
H523   H     0.75571   0.48462   0.06658   0.00000  Uiso   1.00
H524   H     0.69470   0.47372   0.02711   0.00000  Uiso   1.00
N525   N     0.71426   0.50001   0.25002   0.00000  Uiso   1.00
N526   N     0.95239   0.49998   0.25001   0.00000  Uiso   1.00
O527   O     0.79512   0.56108   0.25001   0.00000  Uiso   1.00
O528   O     0.75709   0.37452   0.22998   0.00000  Uiso   1.00
O529   O     0.73778   0.44886   0.18056   0.00000  Uiso   1.00
O530   O     0.85651   0.57398   0.37097   0.00000  Uiso   1.00
O531   O     0.87157   0.56107   0.25001   0.00000  Uiso   1.00
O532   O     0.77613   0.50000   0.32681   0.00000  Uiso   1.00
O533   O     0.85258   0.49999   0.32681   0.00000  Uiso   1.00
O534   O     0.79510   0.43893   0.25000   0.00000  Uiso   1.00
O535   O     0.87154   0.43892   0.25000   0.00000  Uiso   1.00
O536   O     0.81409   0.50001   0.17319   0.00000  Uiso   1.00
O537   O     0.89053   0.50000   0.17319   0.00000  Uiso   1.00
O538   O     0.95162   0.54194   0.08685   0.00000  Uiso   1.00
Zn539  Zn    0.78229   0.50001   0.25000   0.00000  Uiso   1.00
Zn540  Zn    0.88438   0.49999   0.25000   0.00000  Uiso   1.00
C541   C     0.16817   0.91315   0.24530   0.00000  Uiso   1.00
C542   C     0.12021   0.83962   0.41283   0.00000  Uiso   1.00
C543   C     0.20681   0.97889   0.24930   0.00000  Uiso   1.00
C544   C     0.13931   0.83533   0.35272   0.00000  Uiso   1.00
C545   C     0.20563   0.68789   0.25222   0.00000  Uiso   1.00
C546   C     0.16679   0.70874   0.24592   0.00000  Uiso   1.00
C547   C     0.13000   0.68718   0.23355   0.00000  Uiso   1.00
C548   C     0.13457   0.97811   0.22303   0.00000  Uiso   1.00
C549   C     0.17029   0.95712   0.23763   0.00000  Uiso   1.00
C550   C     0.31910   0.80734   0.21618   0.00000  Uiso   1.00
C551   C     0.03471   0.80701   0.21556   0.00000  Uiso   1.00
C552   C     0.14496   0.84018   0.49210   0.00000  Uiso   1.00
C553   C     0.01400   0.85956   0.28337   0.00000  Uiso   1.00
C554   C     0.29951   0.85962   0.28321   0.00000  Uiso   1.00
C555   C     0.16636   0.75312   0.24979   0.00000  Uiso   1.00
C556   C     0.19379   0.83361   0.14751   0.00000  Uiso   1.00
C557   C     0.25790   0.88030   0.00951   0.00000  Uiso   1.00
C558   C     0.21130   0.84009   0.08871   0.00000  Uiso   1.00
C559   C     0.07318   0.82505   0.44554   0.00000  Uiso   1.00
C560   C     0.06347   0.81789   0.00101   0.00000  Uiso   1.00
C561   C     0.09926   0.82361   0.02346   0.00000  Uiso   1.00
C562   C     0.28197   0.91776   0.10086   0.00000  Uiso   1.00
C563   C     0.15216   0.85393   0.43894   0.00000  Uiso   1.00
C564   C     0.05090   0.70167   0.27900   0.00000  Uiso   1.00
C565   C     0.10205   0.95732   0.19537   0.00000  Uiso   1.00
C566   C     0.13163   0.93879   0.13958   0.00000  Uiso   1.00
C567   C     0.09862   0.91829   0.11268   0.00000  Uiso   1.00
C568   C     0.05466   0.75208   0.15134   0.00000  Uiso   1.00
C569   C     0.03130   0.81913   0.42518   0.00000  Uiso   1.00
C570   C     0.02792   0.77446   0.40650   0.00000  Uiso   1.00
C571   C     0.31648   0.76825   0.39052   0.00000  Uiso   1.00
C572   C     0.15745   0.94032   0.39184   0.00000  Uiso   1.00
C573   C     0.18247   0.84604   0.01333   0.00000  Uiso   1.00
C574   C     0.22274   0.87177   0.48586   0.00000  Uiso   1.00
C575   C     0.22577   0.89051   0.43689   0.00000  Uiso   1.00
C576   C     0.18991   0.88309   0.41434   0.00000  Uiso   1.00
C577   C     0.18013   0.82767   0.06215   0.00000  Uiso   1.00
C578   C     0.25150   0.86580   0.06213   0.00000  Uiso   1.00
H579   H     0.23420   0.70410   0.26166   0.00000  Uiso   1.00
H580   H     0.23544   0.96323   0.25832   0.00000  Uiso   1.00
H581   H     0.30480   0.92380   0.12611   0.00000  Uiso   1.00
H582   H     0.24432   0.92674   0.12577   0.00000  Uiso   1.00
H583   H     0.29617   0.93751   0.06392   0.00000  Uiso   1.00
H584   H     0.02131   0.72268   0.27932   0.00000  Uiso   1.00
H585   H     0.06062   0.70906   0.31555   0.00000  Uiso   1.00
H586   H     0.03670   0.66935   0.28188   0.00000  Uiso   1.00
H587   H     0.07096   0.94044   0.11008   0.00000  Uiso   1.00
H588   H     0.12049   0.90846   0.07064   0.00000  Uiso   1.00
H589   H     0.08023   0.89064   0.13634   0.00000  Uiso   1.00
H590   H     0.30708   0.78749   0.18986   0.00000  Uiso   1.00
H591   H     0.15308   0.96384   0.11255   0.00000  Uiso   1.00
H592   H     0.15720   0.91537   0.14385   0.00000  Uiso   1.00
H593   H     0.07721   0.93407   0.22219   0.00000  Uiso   1.00
H594   H     0.07739   0.98006   0.18738   0.00000  Uiso   1.00
H595   H     0.08580   0.73258   0.12770   0.00000  Uiso   1.00
H596   H     0.02688   0.73119   0.17940   0.00000  Uiso   1.00
H597   H     0.04086   0.76672   0.12145   0.00000  Uiso   1.00
H598   H     0.28327   0.77755   0.42463   0.00000  Uiso   1.00
H599   H     0.31981   0.78693   0.35390   0.00000  Uiso   1.00
H600   H     0.31267   0.73504   0.38114   0.00000  Uiso   1.00
H601   H     0.02420   0.88060   0.31007   0.00000  Uiso   1.00
H602   H     0.06086   0.76686   0.37115   0.00000  Uiso   1.00
H603   H     0.02548   0.75282   0.44027   0.00000  Uiso   1.00
H604   H     0.33037   0.82622   0.45904   0.00000  Uiso   1.00
H605   H     0.03267   0.84182   0.39307   0.00000  Uiso   1.00
H606   H     0.16861   0.95984   0.42086   0.00000  Uiso   1.00
H607   H     0.11962   0.92886   0.41175   0.00000  Uiso   1.00
H608   H     0.15780   0.96044   0.35762   0.00000  Uiso   1.00
H609   H     0.27363   0.88090   0.30953   0.00000  Uiso   1.00
H610   H     0.25487   0.91223   0.41707   0.00000  Uiso   1.00
H611   H     0.28916   0.89947   0.48820   0.00000  Uiso   1.00
H612   H     0.15229   0.80515   0.08222   0.00000  Uiso   1.00
H613   H     0.08904   0.81796   0.06658   0.00000  Uiso   1.00
H614   H     0.02803   0.80705   0.02711   0.00000  Uiso   1.00
N615   N     0.04760   0.83334   0.25002   0.00000  Uiso   1.00
N616   N     0.28573   0.83331   0.25001   0.00000  Uiso   1.00
O617   O     0.12846   0.89442   0.25001   0.00000  Uiso   1.00
O618   O     0.09042   0.70785   0.22998   0.00000  Uiso   1.00
O619   O     0.07111   0.78219   0.18056   0.00000  Uiso   1.00
O620   O     0.18984   0.90731   0.37097   0.00000  Uiso   1.00
O621   O     0.20490   0.89441   0.25001   0.00000  Uiso   1.00
O622   O     0.10947   0.83333   0.32681   0.00000  Uiso   1.00
O623   O     0.18591   0.83332   0.32681   0.00000  Uiso   1.00
O624   O     0.12843   0.77226   0.25000   0.00000  Uiso   1.00
O625   O     0.20488   0.77225   0.25000   0.00000  Uiso   1.00
O626   O     0.14742   0.83335   0.17319   0.00000  Uiso   1.00
O627   O     0.22387   0.83334   0.17319   0.00000  Uiso   1.00
O628   O     0.28495   0.87527   0.08685   0.00000  Uiso   1.00
Zn629  Zn    0.11562   0.83334   0.25000   0.00000  Uiso   1.00
Zn630  Zn    0.21771   0.83333   0.25000   0.00000  Uiso   1.00
C631   C     0.50150   0.91315   0.24530   0.00000  Uiso   1.00
C632   C     0.45354   0.83962   0.41283   0.00000  Uiso   1.00
C633   C     0.54014   0.97889   0.24930   0.00000  Uiso   1.00
C634   C     0.47264   0.83533   0.35272   0.00000  Uiso   1.00
C635   C     0.53897   0.68789   0.25222   0.00000  Uiso   1.00
C636   C     0.50012   0.70874   0.24592   0.00000  Uiso   1.00
C637   C     0.46333   0.68718   0.23355   0.00000  Uiso   1.00
C638   C     0.46790   0.97811   0.22303   0.00000  Uiso   1.00
C639   C     0.50362   0.95712   0.23763   0.00000  Uiso   1.00
C640   C     0.65243   0.80734   0.21618   0.00000  Uiso   1.00
C641   C     0.36804   0.80701   0.21556   0.00000  Uiso   1.00
C642   C     0.47829   0.84018   0.49210   0.00000  Uiso   1.00
C643   C     0.34734   0.85956   0.28337   0.00000  Uiso   1.00
C644   C     0.63285   0.85962   0.28321   0.00000  Uiso   1.00
C645   C     0.49969   0.75312   0.24979   0.00000  Uiso   1.00
C646   C     0.52713   0.83361   0.14751   0.00000  Uiso   1.00
C647   C     0.59123   0.88030   0.00951   0.00000  Uiso   1.00
C648   C     0.54463   0.84009   0.08871   0.00000  Uiso   1.00
C649   C     0.40651   0.82505   0.44554   0.00000  Uiso   1.00
C650   C     0.39680   0.81789   0.00101   0.00000  Uiso   1.00
C651   C     0.43260   0.82361   0.02346   0.00000  Uiso   1.00
C652   C     0.61530   0.91776   0.10086   0.00000  Uiso   1.00
C653   C     0.48550   0.85393   0.43894   0.00000  Uiso   1.00
C654   C     0.38423   0.70167   0.27900   0.00000  Uiso   1.00
C655   C     0.43538   0.95732   0.19537   0.00000  Uiso   1.00
C656   C     0.46496   0.93879   0.13958   0.00000  Uiso   1.00
C657   C     0.43196   0.91829   0.11268   0.00000  Uiso   1.00
C658   C     0.38799   0.75208   0.15134   0.00000  Uiso   1.00
C659   C     0.36463   0.81913   0.42518   0.00000  Uiso   1.00
C660   C     0.36125   0.77446   0.40650   0.00000  Uiso   1.00
C661   C     0.64981   0.76825   0.39052   0.00000  Uiso   1.00
C662   C     0.49079   0.94032   0.39184   0.00000  Uiso   1.00
C663   C     0.51580   0.84604   0.01333   0.00000  Uiso   1.00
C664   C     0.55608   0.87177   0.48586   0.00000  Uiso   1.00
C665   C     0.55910   0.89051   0.43689   0.00000  Uiso   1.00
C666   C     0.52325   0.88309   0.41434   0.00000  Uiso   1.00
C667   C     0.51346   0.82767   0.06215   0.00000  Uiso   1.00
C668   C     0.58483   0.86580   0.06213   0.00000  Uiso   1.00
H669   H     0.56753   0.70410   0.26166   0.00000  Uiso   1.00
H670   H     0.56877   0.96323   0.25832   0.00000  Uiso   1.00
H671   H     0.63813   0.92380   0.12611   0.00000  Uiso   1.00
H672   H     0.57765   0.92674   0.12577   0.00000  Uiso   1.00
H673   H     0.62951   0.93751   0.06392   0.00000  Uiso   1.00
H674   H     0.35464   0.72268   0.27932   0.00000  Uiso   1.00
H675   H     0.39395   0.70906   0.31555   0.00000  Uiso   1.00
H676   H     0.37003   0.66935   0.28188   0.00000  Uiso   1.00
H677   H     0.40430   0.94044   0.11008   0.00000  Uiso   1.00
H678   H     0.45382   0.90846   0.07064   0.00000  Uiso   1.00
H679   H     0.41357   0.89064   0.13634   0.00000  Uiso   1.00
H680   H     0.64041   0.78749   0.18986   0.00000  Uiso   1.00
H681   H     0.48641   0.96384   0.11255   0.00000  Uiso   1.00
H682   H     0.49053   0.91537   0.14385   0.00000  Uiso   1.00
H683   H     0.41055   0.93407   0.22219   0.00000  Uiso   1.00
H684   H     0.41072   0.98006   0.18738   0.00000  Uiso   1.00
H685   H     0.41914   0.73258   0.12770   0.00000  Uiso   1.00
H686   H     0.36022   0.73119   0.17940   0.00000  Uiso   1.00
H687   H     0.37419   0.76672   0.12145   0.00000  Uiso   1.00
H688   H     0.61660   0.77755   0.42463   0.00000  Uiso   1.00
H689   H     0.65314   0.78693   0.35390   0.00000  Uiso   1.00
H690   H     0.64601   0.73504   0.38114   0.00000  Uiso   1.00
H691   H     0.35753   0.88060   0.31007   0.00000  Uiso   1.00
H692   H     0.39419   0.76686   0.37115   0.00000  Uiso   1.00
H693   H     0.35881   0.75282   0.44027   0.00000  Uiso   1.00
H694   H     0.66370   0.82622   0.45904   0.00000  Uiso   1.00
H695   H     0.36601   0.84182   0.39307   0.00000  Uiso   1.00
H696   H     0.50194   0.95984   0.42086   0.00000  Uiso   1.00
H697   H     0.45295   0.92886   0.41175   0.00000  Uiso   1.00
H698   H     0.49114   0.96044   0.35762   0.00000  Uiso   1.00
H699   H     0.60697   0.88090   0.30953   0.00000  Uiso   1.00
H700   H     0.58820   0.91223   0.41707   0.00000  Uiso   1.00
H701   H     0.62249   0.89947   0.48820   0.00000  Uiso   1.00
H702   H     0.48563   0.80515   0.08222   0.00000  Uiso   1.00
H703   H     0.42237   0.81796   0.06658   0.00000  Uiso   1.00
H704   H     0.36137   0.80705   0.02711   0.00000  Uiso   1.00
N705   N     0.38093   0.83334   0.25002   0.00000  Uiso   1.00
N706   N     0.61906   0.83331   0.25001   0.00000  Uiso   1.00
O707   O     0.46179   0.89442   0.25001   0.00000  Uiso   1.00
O708   O     0.42376   0.70785   0.22998   0.00000  Uiso   1.00
O709   O     0.40444   0.78219   0.18056   0.00000  Uiso   1.00
O710   O     0.52317   0.90731   0.37097   0.00000  Uiso   1.00
O711   O     0.53823   0.89441   0.25001   0.00000  Uiso   1.00
O712   O     0.44280   0.83333   0.32681   0.00000  Uiso   1.00
O713   O     0.51924   0.83332   0.32681   0.00000  Uiso   1.00
O714   O     0.46177   0.77226   0.25000   0.00000  Uiso   1.00
O715   O     0.53821   0.77225   0.25000   0.00000  Uiso   1.00
O716   O     0.48076   0.83335   0.17319   0.00000  Uiso   1.00
O717   O     0.55720   0.83334   0.17319   0.00000  Uiso   1.00
O718   O     0.61829   0.87527   0.08685   0.00000  Uiso   1.00
Zn719  Zn    0.44896   0.83334   0.25000   0.00000  Uiso   1.00
Zn720  Zn    0.55104   0.83333   0.25000   0.00000  Uiso   1.00
C721   C     0.83483   0.91315   0.24530   0.00000  Uiso   1.00
C722   C     0.78688   0.83962   0.41283   0.00000  Uiso   1.00
C723   C     0.87347   0.97889   0.24930   0.00000  Uiso   1.00
C724   C     0.80597   0.83533   0.35272   0.00000  Uiso   1.00
C725   C     0.87230   0.68789   0.25222   0.00000  Uiso   1.00
C726   C     0.83346   0.70874   0.24592   0.00000  Uiso   1.00
C727   C     0.79666   0.68718   0.23355   0.00000  Uiso   1.00
C728   C     0.80123   0.97811   0.22303   0.00000  Uiso   1.00
C729   C     0.83695   0.95712   0.23763   0.00000  Uiso   1.00
C730   C     0.98577   0.80734   0.21618   0.00000  Uiso   1.00
C731   C     0.70137   0.80701   0.21556   0.00000  Uiso   1.00
C732   C     0.81162   0.84018   0.49210   0.00000  Uiso   1.00
C733   C     0.68067   0.85956   0.28337   0.00000  Uiso   1.00
C734   C     0.96618   0.85962   0.28321   0.00000  Uiso   1.00
C735   C     0.83302   0.75312   0.24979   0.00000  Uiso   1.00
C736   C     0.86046   0.83361   0.14751   0.00000  Uiso   1.00
C737   C     0.92456   0.88030   0.00951   0.00000  Uiso   1.00
C738   C     0.87796   0.84009   0.08871   0.00000  Uiso   1.00
C739   C     0.73984   0.82505   0.44554   0.00000  Uiso   1.00
C740   C     0.73014   0.81789   0.00101   0.00000  Uiso   1.00
C741   C     0.76593   0.82361   0.02346   0.00000  Uiso   1.00
C742   C     0.94864   0.91776   0.10086   0.00000  Uiso   1.00
C743   C     0.81883   0.85393   0.43894   0.00000  Uiso   1.00
C744   C     0.71756   0.70167   0.27900   0.00000  Uiso   1.00
C745   C     0.76871   0.95732   0.19537   0.00000  Uiso   1.00
C746   C     0.79830   0.93879   0.13958   0.00000  Uiso   1.00
C747   C     0.76529   0.91829   0.11268   0.00000  Uiso   1.00
C748   C     0.72133   0.75208   0.15134   0.00000  Uiso   1.00
C749   C     0.69796   0.81913   0.42518   0.00000  Uiso   1.00
C750   C     0.69458   0.77446   0.40650   0.00000  Uiso   1.00
C751   C     0.98314   0.76825   0.39052   0.00000  Uiso   1.00
C752   C     0.82412   0.94032   0.39184   0.00000  Uiso   1.00
C753   C     0.84914   0.84604   0.01333   0.00000  Uiso   1.00
C754   C     0.88941   0.87177   0.48586   0.00000  Uiso   1.00
C755   C     0.89243   0.89051   0.43689   0.00000  Uiso   1.00
C756   C     0.85658   0.88309   0.41434   0.00000  Uiso   1.00
C757   C     0.84679   0.82767   0.06215   0.00000  Uiso   1.00
C758   C     0.91816   0.86580   0.06213   0.00000  Uiso   1.00
H759   H     0.90087   0.70410   0.26166   0.00000  Uiso   1.00
H760   H     0.90210   0.96323   0.25832   0.00000  Uiso   1.00
H761   H     0.97147   0.92380   0.12611   0.00000  Uiso   1.00
H762   H     0.91098   0.92674   0.12577   0.00000  Uiso   1.00
H763   H     0.96284   0.93751   0.06392   0.00000  Uiso   1.00
H764   H     0.68797   0.72268   0.27932   0.00000  Uiso   1.00
H765   H     0.72728   0.70906   0.31555   0.00000  Uiso   1.00
H766   H     0.70336   0.66935   0.28188   0.00000  Uiso   1.00
H767   H     0.73763   0.94044   0.11008   0.00000  Uiso   1.00
H768   H     0.78715   0.90846   0.07064   0.00000  Uiso   1.00
H769   H     0.74690   0.89064   0.13634   0.00000  Uiso   1.00
H770   H     0.97375   0.78749   0.18986   0.00000  Uiso   1.00
H771   H     0.81974   0.96384   0.11255   0.00000  Uiso   1.00
H772   H     0.82387   0.91537   0.14385   0.00000  Uiso   1.00
H773   H     0.74388   0.93407   0.22219   0.00000  Uiso   1.00
H774   H     0.74405   0.98006   0.18738   0.00000  Uiso   1.00
H775   H     0.75247   0.73258   0.12770   0.00000  Uiso   1.00
H776   H     0.69355   0.73119   0.17940   0.00000  Uiso   1.00
H777   H     0.70753   0.76672   0.12145   0.00000  Uiso   1.00
H778   H     0.94993   0.77755   0.42463   0.00000  Uiso   1.00
H779   H     0.98647   0.78693   0.35390   0.00000  Uiso   1.00
H780   H     0.97934   0.73504   0.38114   0.00000  Uiso   1.00
H781   H     0.69087   0.88060   0.31007   0.00000  Uiso   1.00
H782   H     0.72753   0.76686   0.37115   0.00000  Uiso   1.00
H783   H     0.69214   0.75282   0.44027   0.00000  Uiso   1.00
H784   H     0.99704   0.82622   0.45904   0.00000  Uiso   1.00
H785   H     0.69934   0.84182   0.39307   0.00000  Uiso   1.00
H786   H     0.83528   0.95984   0.42086   0.00000  Uiso   1.00
H787   H     0.78628   0.92886   0.41175   0.00000  Uiso   1.00
H788   H     0.82447   0.96044   0.35762   0.00000  Uiso   1.00
H789   H     0.94030   0.88090   0.30953   0.00000  Uiso   1.00
H790   H     0.92153   0.91223   0.41707   0.00000  Uiso   1.00
H791   H     0.95583   0.89947   0.48820   0.00000  Uiso   1.00
H792   H     0.81896   0.80515   0.08222   0.00000  Uiso   1.00
H793   H     0.75571   0.81796   0.06658   0.00000  Uiso   1.00
H794   H     0.69470   0.80705   0.02711   0.00000  Uiso   1.00
N795   N     0.71426   0.83334   0.25002   0.00000  Uiso   1.00
N796   N     0.95239   0.83331   0.25001   0.00000  Uiso   1.00
O797   O     0.79512   0.89442   0.25001   0.00000  Uiso   1.00
O798   O     0.75709   0.70785   0.22998   0.00000  Uiso   1.00
O799   O     0.73778   0.78219   0.18056   0.00000  Uiso   1.00
O800   O     0.85651   0.90731   0.37097   0.00000  Uiso   1.00
O801   O     0.87157   0.89441   0.25001   0.00000  Uiso   1.00
O802   O     0.77613   0.83333   0.32681   0.00000  Uiso   1.00
O803   O     0.85258   0.83332   0.32681   0.00000  Uiso   1.00
O804   O     0.79510   0.77226   0.25000   0.00000  Uiso   1.00
O805   O     0.87154   0.77225   0.25000   0.00000  Uiso   1.00
O806   O     0.81409   0.83335   0.17319   0.00000  Uiso   1.00
O807   O     0.89053   0.83334   0.17319   0.00000  Uiso   1.00
O808   O     0.95162   0.87527   0.08685   0.00000  Uiso   1.00
Zn809  Zn    0.78229   0.83334   0.25000   0.00000  Uiso   1.00
Zn810  Zn    0.88438   0.83333   0.25000   0.00000  Uiso   1.00
C811   C     0.16817   0.24649   0.74530   0.00000  Uiso   1.00
C812   C     0.12021   0.17296   0.91283   0.00000  Uiso   1.00
C813   C     0.20681   0.31222   0.74930   0.00000  Uiso   1.00
C814   C     0.13931   0.16866   0.85272   0.00000  Uiso   1.00
C815   C     0.20563   0.02122   0.75222   0.00000  Uiso   1.00
C816   C     0.16679   0.04207   0.74592   0.00000  Uiso   1.00
C817   C     0.13000   0.02051   0.73355   0.00000  Uiso   1.00
C818   C     0.13457   0.31144   0.72303   0.00000  Uiso   1.00
C819   C     0.17029   0.29046   0.73763   0.00000  Uiso   1.00
C820   C     0.31910   0.14068   0.71618   0.00000  Uiso   1.00
C821   C     0.03471   0.14034   0.71556   0.00000  Uiso   1.00
C822   C     0.14496   0.17352   0.99210   0.00000  Uiso   1.00
C823   C     0.01400   0.19290   0.78337   0.00000  Uiso   1.00
C824   C     0.29951   0.19296   0.78321   0.00000  Uiso   1.00
C825   C     0.16636   0.08645   0.74979   0.00000  Uiso   1.00
C826   C     0.19379   0.16694   0.64751   0.00000  Uiso   1.00
C827   C     0.25790   0.21364   0.50951   0.00000  Uiso   1.00
C828   C     0.21130   0.17342   0.58871   0.00000  Uiso   1.00
C829   C     0.07318   0.15839   0.94554   0.00000  Uiso   1.00
C830   C     0.06347   0.15122   0.50101   0.00000  Uiso   1.00
C831   C     0.09926   0.15695   0.52346   0.00000  Uiso   1.00
C832   C     0.28197   0.25109   0.60086   0.00000  Uiso   1.00
C833   C     0.15216   0.18726   0.93894   0.00000  Uiso   1.00
C834   C     0.05090   0.03500   0.77900   0.00000  Uiso   1.00
C835   C     0.10205   0.29065   0.69537   0.00000  Uiso   1.00
C836   C     0.13163   0.27212   0.63958   0.00000  Uiso   1.00
C837   C     0.09862   0.25163   0.61268   0.00000  Uiso   1.00
C838   C     0.05466   0.08542   0.65134   0.00000  Uiso   1.00
C839   C     0.03130   0.15247   0.92518   0.00000  Uiso   1.00
C840   C     0.02792   0.10779   0.90650   0.00000  Uiso   1.00
C841   C     0.31648   0.10158   0.89052   0.00000  Uiso   1.00
C842   C     0.15745   0.27365   0.89184   0.00000  Uiso   1.00
C843   C     0.18247   0.17938   0.51333   0.00000  Uiso   1.00
C844   C     0.22274   0.20510   0.98586   0.00000  Uiso   1.00
C845   C     0.22577   0.22384   0.93689   0.00000  Uiso   1.00
C846   C     0.18991   0.21642   0.91434   0.00000  Uiso   1.00
C847   C     0.18013   0.16100   0.56215   0.00000  Uiso   1.00
C848   C     0.25150   0.19913   0.56213   0.00000  Uiso   1.00
H849   H     0.23420   0.03743   0.76166   0.00000  Uiso   1.00
H850   H     0.23544   0.29656   0.75832   0.00000  Uiso   1.00
H851   H     0.30480   0.25714   0.62611   0.00000  Uiso   1.00
H852   H     0.24432   0.26007   0.62577   0.00000  Uiso   1.00
H853   H     0.29617   0.27084   0.56392   0.00000  Uiso   1.00
H854   H     0.02131   0.05601   0.77932   0.00000  Uiso   1.00
H855   H     0.06062   0.04239   0.81555   0.00000  Uiso   1.00
H856   H     0.03670   0.00269   0.78188   0.00000  Uiso   1.00
H857   H     0.07096   0.27377   0.61008   0.00000  Uiso   1.00
H858   H     0.12049   0.24179   0.57064   0.00000  Uiso   1.00
H859   H     0.08023   0.22397   0.63634   0.00000  Uiso   1.00
H860   H     0.30708   0.12083   0.68986   0.00000  Uiso   1.00
H861   H     0.15308   0.29718   0.61255   0.00000  Uiso   1.00
H862   H     0.15720   0.24871   0.64385   0.00000  Uiso   1.00
H863   H     0.07721   0.26740   0.72219   0.00000  Uiso   1.00
H864   H     0.07739   0.31339   0.68738   0.00000  Uiso   1.00
H865   H     0.08580   0.06591   0.62770   0.00000  Uiso   1.00
H866   H     0.02688   0.06452   0.67940   0.00000  Uiso   1.00
H867   H     0.04086   0.10005   0.62145   0.00000  Uiso   1.00
H868   H     0.28327   0.11088   0.92463   0.00000  Uiso   1.00
H869   H     0.31981   0.12026   0.85390   0.00000  Uiso   1.00
H870   H     0.31267   0.06837   0.88114   0.00000  Uiso   1.00
H871   H     0.02420   0.21394   0.81007   0.00000  Uiso   1.00
H872   H     0.06086   0.10020   0.87115   0.00000  Uiso   1.00
H873   H     0.02548   0.08615   0.94027   0.00000  Uiso   1.00
H874   H     0.33037   0.15956   0.95904   0.00000  Uiso   1.00
H875   H     0.03267   0.17515   0.89307   0.00000  Uiso   1.00
H876   H     0.16861   0.29317   0.92086   0.00000  Uiso   1.00
H877   H     0.11962   0.26219   0.91175   0.00000  Uiso   1.00
H878   H     0.15780   0.29377   0.85762   0.00000  Uiso   1.00
H879   H     0.27363   0.21423   0.80953   0.00000  Uiso   1.00
H880   H     0.25487   0.24556   0.91707   0.00000  Uiso   1.00
H881   H     0.28916   0.23280   0.98820   0.00000  Uiso   1.00
H882   H     0.15229   0.13848   0.58222   0.00000  Uiso   1.00
H883   H     0.08904   0.15129   0.56658   0.00000  Uiso   1.00
H884   H     0.02803   0.14038   0.52711   0.00000  Uiso   1.00
N885   N     0.04760   0.16668   0.75002   0.00000  Uiso   1.00
N886   N     0.28573   0.16665   0.75001   0.00000  Uiso   1.00
O887   O     0.12846   0.22775   0.75001   0.00000  Uiso   1.00
O888   O     0.09042   0.04118   0.72998   0.00000  Uiso   1.00
O889   O     0.07111   0.11553   0.68056   0.00000  Uiso   1.00
O890   O     0.18984   0.24064   0.87097   0.00000  Uiso   1.00
O891   O     0.20490   0.22774   0.75001   0.00000  Uiso   1.00
O892   O     0.10947   0.16666   0.82681   0.00000  Uiso   1.00
O893   O     0.18591   0.16665   0.82681   0.00000  Uiso   1.00
O894   O     0.12843   0.10559   0.75000   0.00000  Uiso   1.00
O895   O     0.20488   0.10558   0.75000   0.00000  Uiso   1.00
O896   O     0.14742   0.16668   0.67319   0.00000  Uiso   1.00
O897   O     0.22387   0.16667   0.67319   0.00000  Uiso   1.00
O898   O     0.28495   0.20861   0.58685   0.00000  Uiso   1.00
Zn899  Zn    0.11562   0.16667   0.75000   0.00000  Uiso   1.00
Zn900  Zn    0.21771   0.16666   0.75000   0.00000  Uiso   1.00
C901   C     0.50150   0.24649   0.74530   0.00000  Uiso   1.00
C902   C     0.45354   0.17296   0.91283   0.00000  Uiso   1.00
C903   C     0.54014   0.31222   0.74930   0.00000  Uiso   1.00
C904   C     0.47264   0.16866   0.85272   0.00000  Uiso   1.00
C905   C     0.53897   0.02122   0.75222   0.00000  Uiso   1.00
C906   C     0.50012   0.04207   0.74592   0.00000  Uiso   1.00
C907   C     0.46333   0.02051   0.73355   0.00000  Uiso   1.00
C908   C     0.46790   0.31144   0.72303   0.00000  Uiso   1.00
C909   C     0.50362   0.29046   0.73763   0.00000  Uiso   1.00
C910   C     0.65243   0.14068   0.71618   0.00000  Uiso   1.00
C911   C     0.36804   0.14034   0.71556   0.00000  Uiso   1.00
C912   C     0.47829   0.17352   0.99210   0.00000  Uiso   1.00
C913   C     0.34734   0.19290   0.78337   0.00000  Uiso   1.00
C914   C     0.63285   0.19296   0.78321   0.00000  Uiso   1.00
C915   C     0.49969   0.08645   0.74979   0.00000  Uiso   1.00
C916   C     0.52713   0.16694   0.64751   0.00000  Uiso   1.00
C917   C     0.59123   0.21364   0.50951   0.00000  Uiso   1.00
C918   C     0.54463   0.17342   0.58871   0.00000  Uiso   1.00
C919   C     0.40651   0.15839   0.94554   0.00000  Uiso   1.00
C920   C     0.39680   0.15122   0.50101   0.00000  Uiso   1.00
C921   C     0.43260   0.15695   0.52346   0.00000  Uiso   1.00
C922   C     0.61530   0.25109   0.60086   0.00000  Uiso   1.00
C923   C     0.48550   0.18726   0.93894   0.00000  Uiso   1.00
C924   C     0.38423   0.03500   0.77900   0.00000  Uiso   1.00
C925   C     0.43538   0.29065   0.69537   0.00000  Uiso   1.00
C926   C     0.46496   0.27212   0.63958   0.00000  Uiso   1.00
C927   C     0.43196   0.25163   0.61268   0.00000  Uiso   1.00
C928   C     0.38799   0.08542   0.65134   0.00000  Uiso   1.00
C929   C     0.36463   0.15247   0.92518   0.00000  Uiso   1.00
C930   C     0.36125   0.10779   0.90650   0.00000  Uiso   1.00
C931   C     0.64981   0.10158   0.89052   0.00000  Uiso   1.00
C932   C     0.49079   0.27365   0.89184   0.00000  Uiso   1.00
C933   C     0.51580   0.17938   0.51333   0.00000  Uiso   1.00
C934   C     0.55608   0.20510   0.98586   0.00000  Uiso   1.00
C935   C     0.55910   0.22384   0.93689   0.00000  Uiso   1.00
C936   C     0.52325   0.21642   0.91434   0.00000  Uiso   1.00
C937   C     0.51346   0.16100   0.56215   0.00000  Uiso   1.00
C938   C     0.58483   0.19913   0.56213   0.00000  Uiso   1.00
H939   H     0.56753   0.03743   0.76166   0.00000  Uiso   1.00
H940   H     0.56877   0.29656   0.75832   0.00000  Uiso   1.00
H941   H     0.63813   0.25714   0.62611   0.00000  Uiso   1.00
H942   H     0.57765   0.26007   0.62577   0.00000  Uiso   1.00
H943   H     0.62951   0.27084   0.56392   0.00000  Uiso   1.00
H944   H     0.35464   0.05601   0.77932   0.00000  Uiso   1.00
H945   H     0.39395   0.04239   0.81555   0.00000  Uiso   1.00
H946   H     0.37003   0.00269   0.78188   0.00000  Uiso   1.00
H947   H     0.40430   0.27377   0.61008   0.00000  Uiso   1.00
H948   H     0.45382   0.24179   0.57064   0.00000  Uiso   1.00
H949   H     0.41357   0.22397   0.63634   0.00000  Uiso   1.00
H950   H     0.64041   0.12083   0.68986   0.00000  Uiso   1.00
H951   H     0.48641   0.29718   0.61255   0.00000  Uiso   1.00
H952   H     0.49053   0.24871   0.64385   0.00000  Uiso   1.00
H953   H     0.41055   0.26740   0.72219   0.00000  Uiso   1.00
H954   H     0.41072   0.31339   0.68738   0.00000  Uiso   1.00
H955   H     0.41914   0.06591   0.62770   0.00000  Uiso   1.00
H956   H     0.36022   0.06452   0.67940   0.00000  Uiso   1.00
H957   H     0.37419   0.10005   0.62145   0.00000  Uiso   1.00
H958   H     0.61660   0.11088   0.92463   0.00000  Uiso   1.00
H959   H     0.65314   0.12026   0.85390   0.00000  Uiso   1.00
H960   H     0.64601   0.06837   0.88114   0.00000  Uiso   1.00
H961   H     0.35753   0.21394   0.81007   0.00000  Uiso   1.00
H962   H     0.39419   0.10020   0.87115   0.00000  Uiso   1.00
H963   H     0.35881   0.08615   0.94027   0.00000  Uiso   1.00
H964   H     0.66370   0.15956   0.95904   0.00000  Uiso   1.00
H965   H     0.36601   0.17515   0.89307   0.00000  Uiso   1.00
H966   H     0.50194   0.29317   0.92086   0.00000  Uiso   1.00
H967   H     0.45295   0.26219   0.91175   0.00000  Uiso   1.00
H968   H     0.49114   0.29377   0.85762   0.00000  Uiso   1.00
H969   H     0.60697   0.21423   0.80953   0.00000  Uiso   1.00
H970   H     0.58820   0.24556   0.91707   0.00000  Uiso   1.00
H971   H     0.62249   0.23280   0.98820   0.00000  Uiso   1.00
H972   H     0.48563   0.13848   0.58222   0.00000  Uiso   1.00
H973   H     0.42237   0.15129   0.56658   0.00000  Uiso   1.00
H974   H     0.36137   0.14038   0.52711   0.00000  Uiso   1.00
N975   N     0.38093   0.16668   0.75002   0.00000  Uiso   1.00
N976   N     0.61906   0.16665   0.75001   0.00000  Uiso   1.00
O977   O     0.46179   0.22775   0.75001   0.00000  Uiso   1.00
O978   O     0.42376   0.04118   0.72998   0.00000  Uiso   1.00
O979   O     0.40444   0.11553   0.68056   0.00000  Uiso   1.00
O980   O     0.52317   0.24064   0.87097   0.00000  Uiso   1.00
O981   O     0.53823   0.22774   0.75001   0.00000  Uiso   1.00
O982   O     0.44280   0.16666   0.82681   0.00000  Uiso   1.00
O983   O     0.51924   0.16665   0.82681   0.00000  Uiso   1.00
O984   O     0.46177   0.10559   0.75000   0.00000  Uiso   1.00
O985   O     0.53821   0.10558   0.75000   0.00000  Uiso   1.00
O986   O     0.48076   0.16668   0.67319   0.00000  Uiso   1.00
O987   O     0.55720   0.16667   0.67319   0.00000  Uiso   1.00
O988   O     0.61829   0.20861   0.58685   0.00000  Uiso   1.00
Zn989  Zn    0.44896   0.16667   0.75000   0.00000  Uiso   1.00
Zn990  Zn    0.55104   0.16666   0.75000   0.00000  Uiso   1.00
C991   C     0.83483   0.24649   0.74530   0.00000  Uiso   1.00
C992   C     0.78688   0.17296   0.91283   0.00000  Uiso   1.00
C993   C     0.87347   0.31222   0.74930   0.00000  Uiso   1.00
C994   C     0.80597   0.16866   0.85272   0.00000  Uiso   1.00
C995   C     0.87230   0.02122   0.75222   0.00000  Uiso   1.00
C996   C     0.83346   0.04207   0.74592   0.00000  Uiso   1.00
C997   C     0.79666   0.02051   0.73355   0.00000  Uiso   1.00
C998   C     0.80123   0.31144   0.72303   0.00000  Uiso   1.00
C999   C     0.83695   0.29046   0.73763   0.00000  Uiso   1.00
C1000  C     0.98577   0.14068   0.71618   0.00000  Uiso   1.00
C1001  C     0.70137   0.14034   0.71556   0.00000  Uiso   1.00
C1002  C     0.81162   0.17352   0.99210   0.00000  Uiso   1.00
C1003  C     0.68067   0.19290   0.78337   0.00000  Uiso   1.00
C1004  C     0.96618   0.19296   0.78321   0.00000  Uiso   1.00
C1005  C     0.83302   0.08645   0.74979   0.00000  Uiso   1.00
C1006  C     0.86046   0.16694   0.64751   0.00000  Uiso   1.00
C1007  C     0.92456   0.21364   0.50951   0.00000  Uiso   1.00
C1008  C     0.87796   0.17342   0.58871   0.00000  Uiso   1.00
C1009  C     0.73984   0.15839   0.94554   0.00000  Uiso   1.00
C1010  C     0.73014   0.15122   0.50101   0.00000  Uiso   1.00
C1011  C     0.76593   0.15695   0.52346   0.00000  Uiso   1.00
C1012  C     0.94864   0.25109   0.60086   0.00000  Uiso   1.00
C1013  C     0.81883   0.18726   0.93894   0.00000  Uiso   1.00
C1014  C     0.71756   0.03500   0.77900   0.00000  Uiso   1.00
C1015  C     0.76871   0.29065   0.69537   0.00000  Uiso   1.00
C1016  C     0.79830   0.27212   0.63958   0.00000  Uiso   1.00
C1017  C     0.76529   0.25163   0.61268   0.00000  Uiso   1.00
C1018  C     0.72133   0.08542   0.65134   0.00000  Uiso   1.00
C1019  C     0.69796   0.15247   0.92518   0.00000  Uiso   1.00
C1020  C     0.69458   0.10779   0.90650   0.00000  Uiso   1.00
C1021  C     0.98314   0.10158   0.89052   0.00000  Uiso   1.00
C1022  C     0.82412   0.27365   0.89184   0.00000  Uiso   1.00
C1023  C     0.84914   0.17938   0.51333   0.00000  Uiso   1.00
C1024  C     0.88941   0.20510   0.98586   0.00000  Uiso   1.00
C1025  C     0.89243   0.22384   0.93689   0.00000  Uiso   1.00
C1026  C     0.85658   0.21642   0.91434   0.00000  Uiso   1.00
C1027  C     0.84679   0.16100   0.56215   0.00000  Uiso   1.00
C1028  C     0.91816   0.19913   0.56213   0.00000  Uiso   1.00
H1029  H     0.90087   0.03743   0.76166   0.00000  Uiso   1.00
H1030  H     0.90210   0.29656   0.75832   0.00000  Uiso   1.00
H1031  H     0.97147   0.25714   0.62611   0.00000  Uiso   1.00
H1032  H     0.91098   0.26007   0.62577   0.00000  Uiso   1.00
H1033  H     0.96284   0.27084   0.56392   0.00000  Uiso   1.00
H1034  H     0.68797   0.05601   0.77932   0.00000  Uiso   1.00
H1035  H     0.72728   0.04239   0.81555   0.00000  Uiso   1.00
H1036  H     0.70336   0.00269   0.78188   0.00000  Uiso   1.00
H1037  H     0.73763   0.27377   0.61008   0.00000  Uiso   1.00
H1038  H     0.78715   0.24179   0.57064   0.00000  Uiso   1.00
H1039  H     0.74690   0.22397   0.63634   0.00000  Uiso   1.00
H1040  H     0.97375   0.12083   0.68986   0.00000  Uiso   1.00
H1041  H     0.81974   0.29718   0.61255   0.00000  Uiso   1.00
H1042  H     0.82387   0.24871   0.64385   0.00000  Uiso   1.00
H1043  H     0.74388   0.26740   0.72219   0.00000  Uiso   1.00
H1044  H     0.74405   0.31339   0.68738   0.00000  Uiso   1.00
H1045  H     0.75247   0.06591   0.62770   0.00000  Uiso   1.00
H1046  H     0.69355   0.06452   0.67940   0.00000  Uiso   1.00
H1047  H     0.70753   0.10005   0.62145   0.00000  Uiso   1.00
H1048  H     0.94993   0.11088   0.92463   0.00000  Uiso   1.00
H1049  H     0.98647   0.12026   0.85390   0.00000  Uiso   1.00
H1050  H     0.97934   0.06837   0.88114   0.00000  Uiso   1.00
H1051  H     0.69087   0.21394   0.81007   0.00000  Uiso   1.00
H1052  H     0.72753   0.10020   0.87115   0.00000  Uiso   1.00
H1053  H     0.69214   0.08615   0.94027   0.00000  Uiso   1.00
H1054  H     0.99704   0.15956   0.95904   0.00000  Uiso   1.00
H1055  H     0.69934   0.17515   0.89307   0.00000  Uiso   1.00
H1056  H     0.83528   0.29317   0.92086   0.00000  Uiso   1.00
H1057  H     0.78628   0.26219   0.91175   0.00000  Uiso   1.00
H1058  H     0.82447   0.29377   0.85762   0.00000  Uiso   1.00
H1059  H     0.94030   0.21423   0.80953   0.00000  Uiso   1.00
H1060  H     0.92153   0.24556   0.91707   0.00000  Uiso   1.00
H1061  H     0.95583   0.23280   0.98820   0.00000  Uiso   1.00
H1062  H     0.81896   0.13848   0.58222   0.00000  Uiso   1.00
H1063  H     0.75571   0.15129   0.56658   0.00000  Uiso   1.00
H1064  H     0.69470   0.14038   0.52711   0.00000  Uiso   1.00
N1065  N     0.71426   0.16668   0.75002   0.00000  Uiso   1.00
N1066  N     0.95239   0.16665   0.75001   0.00000  Uiso   1.00
O1067  O     0.79512   0.22775   0.75001   0.00000  Uiso   1.00
O1068  O     0.75709   0.04118   0.72998   0.00000  Uiso   1.00
O1069  O     0.73778   0.11553   0.68056   0.00000  Uiso   1.00
O1070  O     0.85651   0.24064   0.87097   0.00000  Uiso   1.00
O1071  O     0.87157   0.22774   0.75001   0.00000  Uiso   1.00
O1072  O     0.77613   0.16666   0.82681   0.00000  Uiso   1.00
O1073  O     0.85258   0.16665   0.82681   0.00000  Uiso   1.00
O1074  O     0.79510   0.10559   0.75000   0.00000  Uiso   1.00
O1075  O     0.87154   0.10558   0.75000   0.00000  Uiso   1.00
O1076  O     0.81409   0.16668   0.67319   0.00000  Uiso   1.00
O1077  O     0.89053   0.16667   0.67319   0.00000  Uiso   1.00
O1078  O     0.95162   0.20861   0.58685   0.00000  Uiso   1.00
Zn1079 Zn    0.78229   0.16667   0.75000   0.00000  Uiso   1.00
Zn1080 Zn    0.88438   0.16666   0.75000   0.00000  Uiso   1.00
C1081  C     0.16817   0.57982   0.74530   0.00000  Uiso   1.00
C1082  C     0.12021   0.50629   0.91283   0.00000  Uiso   1.00
C1083  C     0.20681   0.64556   0.74930   0.00000  Uiso   1.00
C1084  C     0.13931   0.50200   0.85272   0.00000  Uiso   1.00
C1085  C     0.20563   0.35456   0.75222   0.00000  Uiso   1.00
C1086  C     0.16679   0.37541   0.74592   0.00000  Uiso   1.00
C1087  C     0.13000   0.35384   0.73355   0.00000  Uiso   1.00
C1088  C     0.13457   0.64477   0.72303   0.00000  Uiso   1.00
C1089  C     0.17029   0.62379   0.73763   0.00000  Uiso   1.00
C1090  C     0.31910   0.47401   0.71618   0.00000  Uiso   1.00
C1091  C     0.03471   0.47368   0.71556   0.00000  Uiso   1.00
C1092  C     0.14496   0.50685   0.99210   0.00000  Uiso   1.00
C1093  C     0.01400   0.52623   0.78337   0.00000  Uiso   1.00
C1094  C     0.29951   0.52629   0.78321   0.00000  Uiso   1.00
C1095  C     0.16636   0.41979   0.74979   0.00000  Uiso   1.00
C1096  C     0.19379   0.50027   0.64751   0.00000  Uiso   1.00
C1097  C     0.25790   0.54697   0.50951   0.00000  Uiso   1.00
C1098  C     0.21130   0.50676   0.58871   0.00000  Uiso   1.00
C1099  C     0.07318   0.49172   0.94554   0.00000  Uiso   1.00
C1100  C     0.06347   0.48455   0.50101   0.00000  Uiso   1.00
C1101  C     0.09926   0.49028   0.52346   0.00000  Uiso   1.00
C1102  C     0.28197   0.58442   0.60086   0.00000  Uiso   1.00
C1103  C     0.15216   0.52060   0.93894   0.00000  Uiso   1.00
C1104  C     0.05090   0.36833   0.77900   0.00000  Uiso   1.00
C1105  C     0.10205   0.62399   0.69537   0.00000  Uiso   1.00
C1106  C     0.13163   0.60546   0.63958   0.00000  Uiso   1.00
C1107  C     0.09862   0.58496   0.61268   0.00000  Uiso   1.00
C1108  C     0.05466   0.41875   0.65134   0.00000  Uiso   1.00
C1109  C     0.03130   0.48580   0.92518   0.00000  Uiso   1.00
C1110  C     0.02792   0.44112   0.90650   0.00000  Uiso   1.00
C1111  C     0.31648   0.43492   0.89052   0.00000  Uiso   1.00
C1112  C     0.15745   0.60699   0.89184   0.00000  Uiso   1.00
C1113  C     0.18247   0.51271   0.51333   0.00000  Uiso   1.00
C1114  C     0.22274   0.53843   0.98586   0.00000  Uiso   1.00
C1115  C     0.22577   0.55717   0.93689   0.00000  Uiso   1.00
C1116  C     0.18991   0.54976   0.91434   0.00000  Uiso   1.00
C1117  C     0.18013   0.49434   0.56215   0.00000  Uiso   1.00
C1118  C     0.25150   0.53247   0.56213   0.00000  Uiso   1.00
H1119  H     0.23420   0.37076   0.76166   0.00000  Uiso   1.00
H1120  H     0.23544   0.62989   0.75832   0.00000  Uiso   1.00
H1121  H     0.30480   0.59047   0.62611   0.00000  Uiso   1.00
H1122  H     0.24432   0.59340   0.62577   0.00000  Uiso   1.00
H1123  H     0.29617   0.60418   0.56392   0.00000  Uiso   1.00
H1124  H     0.02131   0.38935   0.77932   0.00000  Uiso   1.00
H1125  H     0.06062   0.37573   0.81555   0.00000  Uiso   1.00
H1126  H     0.03670   0.33602   0.78188   0.00000  Uiso   1.00
H1127  H     0.07096   0.60711   0.61008   0.00000  Uiso   1.00
H1128  H     0.12049   0.57512   0.57064   0.00000  Uiso   1.00
H1129  H     0.08023   0.55730   0.63634   0.00000  Uiso   1.00
H1130  H     0.30708   0.45416   0.68986   0.00000  Uiso   1.00
H1131  H     0.15308   0.63051   0.61255   0.00000  Uiso   1.00
H1132  H     0.15720   0.58204   0.64385   0.00000  Uiso   1.00
H1133  H     0.07721   0.60074   0.72219   0.00000  Uiso   1.00
H1134  H     0.07739   0.64672   0.68738   0.00000  Uiso   1.00
H1135  H     0.08580   0.39924   0.62770   0.00000  Uiso   1.00
H1136  H     0.02688   0.39786   0.67940   0.00000  Uiso   1.00
H1137  H     0.04086   0.43338   0.62145   0.00000  Uiso   1.00
H1138  H     0.28327   0.44422   0.92463   0.00000  Uiso   1.00
H1139  H     0.31981   0.45359   0.85390   0.00000  Uiso   1.00
H1140  H     0.31267   0.40170   0.88114   0.00000  Uiso   1.00
H1141  H     0.02420   0.54727   0.81007   0.00000  Uiso   1.00
H1142  H     0.06086   0.43353   0.87115   0.00000  Uiso   1.00
H1143  H     0.02548   0.41949   0.94027   0.00000  Uiso   1.00
H1144  H     0.33037   0.49289   0.95904   0.00000  Uiso   1.00
H1145  H     0.03267   0.50848   0.89307   0.00000  Uiso   1.00
H1146  H     0.16861   0.62651   0.92086   0.00000  Uiso   1.00
H1147  H     0.11962   0.59553   0.91175   0.00000  Uiso   1.00
H1148  H     0.15780   0.62710   0.85762   0.00000  Uiso   1.00
H1149  H     0.27363   0.54756   0.80953   0.00000  Uiso   1.00
H1150  H     0.25487   0.57890   0.91707   0.00000  Uiso   1.00
H1151  H     0.28916   0.56614   0.98820   0.00000  Uiso   1.00
H1152  H     0.15229   0.47182   0.58222   0.00000  Uiso   1.00
H1153  H     0.08904   0.48462   0.56658   0.00000  Uiso   1.00
H1154  H     0.02803   0.47372   0.52711   0.00000  Uiso   1.00
N1155  N     0.04760   0.50001   0.75002   0.00000  Uiso   1.00
N1156  N     0.28573   0.49998   0.75001   0.00000  Uiso   1.00
O1157  O     0.12846   0.56108   0.75001   0.00000  Uiso   1.00
O1158  O     0.09042   0.37452   0.72998   0.00000  Uiso   1.00
O1159  O     0.07111   0.44886   0.68056   0.00000  Uiso   1.00
O1160  O     0.18984   0.57398   0.87097   0.00000  Uiso   1.00
O1161  O     0.20490   0.56107   0.75001   0.00000  Uiso   1.00
O1162  O     0.10947   0.50000   0.82681   0.00000  Uiso   1.00
O1163  O     0.18591   0.49999   0.82681   0.00000  Uiso   1.00
O1164  O     0.12843   0.43893   0.75000   0.00000  Uiso   1.00
O1165  O     0.20488   0.43892   0.75000   0.00000  Uiso   1.00
O1166  O     0.14742   0.50001   0.67319   0.00000  Uiso   1.00
O1167  O     0.22387   0.50000   0.67319   0.00000  Uiso   1.00
O1168  O     0.28495   0.54194   0.58685   0.00000  Uiso   1.00
Zn1169 Zn    0.11562   0.50001   0.75000   0.00000  Uiso   1.00
Zn1170 Zn    0.21771   0.49999   0.75000   0.00000  Uiso   1.00
C1171  C     0.50150   0.57982   0.74530   0.00000  Uiso   1.00
C1172  C     0.45354   0.50629   0.91283   0.00000  Uiso   1.00
C1173  C     0.54014   0.64556   0.74930   0.00000  Uiso   1.00
C1174  C     0.47264   0.50200   0.85272   0.00000  Uiso   1.00
C1175  C     0.53897   0.35456   0.75222   0.00000  Uiso   1.00
C1176  C     0.50012   0.37541   0.74592   0.00000  Uiso   1.00
C1177  C     0.46333   0.35384   0.73355   0.00000  Uiso   1.00
C1178  C     0.46790   0.64477   0.72303   0.00000  Uiso   1.00
C1179  C     0.50362   0.62379   0.73763   0.00000  Uiso   1.00
C1180  C     0.65243   0.47401   0.71618   0.00000  Uiso   1.00
C1181  C     0.36804   0.47368   0.71556   0.00000  Uiso   1.00
C1182  C     0.47829   0.50685   0.99210   0.00000  Uiso   1.00
C1183  C     0.34734   0.52623   0.78337   0.00000  Uiso   1.00
C1184  C     0.63285   0.52629   0.78321   0.00000  Uiso   1.00
C1185  C     0.49969   0.41979   0.74979   0.00000  Uiso   1.00
C1186  C     0.52713   0.50027   0.64751   0.00000  Uiso   1.00
C1187  C     0.59123   0.54697   0.50951   0.00000  Uiso   1.00
C1188  C     0.54463   0.50676   0.58871   0.00000  Uiso   1.00
C1189  C     0.40651   0.49172   0.94554   0.00000  Uiso   1.00
C1190  C     0.39680   0.48455   0.50101   0.00000  Uiso   1.00
C1191  C     0.43260   0.49028   0.52346   0.00000  Uiso   1.00
C1192  C     0.61530   0.58442   0.60086   0.00000  Uiso   1.00
C1193  C     0.48550   0.52060   0.93894   0.00000  Uiso   1.00
C1194  C     0.38423   0.36833   0.77900   0.00000  Uiso   1.00
C1195  C     0.43538   0.62399   0.69537   0.00000  Uiso   1.00
C1196  C     0.46496   0.60546   0.63958   0.00000  Uiso   1.00
C1197  C     0.43196   0.58496   0.61268   0.00000  Uiso   1.00
C1198  C     0.38799   0.41875   0.65134   0.00000  Uiso   1.00
C1199  C     0.36463   0.48580   0.92518   0.00000  Uiso   1.00
C1200  C     0.36125   0.44112   0.90650   0.00000  Uiso   1.00
C1201  C     0.64981   0.43492   0.89052   0.00000  Uiso   1.00
C1202  C     0.49079   0.60699   0.89184   0.00000  Uiso   1.00
C1203  C     0.51580   0.51271   0.51333   0.00000  Uiso   1.00
C1204  C     0.55608   0.53843   0.98586   0.00000  Uiso   1.00
C1205  C     0.55910   0.55717   0.93689   0.00000  Uiso   1.00
C1206  C     0.52325   0.54976   0.91434   0.00000  Uiso   1.00
C1207  C     0.51346   0.49434   0.56215   0.00000  Uiso   1.00
C1208  C     0.58483   0.53247   0.56213   0.00000  Uiso   1.00
H1209  H     0.56753   0.37076   0.76166   0.00000  Uiso   1.00
H1210  H     0.56877   0.62989   0.75832   0.00000  Uiso   1.00
H1211  H     0.63813   0.59047   0.62611   0.00000  Uiso   1.00
H1212  H     0.57765   0.59340   0.62577   0.00000  Uiso   1.00
H1213  H     0.62951   0.60418   0.56392   0.00000  Uiso   1.00
H1214  H     0.35464   0.38935   0.77932   0.00000  Uiso   1.00
H1215  H     0.39395   0.37573   0.81555   0.00000  Uiso   1.00
H1216  H     0.37003   0.33602   0.78188   0.00000  Uiso   1.00
H1217  H     0.40430   0.60711   0.61008   0.00000  Uiso   1.00
H1218  H     0.45382   0.57512   0.57064   0.00000  Uiso   1.00
H1219  H     0.41357   0.55730   0.63634   0.00000  Uiso   1.00
H1220  H     0.64041   0.45416   0.68986   0.00000  Uiso   1.00
H1221  H     0.48641   0.63051   0.61255   0.00000  Uiso   1.00
H1222  H     0.49053   0.58204   0.64385   0.00000  Uiso   1.00
H1223  H     0.41055   0.60074   0.72219   0.00000  Uiso   1.00
H1224  H     0.41072   0.64672   0.68738   0.00000  Uiso   1.00
H1225  H     0.41914   0.39924   0.62770   0.00000  Uiso   1.00
H1226  H     0.36022   0.39786   0.67940   0.00000  Uiso   1.00
H1227  H     0.37419   0.43338   0.62145   0.00000  Uiso   1.00
H1228  H     0.61660   0.44422   0.92463   0.00000  Uiso   1.00
H1229  H     0.65314   0.45359   0.85390   0.00000  Uiso   1.00
H1230  H     0.64601   0.40170   0.88114   0.00000  Uiso   1.00
H1231  H     0.35753   0.54727   0.81007   0.00000  Uiso   1.00
H1232  H     0.39419   0.43353   0.87115   0.00000  Uiso   1.00
H1233  H     0.35881   0.41949   0.94027   0.00000  Uiso   1.00
H1234  H     0.66370   0.49289   0.95904   0.00000  Uiso   1.00
H1235  H     0.36601   0.50848   0.89307   0.00000  Uiso   1.00
H1236  H     0.50194   0.62651   0.92086   0.00000  Uiso   1.00
H1237  H     0.45295   0.59553   0.91175   0.00000  Uiso   1.00
H1238  H     0.49114   0.62710   0.85762   0.00000  Uiso   1.00
H1239  H     0.60697   0.54756   0.80953   0.00000  Uiso   1.00
H1240  H     0.58820   0.57890   0.91707   0.00000  Uiso   1.00
H1241  H     0.62249   0.56614   0.98820   0.00000  Uiso   1.00
H1242  H     0.48563   0.47182   0.58222   0.00000  Uiso   1.00
H1243  H     0.42237   0.48462   0.56658   0.00000  Uiso   1.00
H1244  H     0.36137   0.47372   0.52711   0.00000  Uiso   1.00
N1245  N     0.38093   0.50001   0.75002   0.00000  Uiso   1.00
N1246  N     0.61906   0.49998   0.75001   0.00000  Uiso   1.00
O1247  O     0.46179   0.56108   0.75001   0.00000  Uiso   1.00
O1248  O     0.42376   0.37452   0.72998   0.00000  Uiso   1.00
O1249  O     0.40444   0.44886   0.68056   0.00000  Uiso   1.00
O1250  O     0.52317   0.57398   0.87097   0.00000  Uiso   1.00
O1251  O     0.53823   0.56107   0.75001   0.00000  Uiso   1.00
O1252  O     0.44280   0.50000   0.82681   0.00000  Uiso   1.00
O1253  O     0.51924   0.49999   0.82681   0.00000  Uiso   1.00
O1254  O     0.46177   0.43893   0.75000   0.00000  Uiso   1.00
O1255  O     0.53821   0.43892   0.75000   0.00000  Uiso   1.00
O1256  O     0.48076   0.50001   0.67319   0.00000  Uiso   1.00
O1257  O     0.55720   0.50000   0.67319   0.00000  Uiso   1.00
O1258  O     0.61829   0.54194   0.58685   0.00000  Uiso   1.00
Zn1259 Zn    0.44896   0.50001   0.75000   0.00000  Uiso   1.00
Zn1260 Zn    0.55104   0.49999   0.75000   0.00000  Uiso   1.00
C1261  C     0.83483   0.57982   0.74530   0.00000  Uiso   1.00
C1262  C     0.78688   0.50629   0.91283   0.00000  Uiso   1.00
C1263  C     0.87347   0.64556   0.74930   0.00000  Uiso   1.00
C1264  C     0.80597   0.50200   0.85272   0.00000  Uiso   1.00
C1265  C     0.87230   0.35456   0.75222   0.00000  Uiso   1.00
C1266  C     0.83346   0.37541   0.74592   0.00000  Uiso   1.00
C1267  C     0.79666   0.35384   0.73355   0.00000  Uiso   1.00
C1268  C     0.80123   0.64477   0.72303   0.00000  Uiso   1.00
C1269  C     0.83695   0.62379   0.73763   0.00000  Uiso   1.00
C1270  C     0.98577   0.47401   0.71618   0.00000  Uiso   1.00
C1271  C     0.70137   0.47368   0.71556   0.00000  Uiso   1.00
C1272  C     0.81162   0.50685   0.99210   0.00000  Uiso   1.00
C1273  C     0.68067   0.52623   0.78337   0.00000  Uiso   1.00
C1274  C     0.96618   0.52629   0.78321   0.00000  Uiso   1.00
C1275  C     0.83302   0.41979   0.74979   0.00000  Uiso   1.00
C1276  C     0.86046   0.50027   0.64751   0.00000  Uiso   1.00
C1277  C     0.92456   0.54697   0.50951   0.00000  Uiso   1.00
C1278  C     0.87796   0.50676   0.58871   0.00000  Uiso   1.00
C1279  C     0.73984   0.49172   0.94554   0.00000  Uiso   1.00
C1280  C     0.73014   0.48455   0.50101   0.00000  Uiso   1.00
C1281  C     0.76593   0.49028   0.52346   0.00000  Uiso   1.00
C1282  C     0.94864   0.58442   0.60086   0.00000  Uiso   1.00
C1283  C     0.81883   0.52060   0.93894   0.00000  Uiso   1.00
C1284  C     0.71756   0.36833   0.77900   0.00000  Uiso   1.00
C1285  C     0.76871   0.62399   0.69537   0.00000  Uiso   1.00
C1286  C     0.79830   0.60546   0.63958   0.00000  Uiso   1.00
C1287  C     0.76529   0.58496   0.61268   0.00000  Uiso   1.00
C1288  C     0.72133   0.41875   0.65134   0.00000  Uiso   1.00
C1289  C     0.69796   0.48580   0.92518   0.00000  Uiso   1.00
C1290  C     0.69458   0.44112   0.90650   0.00000  Uiso   1.00
C1291  C     0.98314   0.43492   0.89052   0.00000  Uiso   1.00
C1292  C     0.82412   0.60699   0.89184   0.00000  Uiso   1.00
C1293  C     0.84914   0.51271   0.51333   0.00000  Uiso   1.00
C1294  C     0.88941   0.53843   0.98586   0.00000  Uiso   1.00
C1295  C     0.89243   0.55717   0.93689   0.00000  Uiso   1.00
C1296  C     0.85658   0.54976   0.91434   0.00000  Uiso   1.00
C1297  C     0.84679   0.49434   0.56215   0.00000  Uiso   1.00
C1298  C     0.91816   0.53247   0.56213   0.00000  Uiso   1.00
H1299  H     0.90087   0.37076   0.76166   0.00000  Uiso   1.00
H1300  H     0.90210   0.62989   0.75832   0.00000  Uiso   1.00
H1301  H     0.97147   0.59047   0.62611   0.00000  Uiso   1.00
H1302  H     0.91098   0.59340   0.62577   0.00000  Uiso   1.00
H1303  H     0.96284   0.60418   0.56392   0.00000  Uiso   1.00
H1304  H     0.68797   0.38935   0.77932   0.00000  Uiso   1.00
H1305  H     0.72728   0.37573   0.81555   0.00000  Uiso   1.00
H1306  H     0.70336   0.33602   0.78188   0.00000  Uiso   1.00
H1307  H     0.73763   0.60711   0.61008   0.00000  Uiso   1.00
H1308  H     0.78715   0.57512   0.57064   0.00000  Uiso   1.00
H1309  H     0.74690   0.55730   0.63634   0.00000  Uiso   1.00
H1310  H     0.97375   0.45416   0.68986   0.00000  Uiso   1.00
H1311  H     0.81974   0.63051   0.61255   0.00000  Uiso   1.00
H1312  H     0.82387   0.58204   0.64385   0.00000  Uiso   1.00
H1313  H     0.74388   0.60074   0.72219   0.00000  Uiso   1.00
H1314  H     0.74405   0.64672   0.68738   0.00000  Uiso   1.00
H1315  H     0.75247   0.39924   0.62770   0.00000  Uiso   1.00
H1316  H     0.69355   0.39786   0.67940   0.00000  Uiso   1.00
H1317  H     0.70753   0.43338   0.62145   0.00000  Uiso   1.00
H1318  H     0.94993   0.44422   0.92463   0.00000  Uiso   1.00
H1319  H     0.98647   0.45359   0.85390   0.00000  Uiso   1.00
H1320  H     0.97934   0.40170   0.88114   0.00000  Uiso   1.00
H1321  H     0.69087   0.54727   0.81007   0.00000  Uiso   1.00
H1322  H     0.72753   0.43353   0.87115   0.00000  Uiso   1.00
H1323  H     0.69214   0.41949   0.94027   0.00000  Uiso   1.00
H1324  H     0.99704   0.49289   0.95904   0.00000  Uiso   1.00
H1325  H     0.69934   0.50848   0.89307   0.00000  Uiso   1.00
H1326  H     0.83528   0.62651   0.92086   0.00000  Uiso   1.00
H1327  H     0.78628   0.59553   0.91175   0.00000  Uiso   1.00
H1328  H     0.82447   0.62710   0.85762   0.00000  Uiso   1.00
H1329  H     0.94030   0.54756   0.80953   0.00000  Uiso   1.00
H1330  H     0.92153   0.57890   0.91707   0.00000  Uiso   1.00
H1331  H     0.95583   0.56614   0.98820   0.00000  Uiso   1.00
H1332  H     0.81896   0.47182   0.58222   0.00000  Uiso   1.00
H1333  H     0.75571   0.48462   0.56658   0.00000  Uiso   1.00
H1334  H     0.69470   0.47372   0.52711   0.00000  Uiso   1.00
N1335  N     0.71426   0.50001   0.75002   0.00000  Uiso   1.00
N1336  N     0.95239   0.49998   0.75001   0.00000  Uiso   1.00
O1337  O     0.79512   0.56108   0.75001   0.00000  Uiso   1.00
O1338  O     0.75709   0.37452   0.72998   0.00000  Uiso   1.00
O1339  O     0.73778   0.44886   0.68056   0.00000  Uiso   1.00
O1340  O     0.85651   0.57398   0.87097   0.00000  Uiso   1.00
O1341  O     0.87157   0.56107   0.75001   0.00000  Uiso   1.00
O1342  O     0.77613   0.50000   0.82681   0.00000  Uiso   1.00
O1343  O     0.85258   0.49999   0.82681   0.00000  Uiso   1.00
O1344  O     0.79510   0.43893   0.75000   0.00000  Uiso   1.00
O1345  O     0.87154   0.43892   0.75000   0.00000  Uiso   1.00
O1346  O     0.81409   0.50001   0.67319   0.00000  Uiso   1.00
O1347  O     0.89053   0.50000   0.67319   0.00000  Uiso   1.00
O1348  O     0.95162   0.54194   0.58685   0.00000  Uiso   1.00
Zn1349 Zn    0.78229   0.50001   0.75000   0.00000  Uiso   1.00
Zn1350 Zn    0.88438   0.49999   0.75000   0.00000  Uiso   1.00
C1351  C     0.16817   0.91315   0.74530   0.00000  Uiso   1.00
C1352  C     0.12021   0.83962   0.91283   0.00000  Uiso   1.00
C1353  C     0.20681   0.97889   0.74930   0.00000  Uiso   1.00
C1354  C     0.13931   0.83533   0.85272   0.00000  Uiso   1.00
C1355  C     0.20563   0.68789   0.75222   0.00000  Uiso   1.00
C1356  C     0.16679   0.70874   0.74592   0.00000  Uiso   1.00
C1357  C     0.13000   0.68718   0.73355   0.00000  Uiso   1.00
C1358  C     0.13457   0.97811   0.72303   0.00000  Uiso   1.00
C1359  C     0.17029   0.95712   0.73763   0.00000  Uiso   1.00
C1360  C     0.31910   0.80734   0.71618   0.00000  Uiso   1.00
C1361  C     0.03471   0.80701   0.71556   0.00000  Uiso   1.00
C1362  C     0.14496   0.84018   0.99210   0.00000  Uiso   1.00
C1363  C     0.01400   0.85956   0.78337   0.00000  Uiso   1.00
C1364  C     0.29951   0.85962   0.78321   0.00000  Uiso   1.00
C1365  C     0.16636   0.75312   0.74979   0.00000  Uiso   1.00
C1366  C     0.19379   0.83361   0.64751   0.00000  Uiso   1.00
C1367  C     0.25790   0.88030   0.50951   0.00000  Uiso   1.00
C1368  C     0.21130   0.84009   0.58871   0.00000  Uiso   1.00
C1369  C     0.07318   0.82505   0.94554   0.00000  Uiso   1.00
C1370  C     0.06347   0.81789   0.50101   0.00000  Uiso   1.00
C1371  C     0.09926   0.82361   0.52346   0.00000  Uiso   1.00
C1372  C     0.28197   0.91776   0.60086   0.00000  Uiso   1.00
C1373  C     0.15216   0.85393   0.93894   0.00000  Uiso   1.00
C1374  C     0.05090   0.70167   0.77900   0.00000  Uiso   1.00
C1375  C     0.10205   0.95732   0.69537   0.00000  Uiso   1.00
C1376  C     0.13163   0.93879   0.63958   0.00000  Uiso   1.00
C1377  C     0.09862   0.91829   0.61268   0.00000  Uiso   1.00
C1378  C     0.05466   0.75208   0.65134   0.00000  Uiso   1.00
C1379  C     0.03130   0.81913   0.92518   0.00000  Uiso   1.00
C1380  C     0.02792   0.77446   0.90650   0.00000  Uiso   1.00
C1381  C     0.31648   0.76825   0.89052   0.00000  Uiso   1.00
C1382  C     0.15745   0.94032   0.89184   0.00000  Uiso   1.00
C1383  C     0.18247   0.84604   0.51333   0.00000  Uiso   1.00
C1384  C     0.22274   0.87177   0.98586   0.00000  Uiso   1.00
C1385  C     0.22577   0.89051   0.93689   0.00000  Uiso   1.00
C1386  C     0.18991   0.88309   0.91434   0.00000  Uiso   1.00
C1387  C     0.18013   0.82767   0.56215   0.00000  Uiso   1.00
C1388  C     0.25150   0.86580   0.56213   0.00000  Uiso   1.00
H1389  H     0.23420   0.70410   0.76166   0.00000  Uiso   1.00
H1390  H     0.23544   0.96323   0.75832   0.00000  Uiso   1.00
H1391  H     0.30480   0.92380   0.62611   0.00000  Uiso   1.00
H1392  H     0.24432   0.92674   0.62577   0.00000  Uiso   1.00
H1393  H     0.29617   0.93751   0.56392   0.00000  Uiso   1.00
H1394  H     0.02131   0.72268   0.77932   0.00000  Uiso   1.00
H1395  H     0.06062   0.70906   0.81555   0.00000  Uiso   1.00
H1396  H     0.03670   0.66935   0.78188   0.00000  Uiso   1.00
H1397  H     0.07096   0.94044   0.61008   0.00000  Uiso   1.00
H1398  H     0.12049   0.90846   0.57064   0.00000  Uiso   1.00
H1399  H     0.08023   0.89064   0.63634   0.00000  Uiso   1.00
H1400  H     0.30708   0.78749   0.68986   0.00000  Uiso   1.00
H1401  H     0.15308   0.96384   0.61255   0.00000  Uiso   1.00
H1402  H     0.15720   0.91537   0.64385   0.00000  Uiso   1.00
H1403  H     0.07721   0.93407   0.72219   0.00000  Uiso   1.00
H1404  H     0.07739   0.98006   0.68738   0.00000  Uiso   1.00
H1405  H     0.08580   0.73258   0.62770   0.00000  Uiso   1.00
H1406  H     0.02688   0.73119   0.67940   0.00000  Uiso   1.00
H1407  H     0.04086   0.76672   0.62145   0.00000  Uiso   1.00
H1408  H     0.28327   0.77755   0.92463   0.00000  Uiso   1.00
H1409  H     0.31981   0.78693   0.85390   0.00000  Uiso   1.00
H1410  H     0.31267   0.73504   0.88114   0.00000  Uiso   1.00
H1411  H     0.02420   0.88060   0.81007   0.00000  Uiso   1.00
H1412  H     0.06086   0.76686   0.87115   0.00000  Uiso   1.00
H1413  H     0.02548   0.75282   0.94027   0.00000  Uiso   1.00
H1414  H     0.33037   0.82622   0.95904   0.00000  Uiso   1.00
H1415  H     0.03267   0.84182   0.89307   0.00000  Uiso   1.00
H1416  H     0.16861   0.95984   0.92086   0.00000  Uiso   1.00
H1417  H     0.11962   0.92886   0.91175   0.00000  Uiso   1.00
H1418  H     0.15780   0.96044   0.85762   0.00000  Uiso   1.00
H1419  H     0.27363   0.88090   0.80953   0.00000  Uiso   1.00
H1420  H     0.25487   0.91223   0.91707   0.00000  Uiso   1.00
H1421  H     0.28916   0.89947   0.98820   0.00000  Uiso   1.00
H1422  H     0.15229   0.80515   0.58222   0.00000  Uiso   1.00
H1423  H     0.08904   0.81796   0.56658   0.00000  Uiso   1.00
H1424  H     0.02803   0.80705   0.52711   0.00000  Uiso   1.00
N1425  N     0.04760   0.83334   0.75002   0.00000  Uiso   1.00
N1426  N     0.28573   0.83331   0.75001   0.00000  Uiso   1.00
O1427  O     0.12846   0.89442   0.75001   0.00000  Uiso   1.00
O1428  O     0.09042   0.70785   0.72998   0.00000  Uiso   1.00
O1429  O     0.07111   0.78219   0.68056   0.00000  Uiso   1.00
O1430  O     0.18984   0.90731   0.87097   0.00000  Uiso   1.00
O1431  O     0.20490   0.89441   0.75001   0.00000  Uiso   1.00
O1432  O     0.10947   0.83333   0.82681   0.00000  Uiso   1.00
O1433  O     0.18591   0.83332   0.82681   0.00000  Uiso   1.00
O1434  O     0.12843   0.77226   0.75000   0.00000  Uiso   1.00
O1435  O     0.20488   0.77225   0.75000   0.00000  Uiso   1.00
O1436  O     0.14742   0.83335   0.67319   0.00000  Uiso   1.00
O1437  O     0.22387   0.83334   0.67319   0.00000  Uiso   1.00
O1438  O     0.28495   0.87527   0.58685   0.00000  Uiso   1.00
Zn1439 Zn    0.11562   0.83334   0.75000   0.00000  Uiso   1.00
Zn1440 Zn    0.21771   0.83333   0.75000   0.00000  Uiso   1.00
C1441  C     0.50150   0.91315   0.74530   0.00000  Uiso   1.00
C1442  C     0.45354   0.83962   0.91283   0.00000  Uiso   1.00
C1443  C     0.54014   0.97889   0.74930   0.00000  Uiso   1.00
C1444  C     0.47264   0.83533   0.85272   0.00000  Uiso   1.00
C1445  C     0.53897   0.68789   0.75222   0.00000  Uiso   1.00
C1446  C     0.50012   0.70874   0.74592   0.00000  Uiso   1.00
C1447  C     0.46333   0.68718   0.73355   0.00000  Uiso   1.00
C1448  C     0.46790   0.97811   0.72303   0.00000  Uiso   1.00
C1449  C     0.50362   0.95712   0.73763   0.00000  Uiso   1.00
C1450  C     0.65243   0.80734   0.71618   0.00000  Uiso   1.00
C1451  C     0.36804   0.80701   0.71556   0.00000  Uiso   1.00
C1452  C     0.47829   0.84018   0.99210   0.00000  Uiso   1.00
C1453  C     0.34734   0.85956   0.78337   0.00000  Uiso   1.00
C1454  C     0.63285   0.85962   0.78321   0.00000  Uiso   1.00
C1455  C     0.49969   0.75312   0.74979   0.00000  Uiso   1.00
C1456  C     0.52713   0.83361   0.64751   0.00000  Uiso   1.00
C1457  C     0.59123   0.88030   0.50951   0.00000  Uiso   1.00
C1458  C     0.54463   0.84009   0.58871   0.00000  Uiso   1.00
C1459  C     0.40651   0.82505   0.94554   0.00000  Uiso   1.00
C1460  C     0.39680   0.81789   0.50101   0.00000  Uiso   1.00
C1461  C     0.43260   0.82361   0.52346   0.00000  Uiso   1.00
C1462  C     0.61530   0.91776   0.60086   0.00000  Uiso   1.00
C1463  C     0.48550   0.85393   0.93894   0.00000  Uiso   1.00
C1464  C     0.38423   0.70167   0.77900   0.00000  Uiso   1.00
C1465  C     0.43538   0.95732   0.69537   0.00000  Uiso   1.00
C1466  C     0.46496   0.93879   0.63958   0.00000  Uiso   1.00
C1467  C     0.43196   0.91829   0.61268   0.00000  Uiso   1.00
C1468  C     0.38799   0.75208   0.65134   0.00000  Uiso   1.00
C1469  C     0.36463   0.81913   0.92518   0.00000  Uiso   1.00
C1470  C     0.36125   0.77446   0.90650   0.00000  Uiso   1.00
C1471  C     0.64981   0.76825   0.89052   0.00000  Uiso   1.00
C1472  C     0.49079   0.94032   0.89184   0.00000  Uiso   1.00
C1473  C     0.51580   0.84604   0.51333   0.00000  Uiso   1.00
C1474  C     0.55608   0.87177   0.98586   0.00000  Uiso   1.00
C1475  C     0.55910   0.89051   0.93689   0.00000  Uiso   1.00
C1476  C     0.52325   0.88309   0.91434   0.00000  Uiso   1.00
C1477  C     0.51346   0.82767   0.56215   0.00000  Uiso   1.00
C1478  C     0.58483   0.86580   0.56213   0.00000  Uiso   1.00
H1479  H     0.56753   0.70410   0.76166   0.00000  Uiso   1.00
H1480  H     0.56877   0.96323   0.75832   0.00000  Uiso   1.00
H1481  H     0.63813   0.92380   0.62611   0.00000  Uiso   1.00
H1482  H     0.57765   0.92674   0.62577   0.00000  Uiso   1.00
H1483  H     0.62951   0.93751   0.56392   0.00000  Uiso   1.00
H1484  H     0.35464   0.72268   0.77932   0.00000  Uiso   1.00
H1485  H     0.39395   0.70906   0.81555   0.00000  Uiso   1.00
H1486  H     0.37003   0.66935   0.78188   0.00000  Uiso   1.00
H1487  H     0.40430   0.94044   0.61008   0.00000  Uiso   1.00
H1488  H     0.45382   0.90846   0.57064   0.00000  Uiso   1.00
H1489  H     0.41357   0.89064   0.63634   0.00000  Uiso   1.00
H1490  H     0.64041   0.78749   0.68986   0.00000  Uiso   1.00
H1491  H     0.48641   0.96384   0.61255   0.00000  Uiso   1.00
H1492  H     0.49053   0.91537   0.64385   0.00000  Uiso   1.00
H1493  H     0.41055   0.93407   0.72219   0.00000  Uiso   1.00
H1494  H     0.41072   0.98006   0.68738   0.00000  Uiso   1.00
H1495  H     0.41914   0.73258   0.62770   0.00000  Uiso   1.00
H1496  H     0.36022   0.73119   0.67940   0.00000  Uiso   1.00
H1497  H     0.37419   0.76672   0.62145   0.00000  Uiso   1.00
H1498  H     0.61660   0.77755   0.92463   0.00000  Uiso   1.00
H1499  H     0.65314   0.78693   0.85390   0.00000  Uiso   1.00
H1500  H     0.64601   0.73504   0.88114   0.00000  Uiso   1.00
H1501  H     0.35753   0.88060   0.81007   0.00000  Uiso   1.00
H1502  H     0.39419   0.76686   0.87115   0.00000  Uiso   1.00
H1503  H     0.35881   0.75282   0.94027   0.00000  Uiso   1.00
H1504  H     0.66370   0.82622   0.95904   0.00000  Uiso   1.00
H1505  H     0.36601   0.84182   0.89307   0.00000  Uiso   1.00
H1506  H     0.50194   0.95984   0.92086   0.00000  Uiso   1.00
H1507  H     0.45295   0.92886   0.91175   0.00000  Uiso   1.00
H1508  H     0.49114   0.96044   0.85762   0.00000  Uiso   1.00
H1509  H     0.60697   0.88090   0.80953   0.00000  Uiso   1.00
H1510  H     0.58820   0.91223   0.91707   0.00000  Uiso   1.00
H1511  H     0.62249   0.89947   0.98820   0.00000  Uiso   1.00
H1512  H     0.48563   0.80515   0.58222   0.00000  Uiso   1.00
H1513  H     0.42237   0.81796   0.56658   0.00000  Uiso   1.00
H1514  H     0.36137   0.80705   0.52711   0.00000  Uiso   1.00
N1515  N     0.38093   0.83334   0.75002   0.00000  Uiso   1.00
N1516  N     0.61906   0.83331   0.75001   0.00000  Uiso   1.00
O1517  O     0.46179   0.89442   0.75001   0.00000  Uiso   1.00
O1518  O     0.42376   0.70785   0.72998   0.00000  Uiso   1.00
O1519  O     0.40444   0.78219   0.68056   0.00000  Uiso   1.00
O1520  O     0.52317   0.90731   0.87097   0.00000  Uiso   1.00
O1521  O     0.53823   0.89441   0.75001   0.00000  Uiso   1.00
O1522  O     0.44280   0.83333   0.82681   0.00000  Uiso   1.00
O1523  O     0.51924   0.83332   0.82681   0.00000  Uiso   1.00
O1524  O     0.46177   0.77226   0.75000   0.00000  Uiso   1.00
O1525  O     0.53821   0.77225   0.75000   0.00000  Uiso   1.00
O1526  O     0.48076   0.83335   0.67319   0.00000  Uiso   1.00
O1527  O     0.55720   0.83334   0.67319   0.00000  Uiso   1.00
O1528  O     0.61829   0.87527   0.58685   0.00000  Uiso   1.00
Zn1529 Zn    0.44896   0.83334   0.75000   0.00000  Uiso   1.00
Zn1530 Zn    0.55104   0.83333   0.75000   0.00000  Uiso   1.00
C1531  C     0.83483   0.91315   0.74530   0.00000  Uiso   1.00
C1532  C     0.78688   0.83962   0.91283   0.00000  Uiso   1.00
C1533  C     0.87347   0.97889   0.74930   0.00000  Uiso   1.00
C1534  C     0.80597   0.83533   0.85272   0.00000  Uiso   1.00
C1535  C     0.87230   0.68789   0.75222   0.00000  Uiso   1.00
C1536  C     0.83346   0.70874   0.74592   0.00000  Uiso   1.00
C1537  C     0.79666   0.68718   0.73355   0.00000  Uiso   1.00
C1538  C     0.80123   0.97811   0.72303   0.00000  Uiso   1.00
C1539  C     0.83695   0.95712   0.73763   0.00000  Uiso   1.00
C1540  C     0.98577   0.80734   0.71618   0.00000  Uiso   1.00
C1541  C     0.70137   0.80701   0.71556   0.00000  Uiso   1.00
C1542  C     0.81162   0.84018   0.99210   0.00000  Uiso   1.00
C1543  C     0.68067   0.85956   0.78337   0.00000  Uiso   1.00
C1544  C     0.96618   0.85962   0.78321   0.00000  Uiso   1.00
C1545  C     0.83302   0.75312   0.74979   0.00000  Uiso   1.00
C1546  C     0.86046   0.83361   0.64751   0.00000  Uiso   1.00
C1547  C     0.92456   0.88030   0.50951   0.00000  Uiso   1.00
C1548  C     0.87796   0.84009   0.58871   0.00000  Uiso   1.00
C1549  C     0.73984   0.82505   0.94554   0.00000  Uiso   1.00
C1550  C     0.73014   0.81789   0.50101   0.00000  Uiso   1.00
C1551  C     0.76593   0.82361   0.52346   0.00000  Uiso   1.00
C1552  C     0.94864   0.91776   0.60086   0.00000  Uiso   1.00
C1553  C     0.81883   0.85393   0.93894   0.00000  Uiso   1.00
C1554  C     0.71756   0.70167   0.77900   0.00000  Uiso   1.00
C1555  C     0.76871   0.95732   0.69537   0.00000  Uiso   1.00
C1556  C     0.79830   0.93879   0.63958   0.00000  Uiso   1.00
C1557  C     0.76529   0.91829   0.61268   0.00000  Uiso   1.00
C1558  C     0.72133   0.75208   0.65134   0.00000  Uiso   1.00
C1559  C     0.69796   0.81913   0.92518   0.00000  Uiso   1.00
C1560  C     0.69458   0.77446   0.90650   0.00000  Uiso   1.00
C1561  C     0.98314   0.76825   0.89052   0.00000  Uiso   1.00
C1562  C     0.82412   0.94032   0.89184   0.00000  Uiso   1.00
C1563  C     0.84914   0.84604   0.51333   0.00000  Uiso   1.00
C1564  C     0.88941   0.87177   0.98586   0.00000  Uiso   1.00
C1565  C     0.89243   0.89051   0.93689   0.00000  Uiso   1.00
C1566  C     0.85658   0.88309   0.91434   0.00000  Uiso   1.00
C1567  C     0.84679   0.82767   0.56215   0.00000  Uiso   1.00
C1568  C     0.91816   0.86580   0.56213   0.00000  Uiso   1.00
H1569  H     0.90087   0.70410   0.76166   0.00000  Uiso   1.00
H1570  H     0.90210   0.96323   0.75832   0.00000  Uiso   1.00
H1571  H     0.97147   0.92380   0.62611   0.00000  Uiso   1.00
H1572  H     0.91098   0.92674   0.62577   0.00000  Uiso   1.00
H1573  H     0.96284   0.93751   0.56392   0.00000  Uiso   1.00
H1574  H     0.68797   0.72268   0.77932   0.00000  Uiso   1.00
H1575  H     0.72728   0.70906   0.81555   0.00000  Uiso   1.00
H1576  H     0.70336   0.66935   0.78188   0.00000  Uiso   1.00
H1577  H     0.73763   0.94044   0.61008   0.00000  Uiso   1.00
H1578  H     0.78715   0.90846   0.57064   0.00000  Uiso   1.00
H1579  H     0.74690   0.89064   0.63634   0.00000  Uiso   1.00
H1580  H     0.97375   0.78749   0.68986   0.00000  Uiso   1.00
H1581  H     0.81974   0.96384   0.61255   0.00000  Uiso   1.00
H1582  H     0.82387   0.91537   0.64385   0.00000  Uiso   1.00
H1583  H     0.74388   0.93407   0.72219   0.00000  Uiso   1.00
H1584  H     0.74405   0.98006   0.68738   0.00000  Uiso   1.00
H1585  H     0.75247   0.73258   0.62770   0.00000  Uiso   1.00
H1586  H     0.69355   0.73119   0.67940   0.00000  Uiso   1.00
H1587  H     0.70753   0.76672   0.62145   0.00000  Uiso   1.00
H1588  H     0.94993   0.77755   0.92463   0.00000  Uiso   1.00
H1589  H     0.98647   0.78693   0.85390   0.00000  Uiso   1.00
H1590  H     0.97934   0.73504   0.88114   0.00000  Uiso   1.00
H1591  H     0.69087   0.88060   0.81007   0.00000  Uiso   1.00
H1592  H     0.72753   0.76686   0.87115   0.00000  Uiso   1.00
H1593  H     0.69214   0.75282   0.94027   0.00000  Uiso   1.00
H1594  H     0.99704   0.82622   0.95904   0.00000  Uiso   1.00
H1595  H     0.69934   0.84182   0.89307   0.00000  Uiso   1.00
H1596  H     0.83528   0.95984   0.92086   0.00000  Uiso   1.00
H1597  H     0.78628   0.92886   0.91175   0.00000  Uiso   1.00
H1598  H     0.82447   0.96044   0.85762   0.00000  Uiso   1.00
H1599  H     0.94030   0.88090   0.80953   0.00000  Uiso   1.00
H1600  H     0.92153   0.91223   0.91707   0.00000  Uiso   1.00
H1601  H     0.95583   0.89947   0.98820   0.00000  Uiso   1.00
H1602  H     0.81896   0.80515   0.58222   0.00000  Uiso   1.00
H1603  H     0.75571   0.81796   0.56658   0.00000  Uiso   1.00
H1604  H     0.69470   0.80705   0.52711   0.00000  Uiso   1.00
N1605  N     0.71426   0.83334   0.75002   0.00000  Uiso   1.00
N1606  N     0.95239   0.83331   0.75001   0.00000  Uiso   1.00
O1607  O     0.79512   0.89442   0.75001   0.00000  Uiso   1.00
O1608  O     0.75709   0.70785   0.72998   0.00000  Uiso   1.00
O1609  O     0.73778   0.78219   0.68056   0.00000  Uiso   1.00
O1610  O     0.85651   0.90731   0.87097   0.00000  Uiso   1.00
O1611  O     0.87157   0.89441   0.75001   0.00000  Uiso   1.00
O1612  O     0.77613   0.83333   0.82681   0.00000  Uiso   1.00
O1613  O     0.85258   0.83332   0.82681   0.00000  Uiso   1.00
O1614  O     0.79510   0.77226   0.75000   0.00000  Uiso   1.00
O1615  O     0.87154   0.77225   0.75000   0.00000  Uiso   1.00
O1616  O     0.81409   0.83335   0.67319   0.00000  Uiso   1.00
O1617  O     0.89053   0.83334   0.67319   0.00000  Uiso   1.00
O1618  O     0.95162   0.87527   0.58685   0.00000  Uiso   1.00
Zn1619 Zn    0.78229   0.83334   0.75000   0.00000  Uiso   1.00
Zn1620 Zn    0.88438   0.83333   0.75000   0.00000  Uiso   1.00
loop_
_geom_bond_atom_site_label_1
_geom_bond_atom_site_label_2
_geom_bond_distance
_geom_bond_site_symmetry_2
_ccdc_geom_bond_type
C1     O77     1.278   .     A
C1     O81     1.290   .     A
C1     C9      1.431   .     S
C2     C4      1.478   .     S
C2     C19     1.427   .     A
C2     C23     1.413   .     A
C3     C9      1.397   .     A
C3     H40     1.084   .     S
C3     C275    1.367   .     S
C4     O83     1.304   .     A
C4     O82     1.285   .     A
C5     C6      1.394   .     A
C5     H39     1.084   .     S
C5     C543    1.367   1_545 S
C6     C15     1.433   .     S
C6     C7      1.409   .     A
C7     O78     1.382   .     S
C7     C548    1.391   1_545 S
C8     C9      1.420   .     A
C8     C25     1.533   .     S
C8     C277    1.391   .     S
C10    N76     1.360   .     A
C10    H50     1.079   .     S
C10    C101    1.437   .     S
C11    O79     1.397   .     S
C11    N75     1.376   .     A
C11    C190    1.437   1_455 S
C12    C23     1.405   .     A
C12    C831    1.410   .     S
C12    C843    1.410   .     S
C13    N75     1.363   .     A
C13    H61     1.082   .     S
C13    C194    1.411   1_455 S
C14    N76     1.365   .     A
C14    H69     1.078   .     S
C14    C103    1.411   .     S
C15    O84     1.282   .     A
C15    O85     1.287   .     A
C16    O87     1.286   .     A
C16    O86     1.295   .     A
C16    C18     1.456   .     S
C17    C38     1.405   .     A
C17    C844    1.403   1_554 S
C17    H881    1.084   1_554 S
C18    C37     1.385   .     A
C18    C38     1.409   .     A
C19    C29     1.515   .     S
C19    C830    1.397   .     S
C20    H74     1.084   .     S
C20    C21     1.385   .     A
C20    C829    1.397   1_554 S
C21    H73     1.076   .     S
C21    C822    1.410   1_554 S
C22    H41     1.109   .     S
C22    O88     1.410   .     S
C22    H43     1.111   .     S
C22    H42     1.113   .     S
C23    C36     1.421   .     A
C24    H45     1.112   .     S
C24    O78     1.412   .     S
C24    H44     1.109   .     S
C24    H46     1.111   .     S
C25    H53     1.107   .     S
C25    H54     1.110   .     S
C25    C26     1.533   .     S
C26    C27     1.527   .     S
C26    H52     1.107   .     S
C26    H51     1.112   .     S
C27    H48     1.108   .     S
C27    H47     1.111   .     S
C27    H49     1.111   .     S
C28    H56     1.112   .     S
C28    H57     1.110   .     S
C28    O79     1.412   .     S
C28    H55     1.109   .     S
C29    C30     1.530   .     S
C29    H65     1.108   .     S
C29    H244    1.110   1_455 S
C30    H63     1.112   .     S
C30    H62     1.109   .     S
C30    C211    1.527   1_455 S
C31    H58     1.111   .     S
C31    H59     1.110   .     S
C31    H60     1.109   .     S
C31    C120    1.527   .     S
C32    H68     1.107   .     S
C32    O80     1.412   .     S
C32    H67     1.113   .     S
C32    H66     1.114   .     S
C33    C37     1.391   .     A
C33    C822    1.410   1_554 S
C33    C844    1.415   1_554 S
C34    C35     1.394   .     A
C34    C827    1.403   .     S
C34    C843    1.415   .     S
C35    C36     1.396   .     A
C35    H70     1.084   .     S
C36    O80     1.383   .     S
C37    H72     1.080   .     S
C38    O88     1.385   .     S
H64    C119    1.110   .     S
H71    C827    1.084   .     S
N75    Zn89    2.005   .     S
N76    Zn90    2.005   .     S
O77    Zn89    2.001   .     S
O81    Zn90    2.010   .     S
O82    Zn89    1.951   .     S
O83    Zn90    1.895   .     S
O84    Zn89    2.010   .     S
O85    Zn90    2.001   .     S
O86    Zn89    1.895   .     S
O87    Zn90    1.951   .     S
C91    O167    1.278   .     A
C91    O171    1.290   .     A
C91    C99     1.431   .     S
C92    C94     1.478   .     S
C92    C109    1.427   .     A
C92    C113    1.413   .     A
C93    C99     1.397   .     A
C93    H130    1.084   .     S
C93    C365    1.367   .     S
C94    O173    1.304   .     A
C94    O172    1.285   .     A
C95    C96     1.394   .     A
C95    H129    1.084   .     S
C95    C633    1.367   1_545 S
C96    C105    1.433   .     S
C96    C97     1.409   .     A
C97    O168    1.382   .     S
C97    C638    1.391   1_545 S
C98    C99     1.420   .     A
C98    C115    1.533   .     S
C98    C367    1.391   .     S
C100   N166    1.360   .     A
C100   H140    1.079   .     S
C100   C191    1.437   .     S
C101   O169    1.397   .     S
C101   N165    1.376   .     A
C102   C113    1.405   .     A
C102   C921    1.410   .     S
C102   C933    1.410   .     S
C103   N165    1.363   .     A
C103   H151    1.082   .     S
C104   N166    1.365   .     A
C104   H159    1.078   .     S
C104   C193    1.411   .     S
C105   O174    1.282   .     A
C105   O175    1.287   .     A
C106   O177    1.286   .     A
C106   O176    1.295   .     A
C106   C108    1.456   .     S
C107   C128    1.405   .     A
C107   C934    1.403   1_554 S
C107   H971    1.084   1_554 S
C108   C127    1.385   .     A
C108   C128    1.409   .     A
C109   C119    1.515   .     S
C109   C920    1.397   .     S
C110   H164    1.084   .     S
C110   C111    1.385   .     A
C110   C919    1.397   1_554 S
C111   H163    1.076   .     S
C111   C912    1.410   1_554 S
C112   H131    1.109   .     S
C112   O178    1.410   .     S
C112   H133    1.111   .     S
C112   H132    1.113   .     S
C113   C126    1.421   .     A
C114   H135    1.112   .     S
C114   O168    1.412   .     S
C114   H134    1.109   .     S
C114   H136    1.111   .     S
C115   H143    1.107   .     S
C115   H144    1.110   .     S
C115   C116    1.533   .     S
C116   C117    1.527   .     S
C116   H142    1.107   .     S
C116   H141    1.112   .     S
C117   H138    1.108   .     S
C117   H137    1.111   .     S
C117   H139    1.111   .     S
C118   H146    1.112   .     S
C118   H147    1.110   .     S
C118   O169    1.412   .     S
C118   H145    1.109   .     S
C119   C120    1.530   .     S
C119   H155    1.108   .     S
C120   H153    1.112   .     S
C120   H152    1.109   .     S
C121   H148    1.111   .     S
C121   H149    1.110   .     S
C121   H150    1.109   .     S
C121   C210    1.527   .     S
C122   H158    1.107   .     S
C122   O170    1.412   .     S
C122   H157    1.113   .     S
C122   H156    1.114   .     S
C123   C127    1.391   .     A
C123   C912    1.410   1_554 S
C123   C934    1.415   1_554 S
C124   C125    1.394   .     A
C124   C917    1.403   .     S
C124   C933    1.415   .     S
C125   C126    1.396   .     A
C125   H160    1.084   .     S
C126   O170    1.383   .     S
C127   H162    1.080   .     S
C128   O178    1.385   .     S
H154   C209    1.110   .     S
H161   C917    1.084   .     S
N165   Zn179   2.005   .     S
N166   Zn180   2.005   .     S
O167   Zn179   2.001   .     S
O171   Zn180   2.010   .     S
O172   Zn179   1.951   .     S
O173   Zn180   1.895   .     S
O174   Zn179   2.010   .     S
O175   Zn180   2.001   .     S
O176   Zn179   1.895   .     S
O177   Zn180   1.951   .     S
C181   O257    1.278   .     A
C181   O261    1.290   .     A
C181   C189    1.431   .     S
C182   C184    1.478   .     S
C182   C199    1.427   .     A
C182   C203    1.413   .     A
C183   C189    1.397   .     A
C183   H220    1.084   .     S
C183   C455    1.367   .     S
C184   O263    1.304   .     A
C184   O262    1.285   .     A
C185   C186    1.394   .     A
C185   H219    1.084   .     S
C185   C723    1.367   1_545 S
C186   C195    1.433   .     S
C186   C187    1.409   .     A
C187   O258    1.382   .     S
C187   C728    1.391   1_545 S
C188   C189    1.420   .     A
C188   C205    1.533   .     S
C188   C457    1.391   .     S
C190   N256    1.360   .     A
C190   H230    1.079   .     S
C190   C11     1.437   1_655 S
C191   O259    1.397   .     S
C191   N255    1.376   .     A
C192   C203    1.405   .     A
C192   C1011   1.410   .     S
C192   C1023   1.410   .     S
C193   N255    1.363   .     A
C193   H241    1.082   .     S
C194   N256    1.365   .     A
C194   H249    1.078   .     S
C194   C13     1.411   1_655 S
C195   O264    1.282   .     A
C195   O265    1.287   .     A
C196   O267    1.286   .     A
C196   O266    1.295   .     A
C196   C198    1.456   .     S
C197   C218    1.405   .     A
C197   C1024   1.403   1_554 S
C197   H1061   1.084   1_554 S
C198   C217    1.385   .     A
C198   C218    1.409   .     A
C199   C209    1.515   .     S
C199   C1010   1.397   .     S
C200   H254    1.084   .     S
C200   C201    1.385   .     A
C200   C1009   1.397   1_554 S
C201   H253    1.076   .     S
C201   C1002   1.410   1_554 S
C202   H221    1.109   .     S
C202   O268    1.410   .     S
C202   H223    1.111   .     S
C202   H222    1.113   .     S
C203   C216    1.421   .     A
C204   H225    1.112   .     S
C204   O258    1.412   .     S
C204   H224    1.109   .     S
C204   H226    1.111   .     S
C205   H233    1.107   .     S
C205   H234    1.110   .     S
C205   C206    1.533   .     S
C206   C207    1.527   .     S
C206   H232    1.107   .     S
C206   H231    1.112   .     S
C207   H228    1.108   .     S
C207   H227    1.111   .     S
C207   H229    1.111   .     S
C208   H236    1.112   .     S
C208   H237    1.110   .     S
C208   O259    1.412   .     S
C208   H235    1.109   .     S
C209   C210    1.530   .     S
C209   H245    1.108   .     S
C210   H243    1.112   .     S
C210   H242    1.109   .     S
C211   H238    1.111   .     S
C211   H239    1.110   .     S
C211   H240    1.109   .     S
C211   C30     1.527   1_655 S
C212   H248    1.107   .     S
C212   O260    1.412   .     S
C212   H247    1.113   .     S
C212   H246    1.114   .     S
C213   C217    1.391   .     A
C213   C1002   1.410   1_554 S
C213   C1024   1.415   1_554 S
C214   C215    1.394   .     A
C214   C1007   1.403   .     S
C214   C1023   1.415   .     S
C215   C216    1.396   .     A
C215   H250    1.084   .     S
C216   O260    1.383   .     S
C217   H252    1.080   .     S
C218   O268    1.385   .     S
H244   C29     1.110   1_655 S
H251   C1007   1.084   .     S
N255   Zn269   2.005   .     S
N256   Zn270   2.005   .     S
O257   Zn269   2.001   .     S
O261   Zn270   2.010   .     S
O262   Zn269   1.951   .     S
O263   Zn270   1.895   .     S
O264   Zn269   2.010   .     S
O265   Zn270   2.001   .     S
O266   Zn269   1.895   .     S
O267   Zn270   1.951   .     S
C271   O347    1.278   .     A
C271   O351    1.290   .     A
C271   C279    1.431   .     S
C272   C274    1.478   .     S
C272   C289    1.427   .     A
C272   C293    1.413   .     A
C273   C279    1.397   .     A
C273   H310    1.084   .     S
C273   C545    1.367   .     S
C274   O353    1.304   .     A
C274   O352    1.285   .     A
C275   C276    1.394   .     A
C275   H309    1.084   .     S
C276   C285    1.433   .     S
C276   C277    1.409   .     A
C277   O348    1.382   .     S
C278   C279    1.420   .     A
C278   C295    1.533   .     S
C278   C547    1.391   .     S
C280   N346    1.360   .     A
C280   H320    1.079   .     S
C280   C371    1.437   .     S
C281   O349    1.397   .     S
C281   N345    1.376   .     A
C281   C460    1.437   1_455 S
C282   C293    1.405   .     A
C282   C1101   1.410   .     S
C282   C1113   1.410   .     S
C283   N345    1.363   .     A
C283   H331    1.082   .     S
C283   C464    1.411   1_455 S
C284   N346    1.365   .     A
C284   H339    1.078   .     S
C284   C373    1.411   .     S
C285   O354    1.282   .     A
C285   O355    1.287   .     A
C286   O357    1.286   .     A
C286   O356    1.295   .     A
C286   C288    1.456   .     S
C287   C308    1.405   .     A
C287   C1114   1.403   1_554 S
C287   H1151   1.084   1_554 S
C288   C307    1.385   .     A
C288   C308    1.409   .     A
C289   C299    1.515   .     S
C289   C1100   1.397   .     S
C290   H344    1.084   .     S
C290   C291    1.385   .     A
C290   C1099   1.397   1_554 S
C291   H343    1.076   .     S
C291   C1092   1.410   1_554 S
C292   H311    1.109   .     S
C292   O358    1.410   .     S
C292   H313    1.111   .     S
C292   H312    1.113   .     S
C293   C306    1.421   .     A
C294   H315    1.112   .     S
C294   O348    1.412   .     S
C294   H314    1.109   .     S
C294   H316    1.111   .     S
C295   H323    1.107   .     S
C295   H324    1.110   .     S
C295   C296    1.533   .     S
C296   C297    1.527   .     S
C296   H322    1.107   .     S
C296   H321    1.112   .     S
C297   H318    1.108   .     S
C297   H317    1.111   .     S
C297   H319    1.111   .     S
C298   H326    1.112   .     S
C298   H327    1.110   .     S
C298   O349    1.412   .     S
C298   H325    1.109   .     S
C299   C300    1.530   .     S
C299   H335    1.108   .     S
C299   H514    1.110   1_455 S
C300   H333    1.112   .     S
C300   H332    1.109   .     S
C300   C481    1.527   1_455 S
C301   H328    1.111   .     S
C301   H329    1.110   .     S
C301   H330    1.109   .     S
C301   C390    1.527   .     S
C302   H338    1.107   .     S
C302   O350    1.412   .     S
C302   H337    1.113   .     S
C302   H336    1.114   .     S
C303   C307    1.391   .     A
C303   C1092   1.410   1_554 S
C303   C1114   1.415   1_554 S
C304   C305    1.394   .     A
C304   C1097   1.403   .     S
C304   C1113   1.415   .     S
C305   C306    1.396   .     A
C305   H340    1.084   .     S
C306   O350    1.383   .     S
C307   H342    1.080   .     S
C308   O358    1.385   .     S
H334   C389    1.110   .     S
H341   C1097   1.084   .     S
N345   Zn359   2.005   .     S
N346   Zn360   2.005   .     S
O347   Zn359   2.001   .     S
O351   Zn360   2.010   .     S
O352   Zn359   1.951   .     S
O353   Zn360   1.895   .     S
O354   Zn359   2.010   .     S
O355   Zn360   2.001   .     S
O356   Zn359   1.895   .     S
O357   Zn360   1.951   .     S
C361   O437    1.278   .     A
C361   O441    1.290   .     A
C361   C369    1.431   .     S
C362   C364    1.478   .     S
C362   C379    1.427   .     A
C362   C383    1.413   .     A
C363   C369    1.397   .     A
C363   H400    1.084   .     S
C363   C635    1.367   .     S
C364   O443    1.304   .     A
C364   O442    1.285   .     A
C365   C366    1.394   .     A
C365   H399    1.084   .     S
C366   C375    1.433   .     S
C366   C367    1.409   .     A
C367   O438    1.382   .     S
C368   C369    1.420   .     A
C368   C385    1.533   .     S
C368   C637    1.391   .     S
C370   N436    1.360   .     A
C370   H410    1.079   .     S
C370   C461    1.437   .     S
C371   O439    1.397   .     S
C371   N435    1.376   .     A
C372   C383    1.405   .     A
C372   C1191   1.410   .     S
C372   C1203   1.410   .     S
C373   N435    1.363   .     A
C373   H421    1.082   .     S
C374   N436    1.365   .     A
C374   H429    1.078   .     S
C374   C463    1.411   .     S
C375   O444    1.282   .     A
C375   O445    1.287   .     A
C376   O447    1.286   .     A
C376   O446    1.295   .     A
C376   C378    1.456   .     S
C377   C398    1.405   .     A
C377   C1204   1.403   1_554 S
C377   H1241   1.084   1_554 S
C378   C397    1.385   .     A
C378   C398    1.409   .     A
C379   C389    1.515   .     S
C379   C1190   1.397   .     S
C380   H434    1.084   .     S
C380   C381    1.385   .     A
C380   C1189   1.397   1_554 S
C381   H433    1.076   .     S
C381   C1182   1.410   1_554 S
C382   H401    1.109   .     S
C382   O448    1.410   .     S
C382   H403    1.111   .     S
C382   H402    1.113   .     S
C383   C396    1.421   .     A
C384   H405    1.112   .     S
C384   O438    1.412   .     S
C384   H404    1.109   .     S
C384   H406    1.111   .     S
C385   H413    1.107   .     S
C385   H414    1.110   .     S
C385   C386    1.533   .     S
C386   C387    1.527   .     S
C386   H412    1.107   .     S
C386   H411    1.112   .     S
C387   H408    1.108   .     S
C387   H407    1.111   .     S
C387   H409    1.111   .     S
C388   H416    1.112   .     S
C388   H417    1.110   .     S
C388   O439    1.412   .     S
C388   H415    1.109   .     S
C389   C390    1.530   .     S
C389   H425    1.108   .     S
C390   H423    1.112   .     S
C390   H422    1.109   .     S
C391   H418    1.111   .     S
C391   H419    1.110   .     S
C391   H420    1.109   .     S
C391   C480    1.527   .     S
C392   H428    1.107   .     S
C392   O440    1.412   .     S
C392   H427    1.113   .     S
C392   H426    1.114   .     S
C393   C397    1.391   .     A
C393   C1182   1.410   1_554 S
C393   C1204   1.415   1_554 S
C394   C395    1.394   .     A
C394   C1187   1.403   .     S
C394   C1203   1.415   .     S
C395   C396    1.396   .     A
C395   H430    1.084   .     S
C396   O440    1.383   .     S
C397   H432    1.080   .     S
C398   O448    1.385   .     S
H424   C479    1.110   .     S
H431   C1187   1.084   .     S
N435   Zn449   2.005   .     S
N436   Zn450   2.005   .     S
O437   Zn449   2.001   .     S
O441   Zn450   2.010   .     S
O442   Zn449   1.951   .     S
O443   Zn450   1.895   .     S
O444   Zn449   2.010   .     S
O445   Zn450   2.001   .     S
O446   Zn449   1.895   .     S
O447   Zn450   1.951   .     S
C451   O527    1.278   .     A
C451   O531    1.290   .     A
C451   C459    1.431   .     S
C452   C454    1.478   .     S
C452   C469    1.427   .     A
C452   C473    1.413   .     A
C453   C459    1.397   .     A
C453   H490    1.084   .     S
C453   C725    1.367   .     S
C454   O533    1.304   .     A
C454   O532    1.285   .     A
C455   C456    1.394   .     A
C455   H489    1.084   .     S
C456   C465    1.433   .     S
C456   C457    1.409   .     A
C457   O528    1.382   .     S
C458   C459    1.420   .     A
C458   C475    1.533   .     S
C458   C727    1.391   .     S
C460   N526    1.360   .     A
C460   H500    1.079   .     S
C460   C281    1.437   1_655 S
C461   O529    1.397   .     S
C461   N525    1.376   .     A
C462   C473    1.405   .     A
C462   C1281   1.410   .     S
C462   C1293   1.410   .     S
C463   N525    1.363   .     A
C463   H511    1.082   .     S
C464   N526    1.365   .     A
C464   H519    1.078   .     S
C464   C283    1.411   1_655 S
C465   O534    1.282   .     A
C465   O535    1.287   .     A
C466   O537    1.286   .     A
C466   O536    1.295   .     A
C466   C468    1.456   .     S
C467   C488    1.405   .     A
C467   C1294   1.403   1_554 S
C467   H1331   1.084   1_554 S
C468   C487    1.385   .     A
C468   C488    1.409   .     A
C469   C479    1.515   .     S
C469   C1280   1.397   .     S
C470   H524    1.084   .     S
C470   C471    1.385   .     A
C470   C1279   1.397   1_554 S
C471   H523    1.076   .     S
C471   C1272   1.410   1_554 S
C472   H491    1.109   .     S
C472   O538    1.410   .     S
C472   H493    1.111   .     S
C472   H492    1.113   .     S
C473   C486    1.421   .     A
C474   H495    1.112   .     S
C474   O528    1.412   .     S
C474   H494    1.109   .     S
C474   H496    1.111   .     S
C475   H503    1.107   .     S
C475   H504    1.110   .     S
C475   C476    1.533   .     S
C476   C477    1.527   .     S
C476   H502    1.107   .     S
C476   H501    1.112   .     S
C477   H498    1.108   .     S
C477   H497    1.111   .     S
C477   H499    1.111   .     S
C478   H506    1.112   .     S
C478   H507    1.110   .     S
C478   O529    1.412   .     S
C478   H505    1.109   .     S
C479   C480    1.530   .     S
C479   H515    1.108   .     S
C480   H513    1.112   .     S
C480   H512    1.109   .     S
C481   H508    1.111   .     S
C481   H509    1.110   .     S
C481   H510    1.109   .     S
C481   C300    1.527   1_655 S
C482   H518    1.107   .     S
C482   O530    1.412   .     S
C482   H517    1.113   .     S
C482   H516    1.114   .     S
C483   C487    1.391   .     A
C483   C1272   1.410   1_554 S
C483   C1294   1.415   1_554 S
C484   C485    1.394   .     A
C484   C1277   1.403   .     S
C484   C1293   1.415   .     S
C485   C486    1.396   .     A
C485   H520    1.084   .     S
C486   O530    1.383   .     S
C487   H522    1.080   .     S
C488   O538    1.385   .     S
H514   C299    1.110   1_655 S
H521   C1277   1.084   .     S
N525   Zn539   2.005   .     S
N526   Zn540   2.005   .     S
O527   Zn539   2.001   .     S
O531   Zn540   2.010   .     S
O532   Zn539   1.951   .     S
O533   Zn540   1.895   .     S
O534   Zn539   2.010   .     S
O535   Zn540   2.001   .     S
O536   Zn539   1.895   .     S
O537   Zn540   1.951   .     S
C541   O617    1.278   .     A
C541   O621    1.290   .     A
C541   C549    1.431   .     S
C542   C544    1.478   .     S
C542   C559    1.427   .     A
C542   C563    1.413   .     A
C543   C549    1.397   .     A
C543   H580    1.084   .     S
C543   C5      1.367   1_565 S
C544   O623    1.304   .     A
C544   O622    1.285   .     A
C545   C546    1.394   .     A
C545   H579    1.084   .     S
C546   C555    1.433   .     S
C546   C547    1.409   .     A
C547   O618    1.382   .     S
C548   C549    1.420   .     A
C548   C565    1.533   .     S
C548   C7      1.391   1_565 S
C550   N616    1.360   .     A
C550   H590    1.079   .     S
C550   C641    1.437   .     S
C551   O619    1.397   .     S
C551   N615    1.376   .     A
C551   C730    1.437   1_455 S
C552   C563    1.405   .     A
C552   C1371   1.410   .     S
C552   C1383   1.410   .     S
C553   N615    1.363   .     A
C553   H601    1.082   .     S
C553   C734    1.411   1_455 S
C554   N616    1.365   .     A
C554   H609    1.078   .     S
C554   C643    1.411   .     S
C555   O624    1.282   .     A
C555   O625    1.287   .     A
C556   O627    1.286   .     A
C556   O626    1.295   .     A
C556   C558    1.456   .     S
C557   C578    1.405   .     A
C557   C1384   1.403   1_554 S
C557   H1421   1.084   1_554 S
C558   C577    1.385   .     A
C558   C578    1.409   .     A
C559   C569    1.515   .     S
C559   C1370   1.397   .     S
C560   H614    1.084   .     S
C560   C561    1.385   .     A
C560   C1369   1.397   1_554 S
C561   H613    1.076   .     S
C561   C1362   1.410   1_554 S
C562   H581    1.109   .     S
C562   O628    1.410   .     S
C562   H583    1.111   .     S
C562   H582    1.113   .     S
C563   C576    1.421   .     A
C564   H585    1.112   .     S
C564   O618    1.412   .     S
C564   H584    1.109   .     S
C564   H586    1.111   .     S
C565   H593    1.107   .     S
C565   H594    1.110   .     S
C565   C566    1.533   .     S
C566   C567    1.527   .     S
C566   H592    1.107   .     S
C566   H591    1.112   .     S
C567   H588    1.108   .     S
C567   H587    1.111   .     S
C567   H589    1.111   .     S
C568   H596    1.112   .     S
C568   H597    1.110   .     S
C568   O619    1.412   .     S
C568   H595    1.109   .     S
C569   C570    1.530   .     S
C569   H605    1.108   .     S
C569   H784    1.110   1_455 S
C570   H603    1.112   .     S
C570   H602    1.109   .     S
C570   C751    1.527   1_455 S
C571   H598    1.111   .     S
C571   H599    1.110   .     S
C571   H600    1.109   .     S
C571   C660    1.527   .     S
C572   H608    1.107   .     S
C572   O620    1.412   .     S
C572   H607    1.113   .     S
C572   H606    1.114   .     S
C573   C577    1.391   .     A
C573   C1362   1.410   1_554 S
C573   C1384   1.415   1_554 S
C574   C575    1.394   .     A
C574   C1367   1.403   .     S
C574   C1383   1.415   .     S
C575   C576    1.396   .     A
C575   H610    1.084   .     S
C576   O620    1.383   .     S
C577   H612    1.080   .     S
C578   O628    1.385   .     S
H604   C659    1.110   .     S
H611   C1367   1.084   .     S
N615   Zn629   2.005   .     S
N616   Zn630   2.005   .     S
O617   Zn629   2.001   .     S
O621   Zn630   2.010   .     S
O622   Zn629   1.951   .     S
O623   Zn630   1.895   .     S
O624   Zn629   2.010   .     S
O625   Zn630   2.001   .     S
O626   Zn629   1.895   .     S
O627   Zn630   1.951   .     S
C631   O707    1.278   .     A
C631   O711    1.290   .     A
C631   C639    1.431   .     S
C632   C634    1.478   .     S
C632   C649    1.427   .     A
C632   C653    1.413   .     A
C633   C639    1.397   .     A
C633   H670    1.084   .     S
C633   C95     1.367   1_565 S
C634   O713    1.304   .     A
C634   O712    1.285   .     A
C635   C636    1.394   .     A
C635   H669    1.084   .     S
C636   C645    1.433   .     S
C636   C637    1.409   .     A
C637   O708    1.382   .     S
C638   C639    1.420   .     A
C638   C655    1.533   .     S
C638   C97     1.391   1_565 S
C640   N706    1.360   .     A
C640   H680    1.079   .     S
C640   C731    1.437   .     S
C641   O709    1.397   .     S
C641   N705    1.376   .     A
C642   C653    1.405   .     A
C642   C1461   1.410   .     S
C642   C1473   1.410   .     S
C643   N705    1.363   .     A
C643   H691    1.082   .     S
C644   N706    1.365   .     A
C644   H699    1.078   .     S
C644   C733    1.411   .     S
C645   O714    1.282   .     A
C645   O715    1.287   .     A
C646   O717    1.286   .     A
C646   O716    1.295   .     A
C646   C648    1.456   .     S
C647   C668    1.405   .     A
C647   C1474   1.403   1_554 S
C647   H1511   1.084   1_554 S
C648   C667    1.385   .     A
C648   C668    1.409   .     A
C649   C659    1.515   .     S
C649   C1460   1.397   .     S
C650   H704    1.084   .     S
C650   C651    1.385   .     A
C650   C1459   1.397   1_554 S
C651   H703    1.076   .     S
C651   C1452   1.410   1_554 S
C652   H671    1.109   .     S
C652   O718    1.410   .     S
C652   H673    1.111   .     S
C652   H672    1.113   .     S
C653   C666    1.421   .     A
C654   H675    1.112   .     S
C654   O708    1.412   .     S
C654   H674    1.109   .     S
C654   H676    1.111   .     S
C655   H683    1.107   .     S
C655   H684    1.110   .     S
C655   C656    1.533   .     S
C656   C657    1.527   .     S
C656   H682    1.107   .     S
C656   H681    1.112   .     S
C657   H678    1.108   .     S
C657   H677    1.111   .     S
C657   H679    1.111   .     S
C658   H686    1.112   .     S
C658   H687    1.110   .     S
C658   O709    1.412   .     S
C658   H685    1.109   .     S
C659   C660    1.530   .     S
C659   H695    1.108   .     S
C660   H693    1.112   .     S
C660   H692    1.109   .     S
C661   H688    1.111   .     S
C661   H689    1.110   .     S
C661   H690    1.109   .     S
C661   C750    1.527   .     S
C662   H698    1.107   .     S
C662   O710    1.412   .     S
C662   H697    1.113   .     S
C662   H696    1.114   .     S
C663   C667    1.391   .     A
C663   C1452   1.410   1_554 S
C663   C1474   1.415   1_554 S
C664   C665    1.394   .     A
C664   C1457   1.403   .     S
C664   C1473   1.415   .     S
C665   C666    1.396   .     A
C665   H700    1.084   .     S
C666   O710    1.383   .     S
C667   H702    1.080   .     S
C668   O718    1.385   .     S
H694   C749    1.110   .     S
H701   C1457   1.084   .     S
N705   Zn719   2.005   .     S
N706   Zn720   2.005   .     S
O707   Zn719   2.001   .     S
O711   Zn720   2.010   .     S
O712   Zn719   1.951   .     S
O713   Zn720   1.895   .     S
O714   Zn719   2.010   .     S
O715   Zn720   2.001   .     S
O716   Zn719   1.895   .     S
O717   Zn720   1.951   .     S
C721   O797    1.278   .     A
C721   O801    1.290   .     A
C721   C729    1.431   .     S
C722   C724    1.478   .     S
C722   C739    1.427   .     A
C722   C743    1.413   .     A
C723   C729    1.397   .     A
C723   H760    1.084   .     S
C723   C185    1.367   1_565 S
C724   O803    1.304   .     A
C724   O802    1.285   .     A
C725   C726    1.394   .     A
C725   H759    1.084   .     S
C726   C735    1.433   .     S
C726   C727    1.409   .     A
C727   O798    1.382   .     S
C728   C729    1.420   .     A
C728   C745    1.533   .     S
C728   C187    1.391   1_565 S
C730   N796    1.360   .     A
C730   H770    1.079   .     S
C730   C551    1.437   1_655 S
C731   O799    1.397   .     S
C731   N795    1.376   .     A
C732   C743    1.405   .     A
C732   C1551   1.410   .     S
C732   C1563   1.410   .     S
C733   N795    1.363   .     A
C733   H781    1.082   .     S
C734   N796    1.365   .     A
C734   H789    1.078   .     S
C734   C553    1.411   1_655 S
C735   O804    1.282   .     A
C735   O805    1.287   .     A
C736   O807    1.286   .     A
C736   O806    1.295   .     A
C736   C738    1.456   .     S
C737   C758    1.405   .     A
C737   C1564   1.403   1_554 S
C737   H1601   1.084   1_554 S
C738   C757    1.385   .     A
C738   C758    1.409   .     A
C739   C749    1.515   .     S
C739   C1550   1.397   .     S
C740   H794    1.084   .     S
C740   C741    1.385   .     A
C740   C1549   1.397   1_554 S
C741   H793    1.076   .     S
C741   C1542   1.410   1_554 S
C742   H761    1.109   .     S
C742   O808    1.410   .     S
C742   H763    1.111   .     S
C742   H762    1.113   .     S
C743   C756    1.421   .     A
C744   H765    1.112   .     S
C744   O798    1.412   .     S
C744   H764    1.109   .     S
C744   H766    1.111   .     S
C745   H773    1.107   .     S
C745   H774    1.110   .     S
C745   C746    1.533   .     S
C746   C747    1.527   .     S
C746   H772    1.107   .     S
C746   H771    1.112   .     S
C747   H768    1.108   .     S
C747   H767    1.111   .     S
C747   H769    1.111   .     S
C748   H776    1.112   .     S
C748   H777    1.110   .     S
C748   O799    1.412   .     S
C748   H775    1.109   .     S
C749   C750    1.530   .     S
C749   H785    1.108   .     S
C750   H783    1.112   .     S
C750   H782    1.109   .     S
C751   H778    1.111   .     S
C751   H779    1.110   .     S
C751   H780    1.109   .     S
C751   C570    1.527   1_655 S
C752   H788    1.107   .     S
C752   O800    1.412   .     S
C752   H787    1.113   .     S
C752   H786    1.114   .     S
C753   C757    1.391   .     A
C753   C1542   1.410   1_554 S
C753   C1564   1.415   1_554 S
C754   C755    1.394   .     A
C754   C1547   1.403   .     S
C754   C1563   1.415   .     S
C755   C756    1.396   .     A
C755   H790    1.084   .     S
C756   O800    1.383   .     S
C757   H792    1.080   .     S
C758   O808    1.385   .     S
H784   C569    1.110   1_655 S
H791   C1547   1.084   .     S
N795   Zn809   2.005   .     S
N796   Zn810   2.005   .     S
O797   Zn809   2.001   .     S
O801   Zn810   2.010   .     S
O802   Zn809   1.951   .     S
O803   Zn810   1.895   .     S
O804   Zn809   2.010   .     S
O805   Zn810   2.001   .     S
O806   Zn809   1.895   .     S
O807   Zn810   1.951   .     S
C811   O887    1.278   .     A
C811   O891    1.290   .     A
C811   C819    1.431   .     S
C812   C814    1.478   .     S
C812   C829    1.427   .     A
C812   C833    1.413   .     A
C813   C819    1.397   .     A
C813   H850    1.084   .     S
C813   C1085   1.367   .     S
C814   O893    1.304   .     A
C814   O892    1.285   .     A
C815   C816    1.394   .     A
C815   H849    1.084   .     S
C815   C1353   1.367   1_545 S
C816   C825    1.433   .     S
C816   C817    1.409   .     A
C817   O888    1.382   .     S
C817   C1358   1.391   1_545 S
C818   C819    1.420   .     A
C818   C835    1.533   .     S
C818   C1087   1.391   .     S
C820   N886    1.360   .     A
C820   H860    1.079   .     S
C820   C911    1.437   .     S
C821   O889    1.397   .     S
C821   N885    1.376   .     A
C821   C1000   1.437   1_455 S
C822   C833    1.405   .     A
C822   C21     1.410   1_556 S
C822   C33     1.410   1_556 S
C823   N885    1.363   .     A
C823   H871    1.082   .     S
C823   C1004   1.411   1_455 S
C824   N886    1.365   .     A
C824   H879    1.078   .     S
C824   C913    1.411   .     S
C825   O894    1.282   .     A
C825   O895    1.287   .     A
C826   O897    1.286   .     A
C826   O896    1.295   .     A
C826   C828    1.456   .     S
C827   C848    1.405   .     A
C828   C847    1.385   .     A
C828   C848    1.409   .     A
C829   C839    1.515   .     S
C829   C20     1.397   1_556 S
C830   H884    1.084   .     S
C830   C831    1.385   .     A
C831   H883    1.076   .     S
C832   H851    1.109   .     S
C832   O898    1.410   .     S
C832   H853    1.111   .     S
C832   H852    1.113   .     S
C833   C846    1.421   .     A
C834   H855    1.112   .     S
C834   O888    1.412   .     S
C834   H854    1.109   .     S
C834   H856    1.111   .     S
C835   H863    1.107   .     S
C835   H864    1.110   .     S
C835   C836    1.533   .     S
C836   C837    1.527   .     S
C836   H862    1.107   .     S
C836   H861    1.112   .     S
C837   H858    1.108   .     S
C837   H857    1.111   .     S
C837   H859    1.111   .     S
C838   H866    1.112   .     S
C838   H867    1.110   .     S
C838   O889    1.412   .     S
C838   H865    1.109   .     S
C839   C840    1.530   .     S
C839   H875    1.108   .     S
C839   H1054   1.110   1_455 S
C840   H873    1.112   .     S
C840   H872    1.109   .     S
C840   C1021   1.527   1_455 S
C841   H868    1.111   .     S
C841   H869    1.110   .     S
C841   H870    1.109   .     S
C841   C930    1.527   .     S
C842   H878    1.107   .     S
C842   O890    1.412   .     S
C842   H877    1.113   .     S
C842   H876    1.114   .     S
C843   C847    1.391   .     A
C844   C845    1.394   .     A
C844   C17     1.403   1_556 S
C844   C33     1.415   1_556 S
C845   C846    1.396   .     A
C845   H880    1.084   .     S
C846   O890    1.383   .     S
C847   H882    1.080   .     S
C848   O898    1.385   .     S
H874   C929    1.110   .     S
H881   C17     1.084   1_556 S
N885   Zn899   2.005   .     S
N886   Zn900   2.005   .     S
O887   Zn899   2.001   .     S
O891   Zn900   2.010   .     S
O892   Zn899   1.951   .     S
O893   Zn900   1.895   .     S
O894   Zn899   2.010   .     S
O895   Zn900   2.001   .     S
O896   Zn899   1.895   .     S
O897   Zn900   1.951   .     S
C901   O977    1.278   .     A
C901   O981    1.290   .     A
C901   C909    1.431   .     S
C902   C904    1.478   .     S
C902   C919    1.427   .     A
C902   C923    1.413   .     A
C903   C909    1.397   .     A
C903   H940    1.084   .     S
C903   C1175   1.367   .     S
C904   O983    1.304   .     A
C904   O982    1.285   .     A
C905   C906    1.394   .     A
C905   H939    1.084   .     S
C905   C1443   1.367   1_545 S
C906   C915    1.433   .     S
C906   C907    1.409   .     A
C907   O978    1.382   .     S
C907   C1448   1.391   1_545 S
C908   C909    1.420   .     A
C908   C925    1.533   .     S
C908   C1177   1.391   .     S
C910   N976    1.360   .     A
C910   H950    1.079   .     S
C910   C1001   1.437   .     S
C911   O979    1.397   .     S
C911   N975    1.376   .     A
C912   C923    1.405   .     A
C912   C111    1.410   1_556 S
C912   C123    1.410   1_556 S
C913   N975    1.363   .     A
C913   H961    1.082   .     S
C914   N976    1.365   .     A
C914   H969    1.078   .     S
C914   C1003   1.411   .     S
C915   O984    1.282   .     A
C915   O985    1.287   .     A
C916   O987    1.286   .     A
C916   O986    1.295   .     A
C916   C918    1.456   .     S
C917   C938    1.405   .     A
C918   C937    1.385   .     A
C918   C938    1.409   .     A
C919   C929    1.515   .     S
C919   C110    1.397   1_556 S
C920   H974    1.084   .     S
C920   C921    1.385   .     A
C921   H973    1.076   .     S
C922   H941    1.109   .     S
C922   O988    1.410   .     S
C922   H943    1.111   .     S
C922   H942    1.113   .     S
C923   C936    1.421   .     A
C924   H945    1.112   .     S
C924   O978    1.412   .     S
C924   H944    1.109   .     S
C924   H946    1.111   .     S
C925   H953    1.107   .     S
C925   H954    1.110   .     S
C925   C926    1.533   .     S
C926   C927    1.527   .     S
C926   H952    1.107   .     S
C926   H951    1.112   .     S
C927   H948    1.108   .     S
C927   H947    1.111   .     S
C927   H949    1.111   .     S
C928   H956    1.112   .     S
C928   H957    1.110   .     S
C928   O979    1.412   .     S
C928   H955    1.109   .     S
C929   C930    1.530   .     S
C929   H965    1.108   .     S
C930   H963    1.112   .     S
C930   H962    1.109   .     S
C931   H958    1.111   .     S
C931   H959    1.110   .     S
C931   H960    1.109   .     S
C931   C1020   1.527   .     S
C932   H968    1.107   .     S
C932   O980    1.412   .     S
C932   H967    1.113   .     S
C932   H966    1.114   .     S
C933   C937    1.391   .     A
C934   C935    1.394   .     A
C934   C107    1.403   1_556 S
C934   C123    1.415   1_556 S
C935   C936    1.396   .     A
C935   H970    1.084   .     S
C936   O980    1.383   .     S
C937   H972    1.080   .     S
C938   O988    1.385   .     S
H964   C1019   1.110   .     S
H971   C107    1.084   1_556 S
N975   Zn989   2.005   .     S
N976   Zn990   2.005   .     S
O977   Zn989   2.001   .     S
O981   Zn990   2.010   .     S
O982   Zn989   1.951   .     S
O983   Zn990   1.895   .     S
O984   Zn989   2.010   .     S
O985   Zn990   2.001   .     S
O986   Zn989   1.895   .     S
O987   Zn990   1.951   .     S
C991   O1067   1.278   .     A
C991   O1071   1.290   .     A
C991   C999    1.431   .     S
C992   C994    1.478   .     S
C992   C1009   1.427   .     A
C992   C1013   1.413   .     A
C993   C999    1.397   .     A
C993   H1030   1.084   .     S
C993   C1265   1.367   .     S
C994   O1073   1.304   .     A
C994   O1072   1.285   .     A
C995   C996    1.394   .     A
C995   H1029   1.084   .     S
C995   C1533   1.367   1_545 S
C996   C1005   1.433   .     S
C996   C997    1.409   .     A
C997   O1068   1.382   .     S
C997   C1538   1.391   1_545 S
C998   C999    1.420   .     A
C998   C1015   1.533   .     S
C998   C1267   1.391   .     S
C1000  N1066   1.360   .     A
C1000  H1040   1.079   .     S
C1000  C821    1.437   1_655 S
C1001  O1069   1.397   .     S
C1001  N1065   1.376   .     A
C1002  C1013   1.405   .     A
C1002  C201    1.410   1_556 S
C1002  C213    1.410   1_556 S
C1003  N1065   1.363   .     A
C1003  H1051   1.082   .     S
C1004  N1066   1.365   .     A
C1004  H1059   1.078   .     S
C1004  C823    1.411   1_655 S
C1005  O1074   1.282   .     A
C1005  O1075   1.287   .     A
C1006  O1077   1.286   .     A
C1006  O1076   1.295   .     A
C1006  C1008   1.456   .     S
C1007  C1028   1.405   .     A
C1008  C1027   1.385   .     A
C1008  C1028   1.409   .     A
C1009  C1019   1.515   .     S
C1009  C200    1.397   1_556 S
C1010  H1064   1.084   .     S
C1010  C1011   1.385   .     A
C1011  H1063   1.076   .     S
C1012  H1031   1.109   .     S
C1012  O1078   1.410   .     S
C1012  H1033   1.111   .     S
C1012  H1032   1.113   .     S
C1013  C1026   1.421   .     A
C1014  H1035   1.112   .     S
C1014  O1068   1.412   .     S
C1014  H1034   1.109   .     S
C1014  H1036   1.111   .     S
C1015  H1043   1.107   .     S
C1015  H1044   1.110   .     S
C1015  C1016   1.533   .     S
C1016  C1017   1.527   .     S
C1016  H1042   1.107   .     S
C1016  H1041   1.112   .     S
C1017  H1038   1.108   .     S
C1017  H1037   1.111   .     S
C1017  H1039   1.111   .     S
C1018  H1046   1.112   .     S
C1018  H1047   1.110   .     S
C1018  O1069   1.412   .     S
C1018  H1045   1.109   .     S
C1019  C1020   1.530   .     S
C1019  H1055   1.108   .     S
C1020  H1053   1.112   .     S
C1020  H1052   1.109   .     S
C1021  H1048   1.111   .     S
C1021  H1049   1.110   .     S
C1021  H1050   1.109   .     S
C1021  C840    1.527   1_655 S
C1022  H1058   1.107   .     S
C1022  O1070   1.412   .     S
C1022  H1057   1.113   .     S
C1022  H1056   1.114   .     S
C1023  C1027   1.391   .     A
C1024  C1025   1.394   .     A
C1024  C197    1.403   1_556 S
C1024  C213    1.415   1_556 S
C1025  C1026   1.396   .     A
C1025  H1060   1.084   .     S
C1026  O1070   1.383   .     S
C1027  H1062   1.080   .     S
C1028  O1078   1.385   .     S
H1054  C839    1.110   1_655 S
H1061  C197    1.084   1_556 S
N1065  Zn1079  2.005   .     S
N1066  Zn1080  2.005   .     S
O1067  Zn1079  2.001   .     S
O1071  Zn1080  2.010   .     S
O1072  Zn1079  1.951   .     S
O1073  Zn1080  1.895   .     S
O1074  Zn1079  2.010   .     S
O1075  Zn1080  2.001   .     S
O1076  Zn1079  1.895   .     S
O1077  Zn1080  1.951   .     S
C1081  O1157   1.278   .     A
C1081  O1161   1.290   .     A
C1081  C1089   1.431   .     S
C1082  C1084   1.478   .     S
C1082  C1099   1.427   .     A
C1082  C1103   1.413   .     A
C1083  C1089   1.397   .     A
C1083  H1120   1.084   .     S
C1083  C1355   1.367   .     S
C1084  O1163   1.304   .     A
C1084  O1162   1.285   .     A
C1085  C1086   1.394   .     A
C1085  H1119   1.084   .     S
C1086  C1095   1.433   .     S
C1086  C1087   1.409   .     A
C1087  O1158   1.382   .     S
C1088  C1089   1.420   .     A
C1088  C1105   1.533   .     S
C1088  C1357   1.391   .     S
C1090  N1156   1.360   .     A
C1090  H1130   1.079   .     S
C1090  C1181   1.437   .     S
C1091  O1159   1.397   .     S
C1091  N1155   1.376   .     A
C1091  C1270   1.437   1_455 S
C1092  C1103   1.405   .     A
C1092  C291    1.410   1_556 S
C1092  C303    1.410   1_556 S
C1093  N1155   1.363   .     A
C1093  H1141   1.082   .     S
C1093  C1274   1.411   1_455 S
C1094  N1156   1.365   .     A
C1094  H1149   1.078   .     S
C1094  C1183   1.411   .     S
C1095  O1164   1.282   .     A
C1095  O1165   1.287   .     A
C1096  O1167   1.286   .     A
C1096  O1166   1.295   .     A
C1096  C1098   1.456   .     S
C1097  C1118   1.405   .     A
C1098  C1117   1.385   .     A
C1098  C1118   1.409   .     A
C1099  C1109   1.515   .     S
C1099  C290    1.397   1_556 S
C1100  H1154   1.084   .     S
C1100  C1101   1.385   .     A
C1101  H1153   1.076   .     S
C1102  H1121   1.109   .     S
C1102  O1168   1.410   .     S
C1102  H1123   1.111   .     S
C1102  H1122   1.113   .     S
C1103  C1116   1.421   .     A
C1104  H1125   1.112   .     S
C1104  O1158   1.412   .     S
C1104  H1124   1.109   .     S
C1104  H1126   1.111   .     S
C1105  H1133   1.107   .     S
C1105  H1134   1.110   .     S
C1105  C1106   1.533   .     S
C1106  C1107   1.527   .     S
C1106  H1132   1.107   .     S
C1106  H1131   1.112   .     S
C1107  H1128   1.108   .     S
C1107  H1127   1.111   .     S
C1107  H1129   1.111   .     S
C1108  H1136   1.112   .     S
C1108  H1137   1.110   .     S
C1108  O1159   1.412   .     S
C1108  H1135   1.109   .     S
C1109  C1110   1.530   .     S
C1109  H1145   1.108   .     S
C1109  H1324   1.110   1_455 S
C1110  H1143   1.112   .     S
C1110  H1142   1.109   .     S
C1110  C1291   1.527   1_455 S
C1111  H1138   1.111   .     S
C1111  H1139   1.110   .     S
C1111  H1140   1.109   .     S
C1111  C1200   1.527   .     S
C1112  H1148   1.107   .     S
C1112  O1160   1.412   .     S
C1112  H1147   1.113   .     S
C1112  H1146   1.114   .     S
C1113  C1117   1.391   .     A
C1114  C1115   1.394   .     A
C1114  C287    1.403   1_556 S
C1114  C303    1.415   1_556 S
C1115  C1116   1.396   .     A
C1115  H1150   1.084   .     S
C1116  O1160   1.383   .     S
C1117  H1152   1.080   .     S
C1118  O1168   1.385   .     S
H1144  C1199   1.110   .     S
H1151  C287    1.084   1_556 S
N1155  Zn1169  2.005   .     S
N1156  Zn1170  2.005   .     S
O1157  Zn1169  2.001   .     S
O1161  Zn1170  2.010   .     S
O1162  Zn1169  1.951   .     S
O1163  Zn1170  1.895   .     S
O1164  Zn1169  2.010   .     S
O1165  Zn1170  2.001   .     S
O1166  Zn1169  1.895   .     S
O1167  Zn1170  1.951   .     S
C1171  O1247   1.278   .     A
C1171  O1251   1.290   .     A
C1171  C1179   1.431   .     S
C1172  C1174   1.478   .     S
C1172  C1189   1.427   .     A
C1172  C1193   1.413   .     A
C1173  C1179   1.397   .     A
C1173  H1210   1.084   .     S
C1173  C1445   1.367   .     S
C1174  O1253   1.304   .     A
C1174  O1252   1.285   .     A
C1175  C1176   1.394   .     A
C1175  H1209   1.084   .     S
C1176  C1185   1.433   .     S
C1176  C1177   1.409   .     A
C1177  O1248   1.382   .     S
C1178  C1179   1.420   .     A
C1178  C1195   1.533   .     S
C1178  C1447   1.391   .     S
C1180  N1246   1.360   .     A
C1180  H1220   1.079   .     S
C1180  C1271   1.437   .     S
C1181  O1249   1.397   .     S
C1181  N1245   1.376   .     A
C1182  C1193   1.405   .     A
C1182  C381    1.410   1_556 S
C1182  C393    1.410   1_556 S
C1183  N1245   1.363   .     A
C1183  H1231   1.082   .     S
C1184  N1246   1.365   .     A
C1184  H1239   1.078   .     S
C1184  C1273   1.411   .     S
C1185  O1254   1.282   .     A
C1185  O1255   1.287   .     A
C1186  O1257   1.286   .     A
C1186  O1256   1.295   .     A
C1186  C1188   1.456   .     S
C1187  C1208   1.405   .     A
C1188  C1207   1.385   .     A
C1188  C1208   1.409   .     A
C1189  C1199   1.515   .     S
C1189  C380    1.397   1_556 S
C1190  H1244   1.084   .     S
C1190  C1191   1.385   .     A
C1191  H1243   1.076   .     S
C1192  H1211   1.109   .     S
C1192  O1258   1.410   .     S
C1192  H1213   1.111   .     S
C1192  H1212   1.113   .     S
C1193  C1206   1.421   .     A
C1194  H1215   1.112   .     S
C1194  O1248   1.412   .     S
C1194  H1214   1.109   .     S
C1194  H1216   1.111   .     S
C1195  H1223   1.107   .     S
C1195  H1224   1.110   .     S
C1195  C1196   1.533   .     S
C1196  C1197   1.527   .     S
C1196  H1222   1.107   .     S
C1196  H1221   1.112   .     S
C1197  H1218   1.108   .     S
C1197  H1217   1.111   .     S
C1197  H1219   1.111   .     S
C1198  H1226   1.112   .     S
C1198  H1227   1.110   .     S
C1198  O1249   1.412   .     S
C1198  H1225   1.109   .     S
C1199  C1200   1.530   .     S
C1199  H1235   1.108   .     S
C1200  H1233   1.112   .     S
C1200  H1232   1.109   .     S
C1201  H1228   1.111   .     S
C1201  H1229   1.110   .     S
C1201  H1230   1.109   .     S
C1201  C1290   1.527   .     S
C1202  H1238   1.107   .     S
C1202  O1250   1.412   .     S
C1202  H1237   1.113   .     S
C1202  H1236   1.114   .     S
C1203  C1207   1.391   .     A
C1204  C1205   1.394   .     A
C1204  C377    1.403   1_556 S
C1204  C393    1.415   1_556 S
C1205  C1206   1.396   .     A
C1205  H1240   1.084   .     S
C1206  O1250   1.383   .     S
C1207  H1242   1.080   .     S
C1208  O1258   1.385   .     S
H1234  C1289   1.110   .     S
H1241  C377    1.084   1_556 S
N1245  Zn1259  2.005   .     S
N1246  Zn1260  2.005   .     S
O1247  Zn1259  2.001   .     S
O1251  Zn1260  2.010   .     S
O1252  Zn1259  1.951   .     S
O1253  Zn1260  1.895   .     S
O1254  Zn1259  2.010   .     S
O1255  Zn1260  2.001   .     S
O1256  Zn1259  1.895   .     S
O1257  Zn1260  1.951   .     S
C1261  O1337   1.278   .     A
C1261  O1341   1.290   .     A
C1261  C1269   1.431   .     S
C1262  C1264   1.478   .     S
C1262  C1279   1.427   .     A
C1262  C1283   1.413   .     A
C1263  C1269   1.397   .     A
C1263  H1300   1.084   .     S
C1263  C1535   1.367   .     S
C1264  O1343   1.304   .     A
C1264  O1342   1.285   .     A
C1265  C1266   1.394   .     A
C1265  H1299   1.084   .     S
C1266  C1275   1.433   .     S
C1266  C1267   1.409   .     A
C1267  O1338   1.382   .     S
C1268  C1269   1.420   .     A
C1268  C1285   1.533   .     S
C1268  C1537   1.391   .     S
C1270  N1336   1.360   .     A
C1270  H1310   1.079   .     S
C1270  C1091   1.437   1_655 S
C1271  O1339   1.397   .     S
C1271  N1335   1.376   .     A
C1272  C1283   1.405   .     A
C1272  C471    1.410   1_556 S
C1272  C483    1.410   1_556 S
C1273  N1335   1.363   .     A
C1273  H1321   1.082   .     S
C1274  N1336   1.365   .     A
C1274  H1329   1.078   .     S
C1274  C1093   1.411   1_655 S
C1275  O1344   1.282   .     A
C1275  O1345   1.287   .     A
C1276  O1347   1.286   .     A
C1276  O1346   1.295   .     A
C1276  C1278   1.456   .     S
C1277  C1298   1.405   .     A
C1278  C1297   1.385   .     A
C1278  C1298   1.409   .     A
C1279  C1289   1.515   .     S
C1279  C470    1.397   1_556 S
C1280  H1334   1.084   .     S
C1280  C1281   1.385   .     A
C1281  H1333   1.076   .     S
C1282  H1301   1.109   .     S
C1282  O1348   1.410   .     S
C1282  H1303   1.111   .     S
C1282  H1302   1.113   .     S
C1283  C1296   1.421   .     A
C1284  H1305   1.112   .     S
C1284  O1338   1.412   .     S
C1284  H1304   1.109   .     S
C1284  H1306   1.111   .     S
C1285  H1313   1.107   .     S
C1285  H1314   1.110   .     S
C1285  C1286   1.533   .     S
C1286  C1287   1.527   .     S
C1286  H1312   1.107   .     S
C1286  H1311   1.112   .     S
C1287  H1308   1.108   .     S
C1287  H1307   1.111   .     S
C1287  H1309   1.111   .     S
C1288  H1316   1.112   .     S
C1288  H1317   1.110   .     S
C1288  O1339   1.412   .     S
C1288  H1315   1.109   .     S
C1289  C1290   1.530   .     S
C1289  H1325   1.108   .     S
C1290  H1323   1.112   .     S
C1290  H1322   1.109   .     S
C1291  H1318   1.111   .     S
C1291  H1319   1.110   .     S
C1291  H1320   1.109   .     S
C1291  C1110   1.527   1_655 S
C1292  H1328   1.107   .     S
C1292  O1340   1.412   .     S
C1292  H1327   1.113   .     S
C1292  H1326   1.114   .     S
C1293  C1297   1.391   .     A
C1294  C1295   1.394   .     A
C1294  C467    1.403   1_556 S
C1294  C483    1.415   1_556 S
C1295  C1296   1.396   .     A
C1295  H1330   1.084   .     S
C1296  O1340   1.383   .     S
C1297  H1332   1.080   .     S
C1298  O1348   1.385   .     S
H1324  C1109   1.110   1_655 S
H1331  C467    1.084   1_556 S
N1335  Zn1349  2.005   .     S
N1336  Zn1350  2.005   .     S
O1337  Zn1349  2.001   .     S
O1341  Zn1350  2.010   .     S
O1342  Zn1349  1.951   .     S
O1343  Zn1350  1.895   .     S
O1344  Zn1349  2.010   .     S
O1345  Zn1350  2.001   .     S
O1346  Zn1349  1.895   .     S
O1347  Zn1350  1.951   .     S
C1351  O1427   1.278   .     A
C1351  O1431   1.290   .     A
C1351  C1359   1.431   .     S
C1352  C1354   1.478   .     S
C1352  C1369   1.427   .     A
C1352  C1373   1.413   .     A
C1353  C1359   1.397   .     A
C1353  H1390   1.084   .     S
C1353  C815    1.367   1_565 S
C1354  O1433   1.304   .     A
C1354  O1432   1.285   .     A
C1355  C1356   1.394   .     A
C1355  H1389   1.084   .     S
C1356  C1365   1.433   .     S
C1356  C1357   1.409   .     A
C1357  O1428   1.382   .     S
C1358  C1359   1.420   .     A
C1358  C1375   1.533   .     S
C1358  C817    1.391   1_565 S
C1360  N1426   1.360   .     A
C1360  H1400   1.079   .     S
C1360  C1451   1.437   .     S
C1361  O1429   1.397   .     S
C1361  N1425   1.376   .     A
C1361  C1540   1.437   1_455 S
C1362  C1373   1.405   .     A
C1362  C561    1.410   1_556 S
C1362  C573    1.410   1_556 S
C1363  N1425   1.363   .     A
C1363  H1411   1.082   .     S
C1363  C1544   1.411   1_455 S
C1364  N1426   1.365   .     A
C1364  H1419   1.078   .     S
C1364  C1453   1.411   .     S
C1365  O1434   1.282   .     A
C1365  O1435   1.287   .     A
C1366  O1437   1.286   .     A
C1366  O1436   1.295   .     A
C1366  C1368   1.456   .     S
C1367  C1388   1.405   .     A
C1368  C1387   1.385   .     A
C1368  C1388   1.409   .     A
C1369  C1379   1.515   .     S
C1369  C560    1.397   1_556 S
C1370  H1424   1.084   .     S
C1370  C1371   1.385   .     A
C1371  H1423   1.076   .     S
C1372  H1391   1.109   .     S
C1372  O1438   1.410   .     S
C1372  H1393   1.111   .     S
C1372  H1392   1.113   .     S
C1373  C1386   1.421   .     A
C1374  H1395   1.112   .     S
C1374  O1428   1.412   .     S
C1374  H1394   1.109   .     S
C1374  H1396   1.111   .     S
C1375  H1403   1.107   .     S
C1375  H1404   1.110   .     S
C1375  C1376   1.533   .     S
C1376  C1377   1.527   .     S
C1376  H1402   1.107   .     S
C1376  H1401   1.112   .     S
C1377  H1398   1.108   .     S
C1377  H1397   1.111   .     S
C1377  H1399   1.111   .     S
C1378  H1406   1.112   .     S
C1378  H1407   1.110   .     S
C1378  O1429   1.412   .     S
C1378  H1405   1.109   .     S
C1379  C1380   1.530   .     S
C1379  H1415   1.108   .     S
C1379  H1594   1.110   1_455 S
C1380  H1413   1.112   .     S
C1380  H1412   1.109   .     S
C1380  C1561   1.527   1_455 S
C1381  H1408   1.111   .     S
C1381  H1409   1.110   .     S
C1381  H1410   1.109   .     S
C1381  C1470   1.527   .     S
C1382  H1418   1.107   .     S
C1382  O1430   1.412   .     S
C1382  H1417   1.113   .     S
C1382  H1416   1.114   .     S
C1383  C1387   1.391   .     A
C1384  C1385   1.394   .     A
C1384  C557    1.403   1_556 S
C1384  C573    1.415   1_556 S
C1385  C1386   1.396   .     A
C1385  H1420   1.084   .     S
C1386  O1430   1.383   .     S
C1387  H1422   1.080   .     S
C1388  O1438   1.385   .     S
H1414  C1469   1.110   .     S
H1421  C557    1.084   1_556 S
N1425  Zn1439  2.005   .     S
N1426  Zn1440  2.005   .     S
O1427  Zn1439  2.001   .     S
O1431  Zn1440  2.010   .     S
O1432  Zn1439  1.951   .     S
O1433  Zn1440  1.895   .     S
O1434  Zn1439  2.010   .     S
O1435  Zn1440  2.001   .     S
O1436  Zn1439  1.895   .     S
O1437  Zn1440  1.951   .     S
C1441  O1517   1.278   .     A
C1441  O1521   1.290   .     A
C1441  C1449   1.431   .     S
C1442  C1444   1.478   .     S
C1442  C1459   1.427   .     A
C1442  C1463   1.413   .     A
C1443  C1449   1.397   .     A
C1443  H1480   1.084   .     S
C1443  C905    1.367   1_565 S
C1444  O1523   1.304   .     A
C1444  O1522   1.285   .     A
C1445  C1446   1.394   .     A
C1445  H1479   1.084   .     S
C1446  C1455   1.433   .     S
C1446  C1447   1.409   .     A
C1447  O1518   1.382   .     S
C1448  C1449   1.420   .     A
C1448  C1465   1.533   .     S
C1448  C907    1.391   1_565 S
C1450  N1516   1.360   .     A
C1450  H1490   1.079   .     S
C1450  C1541   1.437   .     S
C1451  O1519   1.397   .     S
C1451  N1515   1.376   .     A
C1452  C1463   1.405   .     A
C1452  C651    1.410   1_556 S
C1452  C663    1.410   1_556 S
C1453  N1515   1.363   .     A
C1453  H1501   1.082   .     S
C1454  N1516   1.365   .     A
C1454  H1509   1.078   .     S
C1454  C1543   1.411   .     S
C1455  O1524   1.282   .     A
C1455  O1525   1.287   .     A
C1456  O1527   1.286   .     A
C1456  O1526   1.295   .     A
C1456  C1458   1.456   .     S
C1457  C1478   1.405   .     A
C1458  C1477   1.385   .     A
C1458  C1478   1.409   .     A
C1459  C1469   1.515   .     S
C1459  C650    1.397   1_556 S
C1460  H1514   1.084   .     S
C1460  C1461   1.385   .     A
C1461  H1513   1.076   .     S
C1462  H1481   1.109   .     S
C1462  O1528   1.410   .     S
C1462  H1483   1.111   .     S
C1462  H1482   1.113   .     S
C1463  C1476   1.421   .     A
C1464  H1485   1.112   .     S
C1464  O1518   1.412   .     S
C1464  H1484   1.109   .     S
C1464  H1486   1.111   .     S
C1465  H1493   1.107   .     S
C1465  H1494   1.110   .     S
C1465  C1466   1.533   .     S
C1466  C1467   1.527   .     S
C1466  H1492   1.107   .     S
C1466  H1491   1.112   .     S
C1467  H1488   1.108   .     S
C1467  H1487   1.111   .     S
C1467  H1489   1.111   .     S
C1468  H1496   1.112   .     S
C1468  H1497   1.110   .     S
C1468  O1519   1.412   .     S
C1468  H1495   1.109   .     S
C1469  C1470   1.530   .     S
C1469  H1505   1.108   .     S
C1470  H1503   1.112   .     S
C1470  H1502   1.109   .     S
C1471  H1498   1.111   .     S
C1471  H1499   1.110   .     S
C1471  H1500   1.109   .     S
C1471  C1560   1.527   .     S
C1472  H1508   1.107   .     S
C1472  O1520   1.412   .     S
C1472  H1507   1.113   .     S
C1472  H1506   1.114   .     S
C1473  C1477   1.391   .     A
C1474  C1475   1.394   .     A
C1474  C647    1.403   1_556 S
C1474  C663    1.415   1_556 S
C1475  C1476   1.396   .     A
C1475  H1510   1.084   .     S
C1476  O1520   1.383   .     S
C1477  H1512   1.080   .     S
C1478  O1528   1.385   .     S
H1504  C1559   1.110   .     S
H1511  C647    1.084   1_556 S
N1515  Zn1529  2.005   .     S
N1516  Zn1530  2.005   .     S
O1517  Zn1529  2.001   .     S
O1521  Zn1530  2.010   .     S
O1522  Zn1529  1.951   .     S
O1523  Zn1530  1.895   .     S
O1524  Zn1529  2.010   .     S
O1525  Zn1530  2.001   .     S
O1526  Zn1529  1.895   .     S
O1527  Zn1530  1.951   .     S
C1531  O1607   1.278   .     A
C1531  O1611   1.290   .     A
C1531  C1539   1.431   .     S
C1532  C1534   1.478   .     S
C1532  C1549   1.427   .     A
C1532  C1553   1.413   .     A
C1533  C1539   1.397   .     A
C1533  H1570   1.084   .     S
C1533  C995    1.367   1_565 S
C1534  O1613   1.304   .     A
C1534  O1612   1.285   .     A
C1535  C1536   1.394   .     A
C1535  H1569   1.084   .     S
C1536  C1545   1.433   .     S
C1536  C1537   1.409   .     A
C1537  O1608   1.382   .     S
C1538  C1539   1.420   .     A
C1538  C1555   1.533   .     S
C1538  C997    1.391   1_565 S
C1540  N1606   1.360   .     A
C1540  H1580   1.079   .     S
C1540  C1361   1.437   1_655 S
C1541  O1609   1.397   .     S
C1541  N1605   1.376   .     A
C1542  C1553   1.405   .     A
C1542  C741    1.410   1_556 S
C1542  C753    1.410   1_556 S
C1543  N1605   1.363   .     A
C1543  H1591   1.082   .     S
C1544  N1606   1.365   .     A
C1544  H1599   1.078   .     S
C1544  C1363   1.411   1_655 S
C1545  O1614   1.282   .     A
C1545  O1615   1.287   .     A
C1546  O1617   1.286   .     A
C1546  O1616   1.295   .     A
C1546  C1548   1.456   .     S
C1547  C1568   1.405   .     A
C1548  C1567   1.385   .     A
C1548  C1568   1.409   .     A
C1549  C1559   1.515   .     S
C1549  C740    1.397   1_556 S
C1550  H1604   1.084   .     S
C1550  C1551   1.385   .     A
C1551  H1603   1.076   .     S
C1552  H1571   1.109   .     S
C1552  O1618   1.410   .     S
C1552  H1573   1.111   .     S
C1552  H1572   1.113   .     S
C1553  C1566   1.421   .     A
C1554  H1575   1.112   .     S
C1554  O1608   1.412   .     S
C1554  H1574   1.109   .     S
C1554  H1576   1.111   .     S
C1555  H1583   1.107   .     S
C1555  H1584   1.110   .     S
C1555  C1556   1.533   .     S
C1556  C1557   1.527   .     S
C1556  H1582   1.107   .     S
C1556  H1581   1.112   .     S
C1557  H1578   1.108   .     S
C1557  H1577   1.111   .     S
C1557  H1579   1.111   .     S
C1558  H1586   1.112   .     S
C1558  H1587   1.110   .     S
C1558  O1609   1.412   .     S
C1558  H1585   1.109   .     S
C1559  C1560   1.530   .     S
C1559  H1595   1.108   .     S
C1560  H1593   1.112   .     S
C1560  H1592   1.109   .     S
C1561  H1588   1.111   .     S
C1561  H1589   1.110   .     S
C1561  H1590   1.109   .     S
C1561  C1380   1.527   1_655 S
C1562  H1598   1.107   .     S
C1562  O1610   1.412   .     S
C1562  H1597   1.113   .     S
C1562  H1596   1.114   .     S
C1563  C1567   1.391   .     A
C1564  C1565   1.394   .     A
C1564  C737    1.403   1_556 S
C1564  C753    1.415   1_556 S
C1565  C1566   1.396   .     A
C1565  H1600   1.084   .     S
C1566  O1610   1.383   .     S
C1567  H1602   1.080   .     S
C1568  O1618   1.385   .     S
H1594  C1379   1.110   1_655 S
H1601  C737    1.084   1_556 S
N1605  Zn1619  2.005   .     S
N1606  Zn1620  2.005   .     S
O1607  Zn1619  2.001   .     S
O1611  Zn1620  2.010   .     S
O1612  Zn1619  1.951   .     S
O1613  Zn1620  1.895   .     S
O1614  Zn1619  2.010   .     S
O1615  Zn1620  2.001   .     S
O1616  Zn1619  1.895   .     S
O1617  Zn1620  1.951   .     S
