data_str_m2_o2_o10_pcu_sym.47
_audit_creation_date              2020-01-03
_audit_creation_method            'Materials Studio'
_symmetry_space_group_name_H-M    'P1'
_symmetry_Int_Tables_number       1
_symmetry_cell_setting            triclinic
loop_
_symmetry_equiv_pos_as_xyz
  x,y,z
_cell_length_a                    26.5480
_cell_length_b                    30.2225
_cell_length_c                    28.0047
_cell_angle_alpha                 89.3804
_cell_angle_beta                  94.7588
_cell_angle_gamma                 93.0164
loop_
_atom_site_label
_atom_site_type_symbol
_atom_site_fract_x
_atom_site_fract_y
_atom_site_fract_z
_atom_site_U_iso_or_equiv
_atom_site_adp_type
_atom_site_occupancy
C1     C     0.16882   0.16509   0.25022   0.00000  Uiso   1.00
C2     C     0.18099   0.28985   0.44625   0.00000  Uiso   1.00
C3     C     0.16253   0.25213   0.02663   0.00000  Uiso   1.00
C4     C     0.16309   0.25262   0.47237   0.00000  Uiso   1.00
C5     C     0.06862   0.25028   0.23897   0.00000  Uiso   1.00
C6     C     0.26484   0.24969   0.26113   0.00000  Uiso   1.00
C7     C     0.01665   0.26095   0.23610   0.00000  Uiso   1.00
C8     C     0.31733   0.23988   0.26454   0.00000  Uiso   1.00
C9     C     0.15448   0.04706   0.29135   0.00000  Uiso   1.00
C10    C     0.18462   0.45219   0.20722   0.00000  Uiso   1.00
C11    C     0.15138   0.09282   0.28767   0.00000  Uiso   1.00
C12    C     0.16499   0.33501   0.24976   0.00000  Uiso   1.00
C13    C     0.18646   0.40637   0.21229   0.00000  Uiso   1.00
C14    C     0.17383   0.11687   0.25133   0.00000  Uiso   1.00
C15    C     0.16169   0.38348   0.24814   0.00000  Uiso   1.00
C16    C     0.20610   0.09499   0.22224   0.00000  Uiso   1.00
C17    C     0.12854   0.40672   0.27509   0.00000  Uiso   1.00
C18    C     0.21145   0.04910   0.22961   0.00000  Uiso   1.00
C19    C     0.12458   0.45250   0.26608   0.00000  Uiso   1.00
C20    C     0.17521   0.02437   0.25400   0.00000  Uiso   1.00
C21    C     0.16263   0.47604   0.24289   0.00000  Uiso   1.00
C22    C     0.20262   0.27252   0.05523   0.00000  Uiso   1.00
C23    C     0.14784   0.21447   0.44584   0.00000  Uiso   1.00
C24    C     0.20190   0.27461   0.10519   0.00000  Uiso   1.00
C25    C     0.14631   0.21462   0.39555   0.00000  Uiso   1.00
C26    C     0.12763   0.22780   0.10160   0.00000  Uiso   1.00
C27    C     0.18735   0.28600   0.39694   0.00000  Uiso   1.00
C28    C     0.12301   0.23126   0.05100   0.00000  Uiso   1.00
Cu29   Cu    0.16667   0.25000   0.29821   0.00000  Uiso   1.00
Cu30   Cu    0.16667   0.25001   0.20178   0.00000  Uiso   1.00
H31    H     0.13280   0.10987   0.31455   0.00000  Uiso   1.00
H32    H     0.05359   0.32097   0.33579   0.00000  Uiso   1.00
H33    H     0.28342   0.05072   0.22383   0.00000  Uiso   1.00
H34    H     0.05237   0.45313   0.26848   0.00000  Uiso   1.00
H35    H     0.22831   0.30594   0.16103   0.00000  Uiso   1.00
H36    H     0.10630   0.18924   0.34281   0.00000  Uiso   1.00
H37    H     0.10401   0.18806   0.14976   0.00000  Uiso   1.00
H38    H     0.23389   0.30721   0.35203   0.00000  Uiso   1.00
H39    H     0.07261   0.23044   0.49669   0.00000  Uiso   1.00
H40    H     0.17222   0.33365   0.49440   0.00000  Uiso   1.00
H41    H     0.20558   0.38826   0.18654   0.00000  Uiso   1.00
H42    H     0.23377   0.28944   0.03873   0.00000  Uiso   1.00
H43    H     0.13469   0.18472   0.46391   0.00000  Uiso   1.00
H44    H     0.04693   0.36978   0.18492   0.00000  Uiso   1.00
H45    H     0.26770   0.16863   0.33849   0.00000  Uiso   1.00
H46    H     0.07300   0.04570   0.35526   0.00000  Uiso   1.00
H47    H     0.17559   0.03340   0.10886   0.00000  Uiso   1.00
H48    H     0.21356   0.16031   0.11242   0.00000  Uiso   1.00
N49    N     0.16667   0.25001   0.12934   0.00000  Uiso   1.00
N50    N     0.16667   0.24999   0.37065   0.00000  Uiso   1.00
O51    O     0.16667   0.18573   0.29071   0.00000  Uiso   1.00
O52    O     0.29434   0.33330   0.21809   0.00000  Uiso   1.00
O53    O     0.05612   0.34415   0.20559   0.00000  Uiso   1.00
O54    O     0.03726   0.16613   0.28012   0.00000  Uiso   1.00
O55    O     0.01952   0.20963   0.35002   0.00000  Uiso   1.00
O56    O     0.27992   0.16046   0.30746   0.00000  Uiso   1.00
O57    O     0.17417   0.48094   0.35540   0.00000  Uiso   1.00
O58    O     0.17328   0.05594   0.38624   0.00000  Uiso   1.00
O59    O     0.08722   0.01615   0.35981   0.00000  Uiso   1.00
O60    O     0.24700   0.47889   0.14043   0.00000  Uiso   1.00
O61    O     0.16706   0.44041   0.11281   0.00000  Uiso   1.00
O62    O     0.16666   0.31428   0.20928   0.00000  Uiso   1.00
O63    O     0.16392   0.02175   0.13948   0.00000  Uiso   1.00
O64    O     0.27054   0.16085   0.19608   0.00000  Uiso   1.00
O65    O     0.26956   0.09217   0.15051   0.00000  Uiso   1.00
O66    O     0.19401   0.14171   0.13446   0.00000  Uiso   1.00
O67    O     0.13550   0.37250   0.36337   0.00000  Uiso   1.00
O68    O     0.05968   0.41211   0.34190   0.00000  Uiso   1.00
O69    O     0.06529   0.33440   0.30597   0.00000  Uiso   1.00
O70    O     0.25437   0.02883   0.21900   0.00000  Uiso   1.00
O71    O     0.08202   0.47413   0.27505   0.00000  Uiso   1.00
O72    O     0.23531   0.30504   0.12751   0.00000  Uiso   1.00
O73    O     0.16667   0.18573   0.20928   0.00000  Uiso   1.00
O74    O     0.12328   0.17822   0.37277   0.00000  Uiso   1.00
O75    O     0.08926   0.20366   0.12152   0.00000  Uiso   1.00
O76    O     0.21474   0.32001   0.37660   0.00000  Uiso   1.00
O77    O     0.07882   0.21397   0.02719   0.00000  Uiso   1.00
O78    O     0.19335   0.33051   0.46722   0.00000  Uiso   1.00
O79    O     0.16666   0.31427   0.29072   0.00000  Uiso   1.00
O80    O     0.09161   0.25000   0.28132   0.00000  Uiso   1.00
O81    O     0.24172   0.25001   0.21868   0.00000  Uiso   1.00
O82    O     0.09161   0.25000   0.19988   0.00000  Uiso   1.00
O83    O     0.24172   0.25000   0.30011   0.00000  Uiso   1.00
O84    O     0.32827   0.29576   0.15010   0.00000  Uiso   1.00
S85    S     0.00453   0.30935   0.20154   0.00000  Uiso   1.00
S86    S     0.33230   0.19325   0.30140   0.00000  Uiso   1.00
S87    S     0.14856   0.02406   0.34950   0.00000  Uiso   1.00
S88    S     0.19175   0.47329   0.14851   0.00000  Uiso   1.00
S89    S     0.23755   0.12267   0.17557   0.00000  Uiso   1.00
S90    S     0.09660   0.38195   0.32313   0.00000  Uiso   1.00
C91    C     0.50216   0.16509   0.25022   0.00000  Uiso   1.00
C92    C     0.51433   0.28985   0.44625   0.00000  Uiso   1.00
C93    C     0.49587   0.25213   0.02663   0.00000  Uiso   1.00
C94    C     0.49643   0.25262   0.47237   0.00000  Uiso   1.00
C95    C     0.40196   0.25028   0.23897   0.00000  Uiso   1.00
C96    C     0.59817   0.24969   0.26113   0.00000  Uiso   1.00
C97    C     0.34998   0.26095   0.23610   0.00000  Uiso   1.00
C98    C     0.65067   0.23988   0.26454   0.00000  Uiso   1.00
C99    C     0.48781   0.04706   0.29135   0.00000  Uiso   1.00
C100   C     0.51796   0.45219   0.20722   0.00000  Uiso   1.00
C101   C     0.48471   0.09282   0.28767   0.00000  Uiso   1.00
C102   C     0.49832   0.33501   0.24976   0.00000  Uiso   1.00
C103   C     0.51980   0.40637   0.21229   0.00000  Uiso   1.00
C104   C     0.50716   0.11687   0.25133   0.00000  Uiso   1.00
C105   C     0.49503   0.38348   0.24814   0.00000  Uiso   1.00
C106   C     0.53944   0.09499   0.22224   0.00000  Uiso   1.00
C107   C     0.46187   0.40672   0.27509   0.00000  Uiso   1.00
C108   C     0.54479   0.04910   0.22961   0.00000  Uiso   1.00
C109   C     0.45791   0.45250   0.26608   0.00000  Uiso   1.00
C110   C     0.50854   0.02437   0.25400   0.00000  Uiso   1.00
C111   C     0.49597   0.47604   0.24289   0.00000  Uiso   1.00
C112   C     0.53596   0.27252   0.05523   0.00000  Uiso   1.00
C113   C     0.48118   0.21447   0.44584   0.00000  Uiso   1.00
C114   C     0.53523   0.27461   0.10519   0.00000  Uiso   1.00
C115   C     0.47964   0.21462   0.39555   0.00000  Uiso   1.00
C116   C     0.46096   0.22780   0.10160   0.00000  Uiso   1.00
C117   C     0.52069   0.28600   0.39694   0.00000  Uiso   1.00
C118   C     0.45634   0.23126   0.05100   0.00000  Uiso   1.00
Cu119  Cu    0.50000   0.25000   0.29821   0.00000  Uiso   1.00
Cu120  Cu    0.50000   0.25001   0.20178   0.00000  Uiso   1.00
H121   H     0.46613   0.10987   0.31455   0.00000  Uiso   1.00
H122   H     0.38693   0.32097   0.33579   0.00000  Uiso   1.00
H123   H     0.61676   0.05072   0.22383   0.00000  Uiso   1.00
H124   H     0.38570   0.45313   0.26848   0.00000  Uiso   1.00
H125   H     0.56165   0.30594   0.16103   0.00000  Uiso   1.00
H126   H     0.43964   0.18924   0.34281   0.00000  Uiso   1.00
H127   H     0.43734   0.18806   0.14976   0.00000  Uiso   1.00
H128   H     0.56722   0.30721   0.35203   0.00000  Uiso   1.00
H129   H     0.40594   0.23044   0.49669   0.00000  Uiso   1.00
H130   H     0.50555   0.33365   0.49440   0.00000  Uiso   1.00
H131   H     0.53891   0.38826   0.18654   0.00000  Uiso   1.00
H132   H     0.56710   0.28944   0.03873   0.00000  Uiso   1.00
H133   H     0.46802   0.18472   0.46391   0.00000  Uiso   1.00
H134   H     0.38026   0.36978   0.18492   0.00000  Uiso   1.00
H135   H     0.60103   0.16863   0.33849   0.00000  Uiso   1.00
H136   H     0.40634   0.04570   0.35526   0.00000  Uiso   1.00
H137   H     0.50892   0.03340   0.10886   0.00000  Uiso   1.00
H138   H     0.54689   0.16031   0.11242   0.00000  Uiso   1.00
N139   N     0.50000   0.25001   0.12934   0.00000  Uiso   1.00
N140   N     0.50000   0.24999   0.37065   0.00000  Uiso   1.00
O141   O     0.50000   0.18573   0.29071   0.00000  Uiso   1.00
O142   O     0.62767   0.33330   0.21809   0.00000  Uiso   1.00
O143   O     0.38945   0.34415   0.20559   0.00000  Uiso   1.00
O144   O     0.37060   0.16613   0.28012   0.00000  Uiso   1.00
O145   O     0.35286   0.20963   0.35002   0.00000  Uiso   1.00
O146   O     0.61326   0.16046   0.30746   0.00000  Uiso   1.00
O147   O     0.50751   0.48094   0.35540   0.00000  Uiso   1.00
O148   O     0.50662   0.05594   0.38624   0.00000  Uiso   1.00
O149   O     0.42055   0.01615   0.35981   0.00000  Uiso   1.00
O150   O     0.58034   0.47889   0.14043   0.00000  Uiso   1.00
O151   O     0.50040   0.44041   0.11281   0.00000  Uiso   1.00
O152   O     0.50000   0.31428   0.20928   0.00000  Uiso   1.00
O153   O     0.49726   0.02175   0.13948   0.00000  Uiso   1.00
O154   O     0.60388   0.16085   0.19608   0.00000  Uiso   1.00
O155   O     0.60289   0.09217   0.15051   0.00000  Uiso   1.00
O156   O     0.52734   0.14171   0.13446   0.00000  Uiso   1.00
O157   O     0.46883   0.37250   0.36337   0.00000  Uiso   1.00
O158   O     0.39301   0.41211   0.34190   0.00000  Uiso   1.00
O159   O     0.39862   0.33440   0.30597   0.00000  Uiso   1.00
O160   O     0.58770   0.02883   0.21900   0.00000  Uiso   1.00
O161   O     0.41535   0.47413   0.27505   0.00000  Uiso   1.00
O162   O     0.56864   0.30504   0.12751   0.00000  Uiso   1.00
O163   O     0.50000   0.18573   0.20928   0.00000  Uiso   1.00
O164   O     0.45662   0.17822   0.37277   0.00000  Uiso   1.00
O165   O     0.42259   0.20366   0.12152   0.00000  Uiso   1.00
O166   O     0.54807   0.32001   0.37660   0.00000  Uiso   1.00
O167   O     0.41216   0.21397   0.02719   0.00000  Uiso   1.00
O168   O     0.52669   0.33051   0.46722   0.00000  Uiso   1.00
O169   O     0.50000   0.31427   0.29072   0.00000  Uiso   1.00
O170   O     0.42495   0.25000   0.28132   0.00000  Uiso   1.00
O171   O     0.57505   0.25001   0.21868   0.00000  Uiso   1.00
O172   O     0.42495   0.25000   0.19988   0.00000  Uiso   1.00
O173   O     0.57505   0.25000   0.30011   0.00000  Uiso   1.00
O174   O     0.66161   0.29576   0.15010   0.00000  Uiso   1.00
S175   S     0.33786   0.30935   0.20154   0.00000  Uiso   1.00
S176   S     0.66563   0.19325   0.30140   0.00000  Uiso   1.00
S177   S     0.48189   0.02406   0.34950   0.00000  Uiso   1.00
S178   S     0.52508   0.47329   0.14851   0.00000  Uiso   1.00
S179   S     0.57088   0.12267   0.17557   0.00000  Uiso   1.00
S180   S     0.42994   0.38195   0.32313   0.00000  Uiso   1.00
C181   C     0.83549   0.16509   0.25022   0.00000  Uiso   1.00
C182   C     0.84766   0.28985   0.44625   0.00000  Uiso   1.00
C183   C     0.82920   0.25213   0.02663   0.00000  Uiso   1.00
C184   C     0.82976   0.25262   0.47237   0.00000  Uiso   1.00
C185   C     0.73529   0.25028   0.23897   0.00000  Uiso   1.00
C186   C     0.93151   0.24969   0.26113   0.00000  Uiso   1.00
C187   C     0.68332   0.26095   0.23610   0.00000  Uiso   1.00
C188   C     0.98400   0.23988   0.26454   0.00000  Uiso   1.00
C189   C     0.82114   0.04706   0.29135   0.00000  Uiso   1.00
C190   C     0.85129   0.45219   0.20722   0.00000  Uiso   1.00
C191   C     0.81804   0.09282   0.28767   0.00000  Uiso   1.00
C192   C     0.83165   0.33501   0.24976   0.00000  Uiso   1.00
C193   C     0.85313   0.40637   0.21229   0.00000  Uiso   1.00
C194   C     0.84050   0.11687   0.25133   0.00000  Uiso   1.00
C195   C     0.82836   0.38348   0.24814   0.00000  Uiso   1.00
C196   C     0.87277   0.09499   0.22224   0.00000  Uiso   1.00
C197   C     0.79521   0.40672   0.27509   0.00000  Uiso   1.00
C198   C     0.87812   0.04910   0.22961   0.00000  Uiso   1.00
C199   C     0.79124   0.45250   0.26608   0.00000  Uiso   1.00
C200   C     0.84188   0.02437   0.25400   0.00000  Uiso   1.00
C201   C     0.82930   0.47604   0.24289   0.00000  Uiso   1.00
C202   C     0.86929   0.27252   0.05523   0.00000  Uiso   1.00
C203   C     0.81451   0.21447   0.44584   0.00000  Uiso   1.00
C204   C     0.86857   0.27461   0.10519   0.00000  Uiso   1.00
C205   C     0.81297   0.21462   0.39555   0.00000  Uiso   1.00
C206   C     0.79430   0.22780   0.10160   0.00000  Uiso   1.00
C207   C     0.85402   0.28600   0.39694   0.00000  Uiso   1.00
C208   C     0.78967   0.23126   0.05100   0.00000  Uiso   1.00
Cu209  Cu    0.83333   0.25000   0.29821   0.00000  Uiso   1.00
Cu210  Cu    0.83333   0.25001   0.20178   0.00000  Uiso   1.00
H211   H     0.79946   0.10987   0.31455   0.00000  Uiso   1.00
H212   H     0.72026   0.32097   0.33579   0.00000  Uiso   1.00
H213   H     0.95009   0.05072   0.22383   0.00000  Uiso   1.00
H214   H     0.71903   0.45313   0.26848   0.00000  Uiso   1.00
H215   H     0.89498   0.30594   0.16103   0.00000  Uiso   1.00
H216   H     0.77297   0.18924   0.34281   0.00000  Uiso   1.00
H217   H     0.77067   0.18806   0.14976   0.00000  Uiso   1.00
H218   H     0.90055   0.30721   0.35203   0.00000  Uiso   1.00
H219   H     0.73928   0.23044   0.49669   0.00000  Uiso   1.00
H220   H     0.83889   0.33365   0.49440   0.00000  Uiso   1.00
H221   H     0.87225   0.38826   0.18654   0.00000  Uiso   1.00
H222   H     0.90043   0.28944   0.03873   0.00000  Uiso   1.00
H223   H     0.80135   0.18472   0.46391   0.00000  Uiso   1.00
H224   H     0.71359   0.36978   0.18492   0.00000  Uiso   1.00
H225   H     0.93437   0.16863   0.33849   0.00000  Uiso   1.00
H226   H     0.73967   0.04570   0.35526   0.00000  Uiso   1.00
H227   H     0.84225   0.03340   0.10886   0.00000  Uiso   1.00
H228   H     0.88022   0.16031   0.11242   0.00000  Uiso   1.00
N229   N     0.83333   0.25001   0.12934   0.00000  Uiso   1.00
N230   N     0.83333   0.24999   0.37065   0.00000  Uiso   1.00
O231   O     0.83334   0.18573   0.29071   0.00000  Uiso   1.00
O232   O     0.96100   0.33330   0.21809   0.00000  Uiso   1.00
O233   O     0.72278   0.34415   0.20559   0.00000  Uiso   1.00
O234   O     0.70393   0.16613   0.28012   0.00000  Uiso   1.00
O235   O     0.68619   0.20963   0.35002   0.00000  Uiso   1.00
O236   O     0.94659   0.16046   0.30746   0.00000  Uiso   1.00
O237   O     0.84084   0.48094   0.35540   0.00000  Uiso   1.00
O238   O     0.83995   0.05594   0.38624   0.00000  Uiso   1.00
O239   O     0.75388   0.01615   0.35981   0.00000  Uiso   1.00
O240   O     0.91367   0.47889   0.14043   0.00000  Uiso   1.00
O241   O     0.83373   0.44041   0.11281   0.00000  Uiso   1.00
O242   O     0.83333   0.31428   0.20928   0.00000  Uiso   1.00
O243   O     0.83059   0.02175   0.13948   0.00000  Uiso   1.00
O244   O     0.93721   0.16085   0.19608   0.00000  Uiso   1.00
O245   O     0.93623   0.09217   0.15051   0.00000  Uiso   1.00
O246   O     0.86067   0.14171   0.13446   0.00000  Uiso   1.00
O247   O     0.80216   0.37250   0.36337   0.00000  Uiso   1.00
O248   O     0.72635   0.41211   0.34190   0.00000  Uiso   1.00
O249   O     0.73196   0.33440   0.30597   0.00000  Uiso   1.00
O250   O     0.92103   0.02883   0.21900   0.00000  Uiso   1.00
O251   O     0.74868   0.47413   0.27505   0.00000  Uiso   1.00
O252   O     0.90198   0.30504   0.12751   0.00000  Uiso   1.00
O253   O     0.83334   0.18573   0.20928   0.00000  Uiso   1.00
O254   O     0.78995   0.17822   0.37277   0.00000  Uiso   1.00
O255   O     0.75592   0.20366   0.12152   0.00000  Uiso   1.00
O256   O     0.88141   0.32001   0.37660   0.00000  Uiso   1.00
O257   O     0.74549   0.21397   0.02719   0.00000  Uiso   1.00
O258   O     0.86002   0.33051   0.46722   0.00000  Uiso   1.00
O259   O     0.83333   0.31427   0.29072   0.00000  Uiso   1.00
O260   O     0.75828   0.25000   0.28132   0.00000  Uiso   1.00
O261   O     0.90839   0.25001   0.21868   0.00000  Uiso   1.00
O262   O     0.75828   0.25000   0.19988   0.00000  Uiso   1.00
O263   O     0.90839   0.25000   0.30011   0.00000  Uiso   1.00
O264   O     0.99494   0.29576   0.15010   0.00000  Uiso   1.00
S265   S     0.67120   0.30935   0.20154   0.00000  Uiso   1.00
S266   S     0.99897   0.19325   0.30140   0.00000  Uiso   1.00
S267   S     0.81523   0.02406   0.34950   0.00000  Uiso   1.00
S268   S     0.85841   0.47329   0.14851   0.00000  Uiso   1.00
S269   S     0.90422   0.12267   0.17557   0.00000  Uiso   1.00
S270   S     0.76327   0.38195   0.32313   0.00000  Uiso   1.00
C271   C     0.16882   0.66509   0.25022   0.00000  Uiso   1.00
C272   C     0.18099   0.78985   0.44625   0.00000  Uiso   1.00
C273   C     0.16253   0.75213   0.02663   0.00000  Uiso   1.00
C274   C     0.16309   0.75262   0.47237   0.00000  Uiso   1.00
C275   C     0.06862   0.75028   0.23897   0.00000  Uiso   1.00
C276   C     0.26484   0.74969   0.26113   0.00000  Uiso   1.00
C277   C     0.01665   0.76095   0.23610   0.00000  Uiso   1.00
C278   C     0.31733   0.73988   0.26454   0.00000  Uiso   1.00
C279   C     0.15448   0.54706   0.29135   0.00000  Uiso   1.00
C280   C     0.18462   0.95219   0.20722   0.00000  Uiso   1.00
C281   C     0.15138   0.59282   0.28767   0.00000  Uiso   1.00
C282   C     0.16499   0.83501   0.24976   0.00000  Uiso   1.00
C283   C     0.18646   0.90637   0.21229   0.00000  Uiso   1.00
C284   C     0.17383   0.61687   0.25133   0.00000  Uiso   1.00
C285   C     0.16169   0.88348   0.24814   0.00000  Uiso   1.00
C286   C     0.20610   0.59499   0.22224   0.00000  Uiso   1.00
C287   C     0.12854   0.90672   0.27509   0.00000  Uiso   1.00
C288   C     0.21145   0.54910   0.22961   0.00000  Uiso   1.00
C289   C     0.12458   0.95250   0.26608   0.00000  Uiso   1.00
C290   C     0.17521   0.52437   0.25400   0.00000  Uiso   1.00
C291   C     0.16263   0.97604   0.24289   0.00000  Uiso   1.00
C292   C     0.20262   0.77252   0.05523   0.00000  Uiso   1.00
C293   C     0.14784   0.71447   0.44584   0.00000  Uiso   1.00
C294   C     0.20190   0.77461   0.10519   0.00000  Uiso   1.00
C295   C     0.14631   0.71462   0.39555   0.00000  Uiso   1.00
C296   C     0.12763   0.72780   0.10160   0.00000  Uiso   1.00
C297   C     0.18735   0.78600   0.39694   0.00000  Uiso   1.00
C298   C     0.12301   0.73126   0.05100   0.00000  Uiso   1.00
Cu299  Cu    0.16667   0.75000   0.29821   0.00000  Uiso   1.00
Cu300  Cu    0.16667   0.75001   0.20178   0.00000  Uiso   1.00
H301   H     0.13280   0.60987   0.31455   0.00000  Uiso   1.00
H302   H     0.05359   0.82097   0.33579   0.00000  Uiso   1.00
H303   H     0.28342   0.55072   0.22383   0.00000  Uiso   1.00
H304   H     0.05237   0.95313   0.26848   0.00000  Uiso   1.00
H305   H     0.22831   0.80594   0.16103   0.00000  Uiso   1.00
H306   H     0.10630   0.68924   0.34281   0.00000  Uiso   1.00
H307   H     0.10401   0.68806   0.14976   0.00000  Uiso   1.00
H308   H     0.23389   0.80721   0.35203   0.00000  Uiso   1.00
H309   H     0.07261   0.73044   0.49669   0.00000  Uiso   1.00
H310   H     0.17222   0.83365   0.49440   0.00000  Uiso   1.00
H311   H     0.20558   0.88826   0.18654   0.00000  Uiso   1.00
H312   H     0.23377   0.78944   0.03873   0.00000  Uiso   1.00
H313   H     0.13469   0.68472   0.46391   0.00000  Uiso   1.00
H314   H     0.04693   0.86978   0.18492   0.00000  Uiso   1.00
H315   H     0.26770   0.66863   0.33849   0.00000  Uiso   1.00
H316   H     0.07300   0.54570   0.35526   0.00000  Uiso   1.00
H317   H     0.17559   0.53340   0.10886   0.00000  Uiso   1.00
H318   H     0.21356   0.66031   0.11242   0.00000  Uiso   1.00
N319   N     0.16667   0.75001   0.12934   0.00000  Uiso   1.00
N320   N     0.16667   0.74999   0.37065   0.00000  Uiso   1.00
O321   O     0.16667   0.68573   0.29071   0.00000  Uiso   1.00
O322   O     0.29434   0.83330   0.21809   0.00000  Uiso   1.00
O323   O     0.05612   0.84415   0.20559   0.00000  Uiso   1.00
O324   O     0.03726   0.66613   0.28012   0.00000  Uiso   1.00
O325   O     0.01952   0.70963   0.35002   0.00000  Uiso   1.00
O326   O     0.27992   0.66046   0.30746   0.00000  Uiso   1.00
O327   O     0.17417   0.98094   0.35540   0.00000  Uiso   1.00
O328   O     0.17328   0.55594   0.38624   0.00000  Uiso   1.00
O329   O     0.08722   0.51615   0.35981   0.00000  Uiso   1.00
O330   O     0.24700   0.97889   0.14043   0.00000  Uiso   1.00
O331   O     0.16706   0.94041   0.11281   0.00000  Uiso   1.00
O332   O     0.16666   0.81428   0.20928   0.00000  Uiso   1.00
O333   O     0.16392   0.52175   0.13948   0.00000  Uiso   1.00
O334   O     0.27054   0.66085   0.19608   0.00000  Uiso   1.00
O335   O     0.26956   0.59217   0.15051   0.00000  Uiso   1.00
O336   O     0.19401   0.64171   0.13446   0.00000  Uiso   1.00
O337   O     0.13550   0.87250   0.36337   0.00000  Uiso   1.00
O338   O     0.05968   0.91211   0.34190   0.00000  Uiso   1.00
O339   O     0.06529   0.83440   0.30597   0.00000  Uiso   1.00
O340   O     0.25437   0.52883   0.21900   0.00000  Uiso   1.00
O341   O     0.08202   0.97413   0.27505   0.00000  Uiso   1.00
O342   O     0.23531   0.80504   0.12751   0.00000  Uiso   1.00
O343   O     0.16667   0.68573   0.20928   0.00000  Uiso   1.00
O344   O     0.12328   0.67822   0.37277   0.00000  Uiso   1.00
O345   O     0.08926   0.70366   0.12152   0.00000  Uiso   1.00
O346   O     0.21474   0.82001   0.37660   0.00000  Uiso   1.00
O347   O     0.07882   0.71397   0.02719   0.00000  Uiso   1.00
O348   O     0.19335   0.83051   0.46722   0.00000  Uiso   1.00
O349   O     0.16666   0.81427   0.29072   0.00000  Uiso   1.00
O350   O     0.09161   0.75000   0.28132   0.00000  Uiso   1.00
O351   O     0.24172   0.75001   0.21868   0.00000  Uiso   1.00
O352   O     0.09161   0.75000   0.19988   0.00000  Uiso   1.00
O353   O     0.24172   0.75000   0.30011   0.00000  Uiso   1.00
O354   O     0.32827   0.79576   0.15010   0.00000  Uiso   1.00
S355   S     0.00453   0.80935   0.20154   0.00000  Uiso   1.00
S356   S     0.33230   0.69325   0.30140   0.00000  Uiso   1.00
S357   S     0.14856   0.52406   0.34950   0.00000  Uiso   1.00
S358   S     0.19175   0.97329   0.14851   0.00000  Uiso   1.00
S359   S     0.23755   0.62267   0.17557   0.00000  Uiso   1.00
S360   S     0.09660   0.88195   0.32313   0.00000  Uiso   1.00
C361   C     0.50216   0.66509   0.25022   0.00000  Uiso   1.00
C362   C     0.51433   0.78985   0.44625   0.00000  Uiso   1.00
C363   C     0.49587   0.75213   0.02663   0.00000  Uiso   1.00
C364   C     0.49643   0.75262   0.47237   0.00000  Uiso   1.00
C365   C     0.40196   0.75028   0.23897   0.00000  Uiso   1.00
C366   C     0.59817   0.74969   0.26113   0.00000  Uiso   1.00
C367   C     0.34998   0.76095   0.23610   0.00000  Uiso   1.00
C368   C     0.65067   0.73988   0.26454   0.00000  Uiso   1.00
C369   C     0.48781   0.54706   0.29135   0.00000  Uiso   1.00
C370   C     0.51796   0.95219   0.20722   0.00000  Uiso   1.00
C371   C     0.48471   0.59282   0.28767   0.00000  Uiso   1.00
C372   C     0.49832   0.83501   0.24976   0.00000  Uiso   1.00
C373   C     0.51980   0.90637   0.21229   0.00000  Uiso   1.00
C374   C     0.50716   0.61687   0.25133   0.00000  Uiso   1.00
C375   C     0.49503   0.88348   0.24814   0.00000  Uiso   1.00
C376   C     0.53944   0.59499   0.22224   0.00000  Uiso   1.00
C377   C     0.46187   0.90672   0.27509   0.00000  Uiso   1.00
C378   C     0.54479   0.54910   0.22961   0.00000  Uiso   1.00
C379   C     0.45791   0.95250   0.26608   0.00000  Uiso   1.00
C380   C     0.50854   0.52437   0.25400   0.00000  Uiso   1.00
C381   C     0.49597   0.97604   0.24289   0.00000  Uiso   1.00
C382   C     0.53596   0.77252   0.05523   0.00000  Uiso   1.00
C383   C     0.48118   0.71447   0.44584   0.00000  Uiso   1.00
C384   C     0.53523   0.77461   0.10519   0.00000  Uiso   1.00
C385   C     0.47964   0.71462   0.39555   0.00000  Uiso   1.00
C386   C     0.46096   0.72780   0.10160   0.00000  Uiso   1.00
C387   C     0.52069   0.78600   0.39694   0.00000  Uiso   1.00
C388   C     0.45634   0.73126   0.05100   0.00000  Uiso   1.00
Cu389  Cu    0.50000   0.75000   0.29821   0.00000  Uiso   1.00
Cu390  Cu    0.50000   0.75001   0.20178   0.00000  Uiso   1.00
H391   H     0.46613   0.60987   0.31455   0.00000  Uiso   1.00
H392   H     0.38693   0.82097   0.33579   0.00000  Uiso   1.00
H393   H     0.61676   0.55072   0.22383   0.00000  Uiso   1.00
H394   H     0.38570   0.95313   0.26848   0.00000  Uiso   1.00
H395   H     0.56165   0.80594   0.16103   0.00000  Uiso   1.00
H396   H     0.43964   0.68924   0.34281   0.00000  Uiso   1.00
H397   H     0.43734   0.68806   0.14976   0.00000  Uiso   1.00
H398   H     0.56722   0.80721   0.35203   0.00000  Uiso   1.00
H399   H     0.40594   0.73044   0.49669   0.00000  Uiso   1.00
H400   H     0.50555   0.83365   0.49440   0.00000  Uiso   1.00
H401   H     0.53891   0.88826   0.18654   0.00000  Uiso   1.00
H402   H     0.56710   0.78944   0.03873   0.00000  Uiso   1.00
H403   H     0.46802   0.68472   0.46391   0.00000  Uiso   1.00
H404   H     0.38026   0.86978   0.18492   0.00000  Uiso   1.00
H405   H     0.60103   0.66863   0.33849   0.00000  Uiso   1.00
H406   H     0.40634   0.54570   0.35526   0.00000  Uiso   1.00
H407   H     0.50892   0.53340   0.10886   0.00000  Uiso   1.00
H408   H     0.54689   0.66031   0.11242   0.00000  Uiso   1.00
N409   N     0.50000   0.75001   0.12934   0.00000  Uiso   1.00
N410   N     0.50000   0.74999   0.37065   0.00000  Uiso   1.00
O411   O     0.50000   0.68573   0.29071   0.00000  Uiso   1.00
O412   O     0.62767   0.83330   0.21809   0.00000  Uiso   1.00
O413   O     0.38945   0.84415   0.20559   0.00000  Uiso   1.00
O414   O     0.37060   0.66613   0.28012   0.00000  Uiso   1.00
O415   O     0.35286   0.70963   0.35002   0.00000  Uiso   1.00
O416   O     0.61326   0.66046   0.30746   0.00000  Uiso   1.00
O417   O     0.50751   0.98094   0.35540   0.00000  Uiso   1.00
O418   O     0.50662   0.55594   0.38624   0.00000  Uiso   1.00
O419   O     0.42055   0.51615   0.35981   0.00000  Uiso   1.00
O420   O     0.58034   0.97889   0.14043   0.00000  Uiso   1.00
O421   O     0.50040   0.94041   0.11281   0.00000  Uiso   1.00
O422   O     0.50000   0.81428   0.20928   0.00000  Uiso   1.00
O423   O     0.49726   0.52175   0.13948   0.00000  Uiso   1.00
O424   O     0.60388   0.66085   0.19608   0.00000  Uiso   1.00
O425   O     0.60289   0.59217   0.15051   0.00000  Uiso   1.00
O426   O     0.52734   0.64171   0.13446   0.00000  Uiso   1.00
O427   O     0.46883   0.87250   0.36337   0.00000  Uiso   1.00
O428   O     0.39301   0.91211   0.34190   0.00000  Uiso   1.00
O429   O     0.39862   0.83440   0.30597   0.00000  Uiso   1.00
O430   O     0.58770   0.52883   0.21900   0.00000  Uiso   1.00
O431   O     0.41535   0.97413   0.27505   0.00000  Uiso   1.00
O432   O     0.56864   0.80504   0.12751   0.00000  Uiso   1.00
O433   O     0.50000   0.68573   0.20928   0.00000  Uiso   1.00
O434   O     0.45662   0.67822   0.37277   0.00000  Uiso   1.00
O435   O     0.42259   0.70366   0.12152   0.00000  Uiso   1.00
O436   O     0.54807   0.82001   0.37660   0.00000  Uiso   1.00
O437   O     0.41216   0.71397   0.02719   0.00000  Uiso   1.00
O438   O     0.52669   0.83051   0.46722   0.00000  Uiso   1.00
O439   O     0.50000   0.81427   0.29072   0.00000  Uiso   1.00
O440   O     0.42495   0.75000   0.28132   0.00000  Uiso   1.00
O441   O     0.57505   0.75001   0.21868   0.00000  Uiso   1.00
O442   O     0.42495   0.75000   0.19988   0.00000  Uiso   1.00
O443   O     0.57505   0.75000   0.30011   0.00000  Uiso   1.00
O444   O     0.66161   0.79576   0.15010   0.00000  Uiso   1.00
S445   S     0.33786   0.80935   0.20154   0.00000  Uiso   1.00
S446   S     0.66563   0.69325   0.30140   0.00000  Uiso   1.00
S447   S     0.48189   0.52406   0.34950   0.00000  Uiso   1.00
S448   S     0.52508   0.97329   0.14851   0.00000  Uiso   1.00
S449   S     0.57088   0.62267   0.17557   0.00000  Uiso   1.00
S450   S     0.42994   0.88195   0.32313   0.00000  Uiso   1.00
C451   C     0.83549   0.66509   0.25022   0.00000  Uiso   1.00
C452   C     0.84766   0.78985   0.44625   0.00000  Uiso   1.00
C453   C     0.82920   0.75213   0.02663   0.00000  Uiso   1.00
C454   C     0.82976   0.75262   0.47237   0.00000  Uiso   1.00
C455   C     0.73529   0.75028   0.23897   0.00000  Uiso   1.00
C456   C     0.93151   0.74969   0.26113   0.00000  Uiso   1.00
C457   C     0.68332   0.76095   0.23610   0.00000  Uiso   1.00
C458   C     0.98400   0.73988   0.26454   0.00000  Uiso   1.00
C459   C     0.82114   0.54706   0.29135   0.00000  Uiso   1.00
C460   C     0.85129   0.95219   0.20722   0.00000  Uiso   1.00
C461   C     0.81804   0.59282   0.28767   0.00000  Uiso   1.00
C462   C     0.83165   0.83501   0.24976   0.00000  Uiso   1.00
C463   C     0.85313   0.90637   0.21229   0.00000  Uiso   1.00
C464   C     0.84050   0.61687   0.25133   0.00000  Uiso   1.00
C465   C     0.82836   0.88348   0.24814   0.00000  Uiso   1.00
C466   C     0.87277   0.59499   0.22224   0.00000  Uiso   1.00
C467   C     0.79521   0.90672   0.27509   0.00000  Uiso   1.00
C468   C     0.87812   0.54910   0.22961   0.00000  Uiso   1.00
C469   C     0.79124   0.95250   0.26608   0.00000  Uiso   1.00
C470   C     0.84188   0.52437   0.25400   0.00000  Uiso   1.00
C471   C     0.82930   0.97604   0.24289   0.00000  Uiso   1.00
C472   C     0.86929   0.77252   0.05523   0.00000  Uiso   1.00
C473   C     0.81451   0.71447   0.44584   0.00000  Uiso   1.00
C474   C     0.86857   0.77461   0.10519   0.00000  Uiso   1.00
C475   C     0.81297   0.71462   0.39555   0.00000  Uiso   1.00
C476   C     0.79430   0.72780   0.10160   0.00000  Uiso   1.00
C477   C     0.85402   0.78600   0.39694   0.00000  Uiso   1.00
C478   C     0.78967   0.73126   0.05100   0.00000  Uiso   1.00
Cu479  Cu    0.83333   0.75000   0.29821   0.00000  Uiso   1.00
Cu480  Cu    0.83333   0.75001   0.20178   0.00000  Uiso   1.00
H481   H     0.79946   0.60987   0.31455   0.00000  Uiso   1.00
H482   H     0.72026   0.82097   0.33579   0.00000  Uiso   1.00
H483   H     0.95009   0.55072   0.22383   0.00000  Uiso   1.00
H484   H     0.71903   0.95313   0.26848   0.00000  Uiso   1.00
H485   H     0.89498   0.80594   0.16103   0.00000  Uiso   1.00
H486   H     0.77297   0.68924   0.34281   0.00000  Uiso   1.00
H487   H     0.77067   0.68806   0.14976   0.00000  Uiso   1.00
H488   H     0.90055   0.80721   0.35203   0.00000  Uiso   1.00
H489   H     0.73928   0.73044   0.49669   0.00000  Uiso   1.00
H490   H     0.83889   0.83365   0.49440   0.00000  Uiso   1.00
H491   H     0.87225   0.88826   0.18654   0.00000  Uiso   1.00
H492   H     0.90043   0.78944   0.03873   0.00000  Uiso   1.00
H493   H     0.80135   0.68472   0.46391   0.00000  Uiso   1.00
H494   H     0.71359   0.86978   0.18492   0.00000  Uiso   1.00
H495   H     0.93437   0.66863   0.33849   0.00000  Uiso   1.00
H496   H     0.73967   0.54570   0.35526   0.00000  Uiso   1.00
H497   H     0.84225   0.53340   0.10886   0.00000  Uiso   1.00
H498   H     0.88022   0.66031   0.11242   0.00000  Uiso   1.00
N499   N     0.83333   0.75001   0.12934   0.00000  Uiso   1.00
N500   N     0.83333   0.74999   0.37065   0.00000  Uiso   1.00
O501   O     0.83334   0.68573   0.29071   0.00000  Uiso   1.00
O502   O     0.96100   0.83330   0.21809   0.00000  Uiso   1.00
O503   O     0.72278   0.84415   0.20559   0.00000  Uiso   1.00
O504   O     0.70393   0.66613   0.28012   0.00000  Uiso   1.00
O505   O     0.68619   0.70963   0.35002   0.00000  Uiso   1.00
O506   O     0.94659   0.66046   0.30746   0.00000  Uiso   1.00
O507   O     0.84084   0.98094   0.35540   0.00000  Uiso   1.00
O508   O     0.83995   0.55594   0.38624   0.00000  Uiso   1.00
O509   O     0.75388   0.51615   0.35981   0.00000  Uiso   1.00
O510   O     0.91367   0.97889   0.14043   0.00000  Uiso   1.00
O511   O     0.83373   0.94041   0.11281   0.00000  Uiso   1.00
O512   O     0.83333   0.81428   0.20928   0.00000  Uiso   1.00
O513   O     0.83059   0.52175   0.13948   0.00000  Uiso   1.00
O514   O     0.93721   0.66085   0.19608   0.00000  Uiso   1.00
O515   O     0.93623   0.59217   0.15051   0.00000  Uiso   1.00
O516   O     0.86067   0.64171   0.13446   0.00000  Uiso   1.00
O517   O     0.80216   0.87250   0.36337   0.00000  Uiso   1.00
O518   O     0.72635   0.91211   0.34190   0.00000  Uiso   1.00
O519   O     0.73196   0.83440   0.30597   0.00000  Uiso   1.00
O520   O     0.92103   0.52883   0.21900   0.00000  Uiso   1.00
O521   O     0.74868   0.97413   0.27505   0.00000  Uiso   1.00
O522   O     0.90198   0.80504   0.12751   0.00000  Uiso   1.00
O523   O     0.83334   0.68573   0.20928   0.00000  Uiso   1.00
O524   O     0.78995   0.67822   0.37277   0.00000  Uiso   1.00
O525   O     0.75592   0.70366   0.12152   0.00000  Uiso   1.00
O526   O     0.88141   0.82001   0.37660   0.00000  Uiso   1.00
O527   O     0.74549   0.71397   0.02719   0.00000  Uiso   1.00
O528   O     0.86002   0.83051   0.46722   0.00000  Uiso   1.00
O529   O     0.83333   0.81427   0.29072   0.00000  Uiso   1.00
O530   O     0.75828   0.75000   0.28132   0.00000  Uiso   1.00
O531   O     0.90839   0.75001   0.21868   0.00000  Uiso   1.00
O532   O     0.75828   0.75000   0.19988   0.00000  Uiso   1.00
O533   O     0.90839   0.75000   0.30011   0.00000  Uiso   1.00
O534   O     0.99494   0.79576   0.15010   0.00000  Uiso   1.00
S535   S     0.67120   0.80935   0.20154   0.00000  Uiso   1.00
S536   S     0.99897   0.69325   0.30140   0.00000  Uiso   1.00
S537   S     0.81523   0.52406   0.34950   0.00000  Uiso   1.00
S538   S     0.85841   0.97329   0.14851   0.00000  Uiso   1.00
S539   S     0.90422   0.62267   0.17557   0.00000  Uiso   1.00
S540   S     0.76327   0.88195   0.32313   0.00000  Uiso   1.00
C541   C     0.16882   0.16509   0.75022   0.00000  Uiso   1.00
C542   C     0.18099   0.28985   0.94625   0.00000  Uiso   1.00
C543   C     0.16253   0.25213   0.52663   0.00000  Uiso   1.00
C544   C     0.16309   0.25262   0.97237   0.00000  Uiso   1.00
C545   C     0.06862   0.25028   0.73897   0.00000  Uiso   1.00
C546   C     0.26484   0.24969   0.76113   0.00000  Uiso   1.00
C547   C     0.01665   0.26095   0.73610   0.00000  Uiso   1.00
C548   C     0.31733   0.23988   0.76454   0.00000  Uiso   1.00
C549   C     0.15448   0.04706   0.79135   0.00000  Uiso   1.00
C550   C     0.18462   0.45219   0.70722   0.00000  Uiso   1.00
C551   C     0.15138   0.09282   0.78767   0.00000  Uiso   1.00
C552   C     0.16499   0.33501   0.74976   0.00000  Uiso   1.00
C553   C     0.18646   0.40637   0.71229   0.00000  Uiso   1.00
C554   C     0.17383   0.11687   0.75133   0.00000  Uiso   1.00
C555   C     0.16169   0.38348   0.74814   0.00000  Uiso   1.00
C556   C     0.20610   0.09499   0.72224   0.00000  Uiso   1.00
C557   C     0.12854   0.40672   0.77509   0.00000  Uiso   1.00
C558   C     0.21145   0.04910   0.72961   0.00000  Uiso   1.00
C559   C     0.12458   0.45250   0.76608   0.00000  Uiso   1.00
C560   C     0.17521   0.02437   0.75400   0.00000  Uiso   1.00
C561   C     0.16263   0.47604   0.74289   0.00000  Uiso   1.00
C562   C     0.20262   0.27252   0.55523   0.00000  Uiso   1.00
C563   C     0.14784   0.21447   0.94584   0.00000  Uiso   1.00
C564   C     0.20190   0.27461   0.60519   0.00000  Uiso   1.00
C565   C     0.14631   0.21462   0.89555   0.00000  Uiso   1.00
C566   C     0.12763   0.22780   0.60160   0.00000  Uiso   1.00
C567   C     0.18735   0.28600   0.89694   0.00000  Uiso   1.00
C568   C     0.12301   0.23126   0.55100   0.00000  Uiso   1.00
Cu569  Cu    0.16667   0.25000   0.79821   0.00000  Uiso   1.00
Cu570  Cu    0.16667   0.25001   0.70178   0.00000  Uiso   1.00
H571   H     0.13280   0.10987   0.81455   0.00000  Uiso   1.00
H572   H     0.05359   0.32097   0.83579   0.00000  Uiso   1.00
H573   H     0.28342   0.05072   0.72383   0.00000  Uiso   1.00
H574   H     0.05237   0.45313   0.76848   0.00000  Uiso   1.00
H575   H     0.22831   0.30594   0.66103   0.00000  Uiso   1.00
H576   H     0.10630   0.18924   0.84281   0.00000  Uiso   1.00
H577   H     0.10401   0.18806   0.64976   0.00000  Uiso   1.00
H578   H     0.23389   0.30721   0.85203   0.00000  Uiso   1.00
H579   H     0.07261   0.23044   0.99669   0.00000  Uiso   1.00
H580   H     0.17222   0.33365   0.99440   0.00000  Uiso   1.00
H581   H     0.20558   0.38826   0.68654   0.00000  Uiso   1.00
H582   H     0.23377   0.28944   0.53873   0.00000  Uiso   1.00
H583   H     0.13469   0.18472   0.96391   0.00000  Uiso   1.00
H584   H     0.04693   0.36978   0.68492   0.00000  Uiso   1.00
H585   H     0.26770   0.16863   0.83849   0.00000  Uiso   1.00
H586   H     0.07300   0.04570   0.85526   0.00000  Uiso   1.00
H587   H     0.17559   0.03340   0.60886   0.00000  Uiso   1.00
H588   H     0.21356   0.16031   0.61242   0.00000  Uiso   1.00
N589   N     0.16667   0.25001   0.62934   0.00000  Uiso   1.00
N590   N     0.16667   0.24999   0.87065   0.00000  Uiso   1.00
O591   O     0.16667   0.18573   0.79071   0.00000  Uiso   1.00
O592   O     0.29434   0.33330   0.71809   0.00000  Uiso   1.00
O593   O     0.05612   0.34415   0.70559   0.00000  Uiso   1.00
O594   O     0.03726   0.16613   0.78012   0.00000  Uiso   1.00
O595   O     0.01952   0.20963   0.85002   0.00000  Uiso   1.00
O596   O     0.27992   0.16046   0.80746   0.00000  Uiso   1.00
O597   O     0.17417   0.48094   0.85540   0.00000  Uiso   1.00
O598   O     0.17328   0.05594   0.88624   0.00000  Uiso   1.00
O599   O     0.08722   0.01615   0.85981   0.00000  Uiso   1.00
O600   O     0.24700   0.47889   0.64043   0.00000  Uiso   1.00
O601   O     0.16706   0.44041   0.61281   0.00000  Uiso   1.00
O602   O     0.16666   0.31428   0.70928   0.00000  Uiso   1.00
O603   O     0.16392   0.02175   0.63948   0.00000  Uiso   1.00
O604   O     0.27054   0.16085   0.69608   0.00000  Uiso   1.00
O605   O     0.26956   0.09217   0.65051   0.00000  Uiso   1.00
O606   O     0.19401   0.14171   0.63446   0.00000  Uiso   1.00
O607   O     0.13550   0.37250   0.86337   0.00000  Uiso   1.00
O608   O     0.05968   0.41211   0.84190   0.00000  Uiso   1.00
O609   O     0.06529   0.33440   0.80597   0.00000  Uiso   1.00
O610   O     0.25437   0.02883   0.71900   0.00000  Uiso   1.00
O611   O     0.08202   0.47413   0.77505   0.00000  Uiso   1.00
O612   O     0.23531   0.30504   0.62751   0.00000  Uiso   1.00
O613   O     0.16667   0.18573   0.70928   0.00000  Uiso   1.00
O614   O     0.12328   0.17822   0.87277   0.00000  Uiso   1.00
O615   O     0.08926   0.20366   0.62152   0.00000  Uiso   1.00
O616   O     0.21474   0.32001   0.87660   0.00000  Uiso   1.00
O617   O     0.07882   0.21397   0.52719   0.00000  Uiso   1.00
O618   O     0.19335   0.33051   0.96722   0.00000  Uiso   1.00
O619   O     0.16666   0.31427   0.79072   0.00000  Uiso   1.00
O620   O     0.09161   0.25000   0.78132   0.00000  Uiso   1.00
O621   O     0.24172   0.25001   0.71868   0.00000  Uiso   1.00
O622   O     0.09161   0.25000   0.69988   0.00000  Uiso   1.00
O623   O     0.24172   0.25000   0.80011   0.00000  Uiso   1.00
O624   O     0.32827   0.29576   0.65010   0.00000  Uiso   1.00
S625   S     0.00453   0.30935   0.70154   0.00000  Uiso   1.00
S626   S     0.33230   0.19325   0.80140   0.00000  Uiso   1.00
S627   S     0.14856   0.02406   0.84950   0.00000  Uiso   1.00
S628   S     0.19175   0.47329   0.64851   0.00000  Uiso   1.00
S629   S     0.23755   0.12267   0.67557   0.00000  Uiso   1.00
S630   S     0.09660   0.38195   0.82313   0.00000  Uiso   1.00
C631   C     0.50216   0.16509   0.75022   0.00000  Uiso   1.00
C632   C     0.51433   0.28985   0.94625   0.00000  Uiso   1.00
C633   C     0.49587   0.25213   0.52663   0.00000  Uiso   1.00
C634   C     0.49643   0.25262   0.97237   0.00000  Uiso   1.00
C635   C     0.40196   0.25028   0.73897   0.00000  Uiso   1.00
C636   C     0.59817   0.24969   0.76113   0.00000  Uiso   1.00
C637   C     0.34998   0.26095   0.73610   0.00000  Uiso   1.00
C638   C     0.65067   0.23988   0.76454   0.00000  Uiso   1.00
C639   C     0.48781   0.04706   0.79135   0.00000  Uiso   1.00
C640   C     0.51796   0.45219   0.70722   0.00000  Uiso   1.00
C641   C     0.48471   0.09282   0.78767   0.00000  Uiso   1.00
C642   C     0.49832   0.33501   0.74976   0.00000  Uiso   1.00
C643   C     0.51980   0.40637   0.71229   0.00000  Uiso   1.00
C644   C     0.50716   0.11687   0.75133   0.00000  Uiso   1.00
C645   C     0.49503   0.38348   0.74814   0.00000  Uiso   1.00
C646   C     0.53944   0.09499   0.72224   0.00000  Uiso   1.00
C647   C     0.46187   0.40672   0.77509   0.00000  Uiso   1.00
C648   C     0.54479   0.04910   0.72961   0.00000  Uiso   1.00
C649   C     0.45791   0.45250   0.76608   0.00000  Uiso   1.00
C650   C     0.50854   0.02437   0.75400   0.00000  Uiso   1.00
C651   C     0.49597   0.47604   0.74289   0.00000  Uiso   1.00
C652   C     0.53596   0.27252   0.55523   0.00000  Uiso   1.00
C653   C     0.48118   0.21447   0.94584   0.00000  Uiso   1.00
C654   C     0.53523   0.27461   0.60519   0.00000  Uiso   1.00
C655   C     0.47964   0.21462   0.89555   0.00000  Uiso   1.00
C656   C     0.46096   0.22780   0.60160   0.00000  Uiso   1.00
C657   C     0.52069   0.28600   0.89694   0.00000  Uiso   1.00
C658   C     0.45634   0.23126   0.55100   0.00000  Uiso   1.00
Cu659  Cu    0.50000   0.25000   0.79821   0.00000  Uiso   1.00
Cu660  Cu    0.50000   0.25001   0.70178   0.00000  Uiso   1.00
H661   H     0.46613   0.10987   0.81455   0.00000  Uiso   1.00
H662   H     0.38693   0.32097   0.83579   0.00000  Uiso   1.00
H663   H     0.61676   0.05072   0.72383   0.00000  Uiso   1.00
H664   H     0.38570   0.45313   0.76848   0.00000  Uiso   1.00
H665   H     0.56165   0.30594   0.66103   0.00000  Uiso   1.00
H666   H     0.43964   0.18924   0.84281   0.00000  Uiso   1.00
H667   H     0.43734   0.18806   0.64976   0.00000  Uiso   1.00
H668   H     0.56722   0.30721   0.85203   0.00000  Uiso   1.00
H669   H     0.40594   0.23044   0.99669   0.00000  Uiso   1.00
H670   H     0.50555   0.33365   0.99440   0.00000  Uiso   1.00
H671   H     0.53891   0.38826   0.68654   0.00000  Uiso   1.00
H672   H     0.56710   0.28944   0.53873   0.00000  Uiso   1.00
H673   H     0.46802   0.18472   0.96391   0.00000  Uiso   1.00
H674   H     0.38026   0.36978   0.68492   0.00000  Uiso   1.00
H675   H     0.60103   0.16863   0.83849   0.00000  Uiso   1.00
H676   H     0.40634   0.04570   0.85526   0.00000  Uiso   1.00
H677   H     0.50892   0.03340   0.60886   0.00000  Uiso   1.00
H678   H     0.54689   0.16031   0.61242   0.00000  Uiso   1.00
N679   N     0.50000   0.25001   0.62934   0.00000  Uiso   1.00
N680   N     0.50000   0.24999   0.87065   0.00000  Uiso   1.00
O681   O     0.50000   0.18573   0.79071   0.00000  Uiso   1.00
O682   O     0.62767   0.33330   0.71809   0.00000  Uiso   1.00
O683   O     0.38945   0.34415   0.70559   0.00000  Uiso   1.00
O684   O     0.37060   0.16613   0.78012   0.00000  Uiso   1.00
O685   O     0.35286   0.20963   0.85002   0.00000  Uiso   1.00
O686   O     0.61326   0.16046   0.80746   0.00000  Uiso   1.00
O687   O     0.50751   0.48094   0.85540   0.00000  Uiso   1.00
O688   O     0.50662   0.05594   0.88624   0.00000  Uiso   1.00
O689   O     0.42055   0.01615   0.85981   0.00000  Uiso   1.00
O690   O     0.58034   0.47889   0.64043   0.00000  Uiso   1.00
O691   O     0.50040   0.44041   0.61281   0.00000  Uiso   1.00
O692   O     0.50000   0.31428   0.70928   0.00000  Uiso   1.00
O693   O     0.49726   0.02175   0.63948   0.00000  Uiso   1.00
O694   O     0.60388   0.16085   0.69608   0.00000  Uiso   1.00
O695   O     0.60289   0.09217   0.65051   0.00000  Uiso   1.00
O696   O     0.52734   0.14171   0.63446   0.00000  Uiso   1.00
O697   O     0.46883   0.37250   0.86337   0.00000  Uiso   1.00
O698   O     0.39301   0.41211   0.84190   0.00000  Uiso   1.00
O699   O     0.39862   0.33440   0.80597   0.00000  Uiso   1.00
O700   O     0.58770   0.02883   0.71900   0.00000  Uiso   1.00
O701   O     0.41535   0.47413   0.77505   0.00000  Uiso   1.00
O702   O     0.56864   0.30504   0.62751   0.00000  Uiso   1.00
O703   O     0.50000   0.18573   0.70928   0.00000  Uiso   1.00
O704   O     0.45662   0.17822   0.87277   0.00000  Uiso   1.00
O705   O     0.42259   0.20366   0.62152   0.00000  Uiso   1.00
O706   O     0.54807   0.32001   0.87660   0.00000  Uiso   1.00
O707   O     0.41216   0.21397   0.52719   0.00000  Uiso   1.00
O708   O     0.52669   0.33051   0.96722   0.00000  Uiso   1.00
O709   O     0.50000   0.31427   0.79072   0.00000  Uiso   1.00
O710   O     0.42495   0.25000   0.78132   0.00000  Uiso   1.00
O711   O     0.57505   0.25001   0.71868   0.00000  Uiso   1.00
O712   O     0.42495   0.25000   0.69988   0.00000  Uiso   1.00
O713   O     0.57505   0.25000   0.80011   0.00000  Uiso   1.00
O714   O     0.66161   0.29576   0.65010   0.00000  Uiso   1.00
S715   S     0.33786   0.30935   0.70154   0.00000  Uiso   1.00
S716   S     0.66563   0.19325   0.80140   0.00000  Uiso   1.00
S717   S     0.48189   0.02406   0.84950   0.00000  Uiso   1.00
S718   S     0.52508   0.47329   0.64851   0.00000  Uiso   1.00
S719   S     0.57088   0.12267   0.67557   0.00000  Uiso   1.00
S720   S     0.42994   0.38195   0.82313   0.00000  Uiso   1.00
C721   C     0.83549   0.16509   0.75022   0.00000  Uiso   1.00
C722   C     0.84766   0.28985   0.94625   0.00000  Uiso   1.00
C723   C     0.82920   0.25213   0.52663   0.00000  Uiso   1.00
C724   C     0.82976   0.25262   0.97237   0.00000  Uiso   1.00
C725   C     0.73529   0.25028   0.73897   0.00000  Uiso   1.00
C726   C     0.93151   0.24969   0.76113   0.00000  Uiso   1.00
C727   C     0.68332   0.26095   0.73610   0.00000  Uiso   1.00
C728   C     0.98400   0.23988   0.76454   0.00000  Uiso   1.00
C729   C     0.82114   0.04706   0.79135   0.00000  Uiso   1.00
C730   C     0.85129   0.45219   0.70722   0.00000  Uiso   1.00
C731   C     0.81804   0.09282   0.78767   0.00000  Uiso   1.00
C732   C     0.83165   0.33501   0.74976   0.00000  Uiso   1.00
C733   C     0.85313   0.40637   0.71229   0.00000  Uiso   1.00
C734   C     0.84050   0.11687   0.75133   0.00000  Uiso   1.00
C735   C     0.82836   0.38348   0.74814   0.00000  Uiso   1.00
C736   C     0.87277   0.09499   0.72224   0.00000  Uiso   1.00
C737   C     0.79521   0.40672   0.77509   0.00000  Uiso   1.00
C738   C     0.87812   0.04910   0.72961   0.00000  Uiso   1.00
C739   C     0.79124   0.45250   0.76608   0.00000  Uiso   1.00
C740   C     0.84188   0.02437   0.75400   0.00000  Uiso   1.00
C741   C     0.82930   0.47604   0.74289   0.00000  Uiso   1.00
C742   C     0.86929   0.27252   0.55523   0.00000  Uiso   1.00
C743   C     0.81451   0.21447   0.94584   0.00000  Uiso   1.00
C744   C     0.86857   0.27461   0.60519   0.00000  Uiso   1.00
C745   C     0.81297   0.21462   0.89555   0.00000  Uiso   1.00
C746   C     0.79430   0.22780   0.60160   0.00000  Uiso   1.00
C747   C     0.85402   0.28600   0.89694   0.00000  Uiso   1.00
C748   C     0.78967   0.23126   0.55100   0.00000  Uiso   1.00
Cu749  Cu    0.83333   0.25000   0.79821   0.00000  Uiso   1.00
Cu750  Cu    0.83333   0.25001   0.70178   0.00000  Uiso   1.00
H751   H     0.79946   0.10987   0.81455   0.00000  Uiso   1.00
H752   H     0.72026   0.32097   0.83579   0.00000  Uiso   1.00
H753   H     0.95009   0.05072   0.72383   0.00000  Uiso   1.00
H754   H     0.71903   0.45313   0.76848   0.00000  Uiso   1.00
H755   H     0.89498   0.30594   0.66103   0.00000  Uiso   1.00
H756   H     0.77297   0.18924   0.84281   0.00000  Uiso   1.00
H757   H     0.77067   0.18806   0.64976   0.00000  Uiso   1.00
H758   H     0.90055   0.30721   0.85203   0.00000  Uiso   1.00
H759   H     0.73928   0.23044   0.99669   0.00000  Uiso   1.00
H760   H     0.83889   0.33365   0.99440   0.00000  Uiso   1.00
H761   H     0.87225   0.38826   0.68654   0.00000  Uiso   1.00
H762   H     0.90043   0.28944   0.53873   0.00000  Uiso   1.00
H763   H     0.80135   0.18472   0.96391   0.00000  Uiso   1.00
H764   H     0.71359   0.36978   0.68492   0.00000  Uiso   1.00
H765   H     0.93437   0.16863   0.83849   0.00000  Uiso   1.00
H766   H     0.73967   0.04570   0.85526   0.00000  Uiso   1.00
H767   H     0.84225   0.03340   0.60886   0.00000  Uiso   1.00
H768   H     0.88022   0.16031   0.61242   0.00000  Uiso   1.00
N769   N     0.83333   0.25001   0.62934   0.00000  Uiso   1.00
N770   N     0.83333   0.24999   0.87065   0.00000  Uiso   1.00
O771   O     0.83334   0.18573   0.79071   0.00000  Uiso   1.00
O772   O     0.96100   0.33330   0.71809   0.00000  Uiso   1.00
O773   O     0.72278   0.34415   0.70559   0.00000  Uiso   1.00
O774   O     0.70393   0.16613   0.78012   0.00000  Uiso   1.00
O775   O     0.68619   0.20963   0.85002   0.00000  Uiso   1.00
O776   O     0.94659   0.16046   0.80746   0.00000  Uiso   1.00
O777   O     0.84084   0.48094   0.85540   0.00000  Uiso   1.00
O778   O     0.83995   0.05594   0.88624   0.00000  Uiso   1.00
O779   O     0.75388   0.01615   0.85981   0.00000  Uiso   1.00
O780   O     0.91367   0.47889   0.64043   0.00000  Uiso   1.00
O781   O     0.83373   0.44041   0.61281   0.00000  Uiso   1.00
O782   O     0.83333   0.31428   0.70928   0.00000  Uiso   1.00
O783   O     0.83059   0.02175   0.63948   0.00000  Uiso   1.00
O784   O     0.93721   0.16085   0.69608   0.00000  Uiso   1.00
O785   O     0.93623   0.09217   0.65051   0.00000  Uiso   1.00
O786   O     0.86067   0.14171   0.63446   0.00000  Uiso   1.00
O787   O     0.80216   0.37250   0.86337   0.00000  Uiso   1.00
O788   O     0.72635   0.41211   0.84190   0.00000  Uiso   1.00
O789   O     0.73196   0.33440   0.80597   0.00000  Uiso   1.00
O790   O     0.92103   0.02883   0.71900   0.00000  Uiso   1.00
O791   O     0.74868   0.47413   0.77505   0.00000  Uiso   1.00
O792   O     0.90198   0.30504   0.62751   0.00000  Uiso   1.00
O793   O     0.83334   0.18573   0.70928   0.00000  Uiso   1.00
O794   O     0.78995   0.17822   0.87277   0.00000  Uiso   1.00
O795   O     0.75592   0.20366   0.62152   0.00000  Uiso   1.00
O796   O     0.88141   0.32001   0.87660   0.00000  Uiso   1.00
O797   O     0.74549   0.21397   0.52719   0.00000  Uiso   1.00
O798   O     0.86002   0.33051   0.96722   0.00000  Uiso   1.00
O799   O     0.83333   0.31427   0.79072   0.00000  Uiso   1.00
O800   O     0.75828   0.25000   0.78132   0.00000  Uiso   1.00
O801   O     0.90839   0.25001   0.71868   0.00000  Uiso   1.00
O802   O     0.75828   0.25000   0.69988   0.00000  Uiso   1.00
O803   O     0.90839   0.25000   0.80011   0.00000  Uiso   1.00
O804   O     0.99494   0.29576   0.65010   0.00000  Uiso   1.00
S805   S     0.67120   0.30935   0.70154   0.00000  Uiso   1.00
S806   S     0.99897   0.19325   0.80140   0.00000  Uiso   1.00
S807   S     0.81523   0.02406   0.84950   0.00000  Uiso   1.00
S808   S     0.85841   0.47329   0.64851   0.00000  Uiso   1.00
S809   S     0.90422   0.12267   0.67557   0.00000  Uiso   1.00
S810   S     0.76327   0.38195   0.82313   0.00000  Uiso   1.00
C811   C     0.16882   0.66509   0.75022   0.00000  Uiso   1.00
C812   C     0.18099   0.78985   0.94625   0.00000  Uiso   1.00
C813   C     0.16253   0.75213   0.52663   0.00000  Uiso   1.00
C814   C     0.16309   0.75262   0.97237   0.00000  Uiso   1.00
C815   C     0.06862   0.75028   0.73897   0.00000  Uiso   1.00
C816   C     0.26484   0.74969   0.76113   0.00000  Uiso   1.00
C817   C     0.01665   0.76095   0.73610   0.00000  Uiso   1.00
C818   C     0.31733   0.73988   0.76454   0.00000  Uiso   1.00
C819   C     0.15448   0.54706   0.79135   0.00000  Uiso   1.00
C820   C     0.18462   0.95219   0.70722   0.00000  Uiso   1.00
C821   C     0.15138   0.59282   0.78767   0.00000  Uiso   1.00
C822   C     0.16499   0.83501   0.74976   0.00000  Uiso   1.00
C823   C     0.18646   0.90637   0.71229   0.00000  Uiso   1.00
C824   C     0.17383   0.61687   0.75133   0.00000  Uiso   1.00
C825   C     0.16169   0.88348   0.74814   0.00000  Uiso   1.00
C826   C     0.20610   0.59499   0.72224   0.00000  Uiso   1.00
C827   C     0.12854   0.90672   0.77509   0.00000  Uiso   1.00
C828   C     0.21145   0.54910   0.72961   0.00000  Uiso   1.00
C829   C     0.12458   0.95250   0.76608   0.00000  Uiso   1.00
C830   C     0.17521   0.52437   0.75400   0.00000  Uiso   1.00
C831   C     0.16263   0.97604   0.74289   0.00000  Uiso   1.00
C832   C     0.20262   0.77252   0.55523   0.00000  Uiso   1.00
C833   C     0.14784   0.71447   0.94584   0.00000  Uiso   1.00
C834   C     0.20190   0.77461   0.60519   0.00000  Uiso   1.00
C835   C     0.14631   0.71462   0.89555   0.00000  Uiso   1.00
C836   C     0.12763   0.72780   0.60160   0.00000  Uiso   1.00
C837   C     0.18735   0.78600   0.89694   0.00000  Uiso   1.00
C838   C     0.12301   0.73126   0.55100   0.00000  Uiso   1.00
Cu839  Cu    0.16667   0.75000   0.79821   0.00000  Uiso   1.00
Cu840  Cu    0.16667   0.75001   0.70178   0.00000  Uiso   1.00
H841   H     0.13280   0.60987   0.81455   0.00000  Uiso   1.00
H842   H     0.05359   0.82097   0.83579   0.00000  Uiso   1.00
H843   H     0.28342   0.55072   0.72383   0.00000  Uiso   1.00
H844   H     0.05237   0.95313   0.76848   0.00000  Uiso   1.00
H845   H     0.22831   0.80594   0.66103   0.00000  Uiso   1.00
H846   H     0.10630   0.68924   0.84281   0.00000  Uiso   1.00
H847   H     0.10401   0.68806   0.64976   0.00000  Uiso   1.00
H848   H     0.23389   0.80721   0.85203   0.00000  Uiso   1.00
H849   H     0.07261   0.73044   0.99669   0.00000  Uiso   1.00
H850   H     0.17222   0.83365   0.99440   0.00000  Uiso   1.00
H851   H     0.20558   0.88826   0.68654   0.00000  Uiso   1.00
H852   H     0.23377   0.78944   0.53873   0.00000  Uiso   1.00
H853   H     0.13469   0.68472   0.96391   0.00000  Uiso   1.00
H854   H     0.04693   0.86978   0.68492   0.00000  Uiso   1.00
H855   H     0.26770   0.66863   0.83849   0.00000  Uiso   1.00
H856   H     0.07300   0.54570   0.85526   0.00000  Uiso   1.00
H857   H     0.17559   0.53340   0.60886   0.00000  Uiso   1.00
H858   H     0.21356   0.66031   0.61242   0.00000  Uiso   1.00
N859   N     0.16667   0.75001   0.62934   0.00000  Uiso   1.00
N860   N     0.16667   0.74999   0.87065   0.00000  Uiso   1.00
O861   O     0.16667   0.68573   0.79071   0.00000  Uiso   1.00
O862   O     0.29434   0.83330   0.71809   0.00000  Uiso   1.00
O863   O     0.05612   0.84415   0.70559   0.00000  Uiso   1.00
O864   O     0.03726   0.66613   0.78012   0.00000  Uiso   1.00
O865   O     0.01952   0.70963   0.85002   0.00000  Uiso   1.00
O866   O     0.27992   0.66046   0.80746   0.00000  Uiso   1.00
O867   O     0.17417   0.98094   0.85540   0.00000  Uiso   1.00
O868   O     0.17328   0.55594   0.88624   0.00000  Uiso   1.00
O869   O     0.08722   0.51615   0.85981   0.00000  Uiso   1.00
O870   O     0.24700   0.97889   0.64043   0.00000  Uiso   1.00
O871   O     0.16706   0.94041   0.61281   0.00000  Uiso   1.00
O872   O     0.16666   0.81428   0.70928   0.00000  Uiso   1.00
O873   O     0.16392   0.52175   0.63948   0.00000  Uiso   1.00
O874   O     0.27054   0.66085   0.69608   0.00000  Uiso   1.00
O875   O     0.26956   0.59217   0.65051   0.00000  Uiso   1.00
O876   O     0.19401   0.64171   0.63446   0.00000  Uiso   1.00
O877   O     0.13550   0.87250   0.86337   0.00000  Uiso   1.00
O878   O     0.05968   0.91211   0.84190   0.00000  Uiso   1.00
O879   O     0.06529   0.83440   0.80597   0.00000  Uiso   1.00
O880   O     0.25437   0.52883   0.71900   0.00000  Uiso   1.00
O881   O     0.08202   0.97413   0.77505   0.00000  Uiso   1.00
O882   O     0.23531   0.80504   0.62751   0.00000  Uiso   1.00
O883   O     0.16667   0.68573   0.70928   0.00000  Uiso   1.00
O884   O     0.12328   0.67822   0.87277   0.00000  Uiso   1.00
O885   O     0.08926   0.70366   0.62152   0.00000  Uiso   1.00
O886   O     0.21474   0.82001   0.87660   0.00000  Uiso   1.00
O887   O     0.07882   0.71397   0.52719   0.00000  Uiso   1.00
O888   O     0.19335   0.83051   0.96722   0.00000  Uiso   1.00
O889   O     0.16666   0.81427   0.79072   0.00000  Uiso   1.00
O890   O     0.09161   0.75000   0.78132   0.00000  Uiso   1.00
O891   O     0.24172   0.75001   0.71868   0.00000  Uiso   1.00
O892   O     0.09161   0.75000   0.69988   0.00000  Uiso   1.00
O893   O     0.24172   0.75000   0.80011   0.00000  Uiso   1.00
O894   O     0.32827   0.79576   0.65010   0.00000  Uiso   1.00
S895   S     0.00453   0.80935   0.70154   0.00000  Uiso   1.00
S896   S     0.33230   0.69325   0.80140   0.00000  Uiso   1.00
S897   S     0.14856   0.52406   0.84950   0.00000  Uiso   1.00
S898   S     0.19175   0.97329   0.64851   0.00000  Uiso   1.00
S899   S     0.23755   0.62267   0.67557   0.00000  Uiso   1.00
S900   S     0.09660   0.88195   0.82313   0.00000  Uiso   1.00
C901   C     0.50216   0.66509   0.75022   0.00000  Uiso   1.00
C902   C     0.51433   0.78985   0.94625   0.00000  Uiso   1.00
C903   C     0.49587   0.75213   0.52663   0.00000  Uiso   1.00
C904   C     0.49643   0.75262   0.97237   0.00000  Uiso   1.00
C905   C     0.40196   0.75028   0.73897   0.00000  Uiso   1.00
C906   C     0.59817   0.74969   0.76113   0.00000  Uiso   1.00
C907   C     0.34998   0.76095   0.73610   0.00000  Uiso   1.00
C908   C     0.65067   0.73988   0.76454   0.00000  Uiso   1.00
C909   C     0.48781   0.54706   0.79135   0.00000  Uiso   1.00
C910   C     0.51796   0.95219   0.70722   0.00000  Uiso   1.00
C911   C     0.48471   0.59282   0.78767   0.00000  Uiso   1.00
C912   C     0.49832   0.83501   0.74976   0.00000  Uiso   1.00
C913   C     0.51980   0.90637   0.71229   0.00000  Uiso   1.00
C914   C     0.50716   0.61687   0.75133   0.00000  Uiso   1.00
C915   C     0.49503   0.88348   0.74814   0.00000  Uiso   1.00
C916   C     0.53944   0.59499   0.72224   0.00000  Uiso   1.00
C917   C     0.46187   0.90672   0.77509   0.00000  Uiso   1.00
C918   C     0.54479   0.54910   0.72961   0.00000  Uiso   1.00
C919   C     0.45791   0.95250   0.76608   0.00000  Uiso   1.00
C920   C     0.50854   0.52437   0.75400   0.00000  Uiso   1.00
C921   C     0.49597   0.97604   0.74289   0.00000  Uiso   1.00
C922   C     0.53596   0.77252   0.55523   0.00000  Uiso   1.00
C923   C     0.48118   0.71447   0.94584   0.00000  Uiso   1.00
C924   C     0.53523   0.77461   0.60519   0.00000  Uiso   1.00
C925   C     0.47964   0.71462   0.89555   0.00000  Uiso   1.00
C926   C     0.46096   0.72780   0.60160   0.00000  Uiso   1.00
C927   C     0.52069   0.78600   0.89694   0.00000  Uiso   1.00
C928   C     0.45634   0.73126   0.55100   0.00000  Uiso   1.00
Cu929  Cu    0.50000   0.75000   0.79821   0.00000  Uiso   1.00
Cu930  Cu    0.50000   0.75001   0.70178   0.00000  Uiso   1.00
H931   H     0.46613   0.60987   0.81455   0.00000  Uiso   1.00
H932   H     0.38693   0.82097   0.83579   0.00000  Uiso   1.00
H933   H     0.61676   0.55072   0.72383   0.00000  Uiso   1.00
H934   H     0.38570   0.95313   0.76848   0.00000  Uiso   1.00
H935   H     0.56165   0.80594   0.66103   0.00000  Uiso   1.00
H936   H     0.43964   0.68924   0.84281   0.00000  Uiso   1.00
H937   H     0.43734   0.68806   0.64976   0.00000  Uiso   1.00
H938   H     0.56722   0.80721   0.85203   0.00000  Uiso   1.00
H939   H     0.40594   0.73044   0.99669   0.00000  Uiso   1.00
H940   H     0.50555   0.83365   0.99440   0.00000  Uiso   1.00
H941   H     0.53891   0.88826   0.68654   0.00000  Uiso   1.00
H942   H     0.56710   0.78944   0.53873   0.00000  Uiso   1.00
H943   H     0.46802   0.68472   0.96391   0.00000  Uiso   1.00
H944   H     0.38026   0.86978   0.68492   0.00000  Uiso   1.00
H945   H     0.60103   0.66863   0.83849   0.00000  Uiso   1.00
H946   H     0.40634   0.54570   0.85526   0.00000  Uiso   1.00
H947   H     0.50892   0.53340   0.60886   0.00000  Uiso   1.00
H948   H     0.54689   0.66031   0.61242   0.00000  Uiso   1.00
N949   N     0.50000   0.75001   0.62934   0.00000  Uiso   1.00
N950   N     0.50000   0.74999   0.87065   0.00000  Uiso   1.00
O951   O     0.50000   0.68573   0.79071   0.00000  Uiso   1.00
O952   O     0.62767   0.83330   0.71809   0.00000  Uiso   1.00
O953   O     0.38945   0.84415   0.70559   0.00000  Uiso   1.00
O954   O     0.37060   0.66613   0.78012   0.00000  Uiso   1.00
O955   O     0.35286   0.70963   0.85002   0.00000  Uiso   1.00
O956   O     0.61326   0.66046   0.80746   0.00000  Uiso   1.00
O957   O     0.50751   0.98094   0.85540   0.00000  Uiso   1.00
O958   O     0.50662   0.55594   0.88624   0.00000  Uiso   1.00
O959   O     0.42055   0.51615   0.85981   0.00000  Uiso   1.00
O960   O     0.58034   0.97889   0.64043   0.00000  Uiso   1.00
O961   O     0.50040   0.94041   0.61281   0.00000  Uiso   1.00
O962   O     0.50000   0.81428   0.70928   0.00000  Uiso   1.00
O963   O     0.49726   0.52175   0.63948   0.00000  Uiso   1.00
O964   O     0.60388   0.66085   0.69608   0.00000  Uiso   1.00
O965   O     0.60289   0.59217   0.65051   0.00000  Uiso   1.00
O966   O     0.52734   0.64171   0.63446   0.00000  Uiso   1.00
O967   O     0.46883   0.87250   0.86337   0.00000  Uiso   1.00
O968   O     0.39301   0.91211   0.84190   0.00000  Uiso   1.00
O969   O     0.39862   0.83440   0.80597   0.00000  Uiso   1.00
O970   O     0.58770   0.52883   0.71900   0.00000  Uiso   1.00
O971   O     0.41535   0.97413   0.77505   0.00000  Uiso   1.00
O972   O     0.56864   0.80504   0.62751   0.00000  Uiso   1.00
O973   O     0.50000   0.68573   0.70928   0.00000  Uiso   1.00
O974   O     0.45662   0.67822   0.87277   0.00000  Uiso   1.00
O975   O     0.42259   0.70366   0.62152   0.00000  Uiso   1.00
O976   O     0.54807   0.82001   0.87660   0.00000  Uiso   1.00
O977   O     0.41216   0.71397   0.52719   0.00000  Uiso   1.00
O978   O     0.52669   0.83051   0.96722   0.00000  Uiso   1.00
O979   O     0.50000   0.81427   0.79072   0.00000  Uiso   1.00
O980   O     0.42495   0.75000   0.78132   0.00000  Uiso   1.00
O981   O     0.57505   0.75001   0.71868   0.00000  Uiso   1.00
O982   O     0.42495   0.75000   0.69988   0.00000  Uiso   1.00
O983   O     0.57505   0.75000   0.80011   0.00000  Uiso   1.00
O984   O     0.66161   0.79576   0.65010   0.00000  Uiso   1.00
S985   S     0.33786   0.80935   0.70154   0.00000  Uiso   1.00
S986   S     0.66563   0.69325   0.80140   0.00000  Uiso   1.00
S987   S     0.48189   0.52406   0.84950   0.00000  Uiso   1.00
S988   S     0.52508   0.97329   0.64851   0.00000  Uiso   1.00
S989   S     0.57088   0.62267   0.67557   0.00000  Uiso   1.00
S990   S     0.42994   0.88195   0.82313   0.00000  Uiso   1.00
C991   C     0.83549   0.66509   0.75022   0.00000  Uiso   1.00
C992   C     0.84766   0.78985   0.94625   0.00000  Uiso   1.00
C993   C     0.82920   0.75213   0.52663   0.00000  Uiso   1.00
C994   C     0.82976   0.75262   0.97237   0.00000  Uiso   1.00
C995   C     0.73529   0.75028   0.73897   0.00000  Uiso   1.00
C996   C     0.93151   0.74969   0.76113   0.00000  Uiso   1.00
C997   C     0.68332   0.76095   0.73610   0.00000  Uiso   1.00
C998   C     0.98400   0.73988   0.76454   0.00000  Uiso   1.00
C999   C     0.82114   0.54706   0.79135   0.00000  Uiso   1.00
C1000  C     0.85129   0.95219   0.70722   0.00000  Uiso   1.00
C1001  C     0.81804   0.59282   0.78767   0.00000  Uiso   1.00
C1002  C     0.83165   0.83501   0.74976   0.00000  Uiso   1.00
C1003  C     0.85313   0.90637   0.71229   0.00000  Uiso   1.00
C1004  C     0.84050   0.61687   0.75133   0.00000  Uiso   1.00
C1005  C     0.82836   0.88348   0.74814   0.00000  Uiso   1.00
C1006  C     0.87277   0.59499   0.72224   0.00000  Uiso   1.00
C1007  C     0.79521   0.90672   0.77509   0.00000  Uiso   1.00
C1008  C     0.87812   0.54910   0.72961   0.00000  Uiso   1.00
C1009  C     0.79124   0.95250   0.76608   0.00000  Uiso   1.00
C1010  C     0.84188   0.52437   0.75400   0.00000  Uiso   1.00
C1011  C     0.82930   0.97604   0.74289   0.00000  Uiso   1.00
C1012  C     0.86929   0.77252   0.55523   0.00000  Uiso   1.00
C1013  C     0.81451   0.71447   0.94584   0.00000  Uiso   1.00
C1014  C     0.86857   0.77461   0.60519   0.00000  Uiso   1.00
C1015  C     0.81297   0.71462   0.89555   0.00000  Uiso   1.00
C1016  C     0.79430   0.72780   0.60160   0.00000  Uiso   1.00
C1017  C     0.85402   0.78600   0.89694   0.00000  Uiso   1.00
C1018  C     0.78967   0.73126   0.55100   0.00000  Uiso   1.00
Cu1019 Cu    0.83333   0.75000   0.79821   0.00000  Uiso   1.00
Cu1020 Cu    0.83333   0.75001   0.70178   0.00000  Uiso   1.00
H1021  H     0.79946   0.60987   0.81455   0.00000  Uiso   1.00
H1022  H     0.72026   0.82097   0.83579   0.00000  Uiso   1.00
H1023  H     0.95009   0.55072   0.72383   0.00000  Uiso   1.00
H1024  H     0.71903   0.95313   0.76848   0.00000  Uiso   1.00
H1025  H     0.89498   0.80594   0.66103   0.00000  Uiso   1.00
H1026  H     0.77297   0.68924   0.84281   0.00000  Uiso   1.00
H1027  H     0.77067   0.68806   0.64976   0.00000  Uiso   1.00
H1028  H     0.90055   0.80721   0.85203   0.00000  Uiso   1.00
H1029  H     0.73928   0.73044   0.99669   0.00000  Uiso   1.00
H1030  H     0.83889   0.83365   0.99440   0.00000  Uiso   1.00
H1031  H     0.87225   0.88826   0.68654   0.00000  Uiso   1.00
H1032  H     0.90043   0.78944   0.53873   0.00000  Uiso   1.00
H1033  H     0.80135   0.68472   0.96391   0.00000  Uiso   1.00
H1034  H     0.71359   0.86978   0.68492   0.00000  Uiso   1.00
H1035  H     0.93437   0.66863   0.83849   0.00000  Uiso   1.00
H1036  H     0.73967   0.54570   0.85526   0.00000  Uiso   1.00
H1037  H     0.84225   0.53340   0.60886   0.00000  Uiso   1.00
H1038  H     0.88022   0.66031   0.61242   0.00000  Uiso   1.00
N1039  N     0.83333   0.75001   0.62934   0.00000  Uiso   1.00
N1040  N     0.83333   0.74999   0.87065   0.00000  Uiso   1.00
O1041  O     0.83334   0.68573   0.79071   0.00000  Uiso   1.00
O1042  O     0.96100   0.83330   0.71809   0.00000  Uiso   1.00
O1043  O     0.72278   0.84415   0.70559   0.00000  Uiso   1.00
O1044  O     0.70393   0.66613   0.78012   0.00000  Uiso   1.00
O1045  O     0.68619   0.70963   0.85002   0.00000  Uiso   1.00
O1046  O     0.94659   0.66046   0.80746   0.00000  Uiso   1.00
O1047  O     0.84084   0.98094   0.85540   0.00000  Uiso   1.00
O1048  O     0.83995   0.55594   0.88624   0.00000  Uiso   1.00
O1049  O     0.75388   0.51615   0.85981   0.00000  Uiso   1.00
O1050  O     0.91367   0.97889   0.64043   0.00000  Uiso   1.00
O1051  O     0.83373   0.94041   0.61281   0.00000  Uiso   1.00
O1052  O     0.83333   0.81428   0.70928   0.00000  Uiso   1.00
O1053  O     0.83059   0.52175   0.63948   0.00000  Uiso   1.00
O1054  O     0.93721   0.66085   0.69608   0.00000  Uiso   1.00
O1055  O     0.93623   0.59217   0.65051   0.00000  Uiso   1.00
O1056  O     0.86067   0.64171   0.63446   0.00000  Uiso   1.00
O1057  O     0.80216   0.87250   0.86337   0.00000  Uiso   1.00
O1058  O     0.72635   0.91211   0.84190   0.00000  Uiso   1.00
O1059  O     0.73196   0.83440   0.80597   0.00000  Uiso   1.00
O1060  O     0.92103   0.52883   0.71900   0.00000  Uiso   1.00
O1061  O     0.74868   0.97413   0.77505   0.00000  Uiso   1.00
O1062  O     0.90198   0.80504   0.62751   0.00000  Uiso   1.00
O1063  O     0.83334   0.68573   0.70928   0.00000  Uiso   1.00
O1064  O     0.78995   0.67822   0.87277   0.00000  Uiso   1.00
O1065  O     0.75592   0.70366   0.62152   0.00000  Uiso   1.00
O1066  O     0.88141   0.82001   0.87660   0.00000  Uiso   1.00
O1067  O     0.74549   0.71397   0.52719   0.00000  Uiso   1.00
O1068  O     0.86002   0.83051   0.96722   0.00000  Uiso   1.00
O1069  O     0.83333   0.81427   0.79072   0.00000  Uiso   1.00
O1070  O     0.75828   0.75000   0.78132   0.00000  Uiso   1.00
O1071  O     0.90839   0.75001   0.71868   0.00000  Uiso   1.00
O1072  O     0.75828   0.75000   0.69988   0.00000  Uiso   1.00
O1073  O     0.90839   0.75000   0.80011   0.00000  Uiso   1.00
O1074  O     0.99494   0.79576   0.65010   0.00000  Uiso   1.00
S1075  S     0.67120   0.80935   0.70154   0.00000  Uiso   1.00
S1076  S     0.99897   0.69325   0.80140   0.00000  Uiso   1.00
S1077  S     0.81523   0.52406   0.84950   0.00000  Uiso   1.00
S1078  S     0.85841   0.97329   0.64851   0.00000  Uiso   1.00
S1079  S     0.90422   0.62267   0.67557   0.00000  Uiso   1.00
S1080  S     0.76327   0.88195   0.82313   0.00000  Uiso   1.00
loop_
_geom_bond_atom_site_label_1
_geom_bond_atom_site_label_2
_geom_bond_distance
_geom_bond_site_symmetry_2
_ccdc_geom_bond_type
C1     O51     1.307   .     A
C1     O73     1.298   .     A
C1     C14     1.470   .     S
C2     C27     1.412   .     A
C2     C4      1.418   .     A
C2     O78     1.380   .     S
C3     C28     1.416   .     A
C3     C22     1.398   .     A
C3     C544    1.521   1_554 S
C4     C23     1.401   .     A
C4     C543    1.521   .     S
C5     O80     1.288   .     A
C5     C7      1.429   .     S
C5     O82     1.297   .     A
C6     O81     1.292   .     A
C6     C8      1.435   .     S
C6     O83     1.296   .     A
C7     S85     1.774   .     S
C7     C188    1.355   1_455 S
C8     S86     1.780   .     S
C8     C97     1.355   .     S
C9     C20     1.421   .     A
C9     C11     1.392   .     A
C9     S87     1.779   .     S
C10    S88     1.778   .     S
C10    C21     1.419   .     A
C10    C13     1.394   .     A
C11    C14     1.399   .     A
C11    H31     1.083   .     S
C12    O79     1.300   .     A
C12    O62     1.306   .     A
C12    C15     1.472   .     S
C13    H41     1.084   .     S
C13    C15     1.402   .     A
C14    C16     1.422   .     A
C15    C17     1.423   .     A
C16    S89     1.786   .     S
C16    C18     1.413   .     A
C17    S90     1.786   .     S
C17    C19     1.412   .     A
C18    O70     1.377   .     S
C18    C20     1.405   .     A
C19    O71     1.377   .     S
C19    C21     1.404   .     A
C20    C291    1.511   1_545 S
C21    C290    1.511   .     S
C22    C24     1.403   .     A
C22    H42     1.083   .     S
C23    H43     1.083   .     S
C23    C25     1.406   .     A
C24    O72     1.363   .     S
C24    N49     1.381   .     A
C25    O74     1.368   .     S
C25    N50     1.381   .     A
C26    N49     1.390   .     A
C26    O75     1.374   .     S
C26    C28     1.416   .     A
C27    N50     1.384   .     A
C27    O76     1.374   .     S
C28    O77     1.381   .     S
Cu29   O83     1.989   .     S
Cu29   N50     2.029   .     S
Cu29   Cu30    2.700   .     S
Cu29   O79     1.952   .     S
Cu29   O51     1.956   .     S
Cu29   O80     2.009   .     S
Cu30   O73     1.952   .     S
Cu30   O82     1.989   .     S
Cu30   N49     2.029   .     S
Cu30   O62     1.956   .     S
Cu30   O81     2.009   .     S
H32    O69     0.991   .     S
H33    O70     0.991   .     S
H34    O71     0.991   .     S
H35    O72     0.973   .     S
H36    O74     0.982   .     S
H37    O75     0.981   .     S
H38    O76     0.983   .     S
H39    O617    0.990   .     S
H40    O78     0.990   .     S
H44    O53     0.991   .     S
H45    O56     0.991   .     S
H46    O59     0.991   .     S
H47    O63     0.990   .     S
H48    O66     0.991   .     S
O52    S175    1.503   .     S
O53    S85     1.679   .     S
O54    S266    1.503   1_455 S
O55    S266    1.503   1_455 S
O56    S86     1.684   .     S
O57    S357    1.503   .     S
O58    S87     1.504   .     D
O59    S87     1.682   .     S
O60    S88     1.503   .     D
O61    S88     1.504   .     D
O63    S358    1.682   1_545 S
O64    S89     1.501   .     D
O65    S89     1.503   .     D
O66    S89     1.682   .     S
O67    S90     1.500   .     D
O68    S90     1.503   .     D
O69    S90     1.676   .     S
O77    H579    0.990   1_554 S
O84    S175    1.500   .     S
S85    O232    1.503   1_455 S
S85    O264    1.500   1_455 S
S86    O144    1.503   .     S
S86    O145    1.503   .     S
S87    O327    1.503   1_545 S
S88    O333    1.682   .     S
C91    O141    1.307   .     A
C91    O163    1.298   .     A
C91    C104    1.470   .     S
C92    C117    1.412   .     A
C92    C94     1.418   .     A
C92    O168    1.380   .     S
C93    C118    1.416   .     A
C93    C112    1.398   .     A
C93    C634    1.521   1_554 S
C94    C113    1.401   .     A
C94    C633    1.521   .     S
C95    O170    1.288   .     A
C95    C97     1.429   .     S
C95    O172    1.297   .     A
C96    O171    1.292   .     A
C96    C98     1.435   .     S
C96    O173    1.296   .     A
C97    S175    1.774   .     S
C98    S176    1.780   .     S
C98    C187    1.355   .     S
C99    C110    1.421   .     A
C99    C101    1.392   .     A
C99    S177    1.779   .     S
C100   S178    1.778   .     S
C100   C111    1.419   .     A
C100   C103    1.394   .     A
C101   C104    1.399   .     A
C101   H121    1.083   .     S
C102   O169    1.300   .     A
C102   O152    1.306   .     A
C102   C105    1.472   .     S
C103   H131    1.084   .     S
C103   C105    1.402   .     A
C104   C106    1.422   .     A
C105   C107    1.423   .     A
C106   S179    1.786   .     S
C106   C108    1.413   .     A
C107   S180    1.786   .     S
C107   C109    1.412   .     A
C108   O160    1.377   .     S
C108   C110    1.405   .     A
C109   O161    1.377   .     S
C109   C111    1.404   .     A
C110   C381    1.511   1_545 S
C111   C380    1.511   .     S
C112   C114    1.403   .     A
C112   H132    1.083   .     S
C113   H133    1.083   .     S
C113   C115    1.406   .     A
C114   O162    1.363   .     S
C114   N139    1.381   .     A
C115   O164    1.368   .     S
C115   N140    1.381   .     A
C116   N139    1.390   .     A
C116   O165    1.374   .     S
C116   C118    1.416   .     A
C117   N140    1.384   .     A
C117   O166    1.374   .     S
C118   O167    1.381   .     S
Cu119  O173    1.989   .     S
Cu119  N140    2.029   .     S
Cu119  Cu120   2.700   .     S
Cu119  O169    1.952   .     S
Cu119  O141    1.956   .     S
Cu119  O170    2.009   .     S
Cu120  O163    1.952   .     S
Cu120  O172    1.989   .     S
Cu120  N139    2.029   .     S
Cu120  O152    1.956   .     S
Cu120  O171    2.009   .     S
H122   O159    0.991   .     S
H123   O160    0.991   .     S
H124   O161    0.991   .     S
H125   O162    0.973   .     S
H126   O164    0.982   .     S
H127   O165    0.981   .     S
H128   O166    0.983   .     S
H129   O707    0.990   .     S
H130   O168    0.990   .     S
H134   O143    0.991   .     S
H135   O146    0.991   .     S
H136   O149    0.991   .     S
H137   O153    0.990   .     S
H138   O156    0.991   .     S
O142   S265    1.503   .     S
O143   S175    1.679   .     S
O146   S176    1.684   .     S
O147   S447    1.503   .     S
O148   S177    1.504   .     D
O149   S177    1.682   .     S
O150   S178    1.503   .     D
O151   S178    1.504   .     D
O153   S448    1.682   1_545 S
O154   S179    1.501   .     D
O155   S179    1.503   .     D
O156   S179    1.682   .     S
O157   S180    1.500   .     D
O158   S180    1.503   .     D
O159   S180    1.676   .     S
O167   H669    0.990   1_554 S
O174   S265    1.500   .     S
S176   O234    1.503   .     S
S176   O235    1.503   .     S
S177   O417    1.503   1_545 S
S178   O423    1.682   .     S
C181   O231    1.307   .     A
C181   O253    1.298   .     A
C181   C194    1.470   .     S
C182   C207    1.412   .     A
C182   C184    1.418   .     A
C182   O258    1.380   .     S
C183   C208    1.416   .     A
C183   C202    1.398   .     A
C183   C724    1.521   1_554 S
C184   C203    1.401   .     A
C184   C723    1.521   .     S
C185   O260    1.288   .     A
C185   C187    1.429   .     S
C185   O262    1.297   .     A
C186   O261    1.292   .     A
C186   C188    1.435   .     S
C186   O263    1.296   .     A
C187   S265    1.774   .     S
C188   S266    1.780   .     S
C188   C7      1.355   1_655 S
C189   C200    1.421   .     A
C189   C191    1.392   .     A
C189   S267    1.779   .     S
C190   S268    1.778   .     S
C190   C201    1.419   .     A
C190   C193    1.394   .     A
C191   C194    1.399   .     A
C191   H211    1.083   .     S
C192   O259    1.300   .     A
C192   O242    1.306   .     A
C192   C195    1.472   .     S
C193   H221    1.084   .     S
C193   C195    1.402   .     A
C194   C196    1.422   .     A
C195   C197    1.423   .     A
C196   S269    1.786   .     S
C196   C198    1.413   .     A
C197   S270    1.786   .     S
C197   C199    1.412   .     A
C198   O250    1.377   .     S
C198   C200    1.405   .     A
C199   O251    1.377   .     S
C199   C201    1.404   .     A
C200   C471    1.511   1_545 S
C201   C470    1.511   .     S
C202   C204    1.403   .     A
C202   H222    1.083   .     S
C203   H223    1.083   .     S
C203   C205    1.406   .     A
C204   O252    1.363   .     S
C204   N229    1.381   .     A
C205   O254    1.368   .     S
C205   N230    1.381   .     A
C206   N229    1.390   .     A
C206   O255    1.374   .     S
C206   C208    1.416   .     A
C207   N230    1.384   .     A
C207   O256    1.374   .     S
C208   O257    1.381   .     S
Cu209  O263    1.989   .     S
Cu209  N230    2.029   .     S
Cu209  Cu210   2.700   .     S
Cu209  O259    1.952   .     S
Cu209  O231    1.956   .     S
Cu209  O260    2.009   .     S
Cu210  O253    1.952   .     S
Cu210  O262    1.989   .     S
Cu210  N229    2.029   .     S
Cu210  O242    1.956   .     S
Cu210  O261    2.009   .     S
H212   O249    0.991   .     S
H213   O250    0.991   .     S
H214   O251    0.991   .     S
H215   O252    0.973   .     S
H216   O254    0.982   .     S
H217   O255    0.981   .     S
H218   O256    0.983   .     S
H219   O797    0.990   .     S
H220   O258    0.990   .     S
H224   O233    0.991   .     S
H225   O236    0.991   .     S
H226   O239    0.991   .     S
H227   O243    0.990   .     S
H228   O246    0.991   .     S
O232   S85     1.503   1_655 S
O233   S265    1.679   .     S
O236   S266    1.684   .     S
O237   S537    1.503   .     S
O238   S267    1.504   .     D
O239   S267    1.682   .     S
O240   S268    1.503   .     D
O241   S268    1.504   .     D
O243   S538    1.682   1_545 S
O244   S269    1.501   .     D
O245   S269    1.503   .     D
O246   S269    1.682   .     S
O247   S270    1.500   .     D
O248   S270    1.503   .     D
O249   S270    1.676   .     S
O257   H759    0.990   1_554 S
O264   S85     1.500   1_655 S
S266   O54     1.503   1_655 S
S266   O55     1.503   1_655 S
S267   O507    1.503   1_545 S
S268   O513    1.682   .     S
C271   O321    1.307   .     A
C271   O343    1.298   .     A
C271   C284    1.470   .     S
C272   C297    1.412   .     A
C272   C274    1.418   .     A
C272   O348    1.380   .     S
C273   C298    1.416   .     A
C273   C292    1.398   .     A
C273   C814    1.521   1_554 S
C274   C293    1.401   .     A
C274   C813    1.521   .     S
C275   O350    1.288   .     A
C275   C277    1.429   .     S
C275   O352    1.297   .     A
C276   O351    1.292   .     A
C276   C278    1.435   .     S
C276   O353    1.296   .     A
C277   S355    1.774   .     S
C277   C458    1.355   1_455 S
C278   S356    1.780   .     S
C278   C367    1.355   .     S
C279   C290    1.421   .     A
C279   C281    1.392   .     A
C279   S357    1.779   .     S
C280   S358    1.778   .     S
C280   C291    1.419   .     A
C280   C283    1.394   .     A
C281   C284    1.399   .     A
C281   H301    1.083   .     S
C282   O349    1.300   .     A
C282   O332    1.306   .     A
C282   C285    1.472   .     S
C283   H311    1.084   .     S
C283   C285    1.402   .     A
C284   C286    1.422   .     A
C285   C287    1.423   .     A
C286   S359    1.786   .     S
C286   C288    1.413   .     A
C287   S360    1.786   .     S
C287   C289    1.412   .     A
C288   O340    1.377   .     S
C288   C290    1.405   .     A
C289   O341    1.377   .     S
C289   C291    1.404   .     A
C291   C20     1.511   1_565 S
C292   C294    1.403   .     A
C292   H312    1.083   .     S
C293   H313    1.083   .     S
C293   C295    1.406   .     A
C294   O342    1.363   .     S
C294   N319    1.381   .     A
C295   O344    1.368   .     S
C295   N320    1.381   .     A
C296   N319    1.390   .     A
C296   O345    1.374   .     S
C296   C298    1.416   .     A
C297   N320    1.384   .     A
C297   O346    1.374   .     S
C298   O347    1.381   .     S
Cu299  O353    1.989   .     S
Cu299  N320    2.029   .     S
Cu299  Cu300   2.700   .     S
Cu299  O349    1.952   .     S
Cu299  O321    1.956   .     S
Cu299  O350    2.009   .     S
Cu300  O343    1.952   .     S
Cu300  O352    1.989   .     S
Cu300  N319    2.029   .     S
Cu300  O332    1.956   .     S
Cu300  O351    2.009   .     S
H302   O339    0.991   .     S
H303   O340    0.991   .     S
H304   O341    0.991   .     S
H305   O342    0.973   .     S
H306   O344    0.982   .     S
H307   O345    0.981   .     S
H308   O346    0.983   .     S
H309   O887    0.990   .     S
H310   O348    0.990   .     S
H314   O323    0.991   .     S
H315   O326    0.991   .     S
H316   O329    0.991   .     S
H317   O333    0.990   .     S
H318   O336    0.991   .     S
O322   S445    1.503   .     S
O323   S355    1.679   .     S
O324   S536    1.503   1_455 S
O325   S536    1.503   1_455 S
O326   S356    1.684   .     S
O327   S87     1.503   1_565 S
O328   S357    1.504   .     D
O329   S357    1.682   .     S
O330   S358    1.503   .     D
O331   S358    1.504   .     D
O334   S359    1.501   .     D
O335   S359    1.503   .     D
O336   S359    1.682   .     S
O337   S360    1.500   .     D
O338   S360    1.503   .     D
O339   S360    1.676   .     S
O347   H849    0.990   1_554 S
O354   S445    1.500   .     S
S355   O502    1.503   1_455 S
S355   O534    1.500   1_455 S
S356   O414    1.503   .     S
S356   O415    1.503   .     S
S358   O63     1.682   1_565 S
C361   O411    1.307   .     A
C361   O433    1.298   .     A
C361   C374    1.470   .     S
C362   C387    1.412   .     A
C362   C364    1.418   .     A
C362   O438    1.380   .     S
C363   C388    1.416   .     A
C363   C382    1.398   .     A
C363   C904    1.521   1_554 S
C364   C383    1.401   .     A
C364   C903    1.521   .     S
C365   O440    1.288   .     A
C365   C367    1.429   .     S
C365   O442    1.297   .     A
C366   O441    1.292   .     A
C366   C368    1.435   .     S
C366   O443    1.296   .     A
C367   S445    1.774   .     S
C368   S446    1.780   .     S
C368   C457    1.355   .     S
C369   C380    1.421   .     A
C369   C371    1.392   .     A
C369   S447    1.779   .     S
C370   S448    1.778   .     S
C370   C381    1.419   .     A
C370   C373    1.394   .     A
C371   C374    1.399   .     A
C371   H391    1.083   .     S
C372   O439    1.300   .     A
C372   O422    1.306   .     A
C372   C375    1.472   .     S
C373   H401    1.084   .     S
C373   C375    1.402   .     A
C374   C376    1.422   .     A
C375   C377    1.423   .     A
C376   S449    1.786   .     S
C376   C378    1.413   .     A
C377   S450    1.786   .     S
C377   C379    1.412   .     A
C378   O430    1.377   .     S
C378   C380    1.405   .     A
C379   O431    1.377   .     S
C379   C381    1.404   .     A
C381   C110    1.511   1_565 S
C382   C384    1.403   .     A
C382   H402    1.083   .     S
C383   H403    1.083   .     S
C383   C385    1.406   .     A
C384   O432    1.363   .     S
C384   N409    1.381   .     A
C385   O434    1.368   .     S
C385   N410    1.381   .     A
C386   N409    1.390   .     A
C386   O435    1.374   .     S
C386   C388    1.416   .     A
C387   N410    1.384   .     A
C387   O436    1.374   .     S
C388   O437    1.381   .     S
Cu389  O443    1.989   .     S
Cu389  N410    2.029   .     S
Cu389  Cu390   2.700   .     S
Cu389  O439    1.952   .     S
Cu389  O411    1.956   .     S
Cu389  O440    2.009   .     S
Cu390  O433    1.952   .     S
Cu390  O442    1.989   .     S
Cu390  N409    2.029   .     S
Cu390  O422    1.956   .     S
Cu390  O441    2.009   .     S
H392   O429    0.991   .     S
H393   O430    0.991   .     S
H394   O431    0.991   .     S
H395   O432    0.973   .     S
H396   O434    0.982   .     S
H397   O435    0.981   .     S
H398   O436    0.983   .     S
H399   O977    0.990   .     S
H400   O438    0.990   .     S
H404   O413    0.991   .     S
H405   O416    0.991   .     S
H406   O419    0.991   .     S
H407   O423    0.990   .     S
H408   O426    0.991   .     S
O412   S535    1.503   .     S
O413   S445    1.679   .     S
O416   S446    1.684   .     S
O417   S177    1.503   1_565 S
O418   S447    1.504   .     D
O419   S447    1.682   .     S
O420   S448    1.503   .     D
O421   S448    1.504   .     D
O424   S449    1.501   .     D
O425   S449    1.503   .     D
O426   S449    1.682   .     S
O427   S450    1.500   .     D
O428   S450    1.503   .     D
O429   S450    1.676   .     S
O437   H939    0.990   1_554 S
O444   S535    1.500   .     S
S446   O504    1.503   .     S
S446   O505    1.503   .     S
S448   O153    1.682   1_565 S
C451   O501    1.307   .     A
C451   O523    1.298   .     A
C451   C464    1.470   .     S
C452   C477    1.412   .     A
C452   C454    1.418   .     A
C452   O528    1.380   .     S
C453   C478    1.416   .     A
C453   C472    1.398   .     A
C453   C994    1.521   1_554 S
C454   C473    1.401   .     A
C454   C993    1.521   .     S
C455   O530    1.288   .     A
C455   C457    1.429   .     S
C455   O532    1.297   .     A
C456   O531    1.292   .     A
C456   C458    1.435   .     S
C456   O533    1.296   .     A
C457   S535    1.774   .     S
C458   S536    1.780   .     S
C458   C277    1.355   1_655 S
C459   C470    1.421   .     A
C459   C461    1.392   .     A
C459   S537    1.779   .     S
C460   S538    1.778   .     S
C460   C471    1.419   .     A
C460   C463    1.394   .     A
C461   C464    1.399   .     A
C461   H481    1.083   .     S
C462   O529    1.300   .     A
C462   O512    1.306   .     A
C462   C465    1.472   .     S
C463   H491    1.084   .     S
C463   C465    1.402   .     A
C464   C466    1.422   .     A
C465   C467    1.423   .     A
C466   S539    1.786   .     S
C466   C468    1.413   .     A
C467   S540    1.786   .     S
C467   C469    1.412   .     A
C468   O520    1.377   .     S
C468   C470    1.405   .     A
C469   O521    1.377   .     S
C469   C471    1.404   .     A
C471   C200    1.511   1_565 S
C472   C474    1.403   .     A
C472   H492    1.083   .     S
C473   H493    1.083   .     S
C473   C475    1.406   .     A
C474   O522    1.363   .     S
C474   N499    1.381   .     A
C475   O524    1.368   .     S
C475   N500    1.381   .     A
C476   N499    1.390   .     A
C476   O525    1.374   .     S
C476   C478    1.416   .     A
C477   N500    1.384   .     A
C477   O526    1.374   .     S
C478   O527    1.381   .     S
Cu479  O533    1.989   .     S
Cu479  N500    2.029   .     S
Cu479  Cu480   2.700   .     S
Cu479  O529    1.952   .     S
Cu479  O501    1.956   .     S
Cu479  O530    2.009   .     S
Cu480  O523    1.952   .     S
Cu480  O532    1.989   .     S
Cu480  N499    2.029   .     S
Cu480  O512    1.956   .     S
Cu480  O531    2.009   .     S
H482   O519    0.991   .     S
H483   O520    0.991   .     S
H484   O521    0.991   .     S
H485   O522    0.973   .     S
H486   O524    0.982   .     S
H487   O525    0.981   .     S
H488   O526    0.983   .     S
H489   O1067   0.990   .     S
H490   O528    0.990   .     S
H494   O503    0.991   .     S
H495   O506    0.991   .     S
H496   O509    0.991   .     S
H497   O513    0.990   .     S
H498   O516    0.991   .     S
O502   S355    1.503   1_655 S
O503   S535    1.679   .     S
O506   S536    1.684   .     S
O507   S267    1.503   1_565 S
O508   S537    1.504   .     D
O509   S537    1.682   .     S
O510   S538    1.503   .     D
O511   S538    1.504   .     D
O514   S539    1.501   .     D
O515   S539    1.503   .     D
O516   S539    1.682   .     S
O517   S540    1.500   .     D
O518   S540    1.503   .     D
O519   S540    1.676   .     S
O527   H1029   0.990   1_554 S
O534   S355    1.500   1_655 S
S536   O324    1.503   1_655 S
S536   O325    1.503   1_655 S
S538   O243    1.682   1_565 S
C541   O591    1.307   .     A
C541   O613    1.298   .     A
C541   C554    1.470   .     S
C542   C567    1.412   .     A
C542   C544    1.418   .     A
C542   O618    1.380   .     S
C543   C568    1.416   .     A
C543   C562    1.398   .     A
C544   C563    1.401   .     A
C544   C3      1.521   1_556 S
C545   O620    1.288   .     A
C545   C547    1.429   .     S
C545   O622    1.297   .     A
C546   O621    1.292   .     A
C546   C548    1.435   .     S
C546   O623    1.296   .     A
C547   S625    1.774   .     S
C547   C728    1.355   1_455 S
C548   S626    1.780   .     S
C548   C637    1.355   .     S
C549   C560    1.421   .     A
C549   C551    1.392   .     A
C549   S627    1.779   .     S
C550   S628    1.778   .     S
C550   C561    1.419   .     A
C550   C553    1.394   .     A
C551   C554    1.399   .     A
C551   H571    1.083   .     S
C552   O619    1.300   .     A
C552   O602    1.306   .     A
C552   C555    1.472   .     S
C553   H581    1.084   .     S
C553   C555    1.402   .     A
C554   C556    1.422   .     A
C555   C557    1.423   .     A
C556   S629    1.786   .     S
C556   C558    1.413   .     A
C557   S630    1.786   .     S
C557   C559    1.412   .     A
C558   O610    1.377   .     S
C558   C560    1.405   .     A
C559   O611    1.377   .     S
C559   C561    1.404   .     A
C560   C831    1.511   1_545 S
C561   C830    1.511   .     S
C562   C564    1.403   .     A
C562   H582    1.083   .     S
C563   H583    1.083   .     S
C563   C565    1.406   .     A
C564   O612    1.363   .     S
C564   N589    1.381   .     A
C565   O614    1.368   .     S
C565   N590    1.381   .     A
C566   N589    1.390   .     A
C566   O615    1.374   .     S
C566   C568    1.416   .     A
C567   N590    1.384   .     A
C567   O616    1.374   .     S
C568   O617    1.381   .     S
Cu569  O623    1.989   .     S
Cu569  N590    2.029   .     S
Cu569  Cu570   2.700   .     S
Cu569  O619    1.952   .     S
Cu569  O591    1.956   .     S
Cu569  O620    2.009   .     S
Cu570  O613    1.952   .     S
Cu570  O622    1.989   .     S
Cu570  N589    2.029   .     S
Cu570  O602    1.956   .     S
Cu570  O621    2.009   .     S
H572   O609    0.991   .     S
H573   O610    0.991   .     S
H574   O611    0.991   .     S
H575   O612    0.973   .     S
H576   O614    0.982   .     S
H577   O615    0.981   .     S
H578   O616    0.983   .     S
H579   O77     0.990   1_556 S
H580   O618    0.990   .     S
H584   O593    0.991   .     S
H585   O596    0.991   .     S
H586   O599    0.991   .     S
H587   O603    0.990   .     S
H588   O606    0.991   .     S
O592   S715    1.503   .     S
O593   S625    1.679   .     S
O594   S806    1.503   1_455 S
O595   S806    1.503   1_455 S
O596   S626    1.684   .     S
O597   S897    1.503   .     S
O598   S627    1.504   .     D
O599   S627    1.682   .     S
O600   S628    1.503   .     D
O601   S628    1.504   .     D
O603   S898    1.682   1_545 S
O604   S629    1.501   .     D
O605   S629    1.503   .     D
O606   S629    1.682   .     S
O607   S630    1.500   .     D
O608   S630    1.503   .     D
O609   S630    1.676   .     S
O624   S715    1.500   .     S
S625   O772    1.503   1_455 S
S625   O804    1.500   1_455 S
S626   O684    1.503   .     S
S626   O685    1.503   .     S
S627   O867    1.503   1_545 S
S628   O873    1.682   .     S
C631   O681    1.307   .     A
C631   O703    1.298   .     A
C631   C644    1.470   .     S
C632   C657    1.412   .     A
C632   C634    1.418   .     A
C632   O708    1.380   .     S
C633   C658    1.416   .     A
C633   C652    1.398   .     A
C634   C653    1.401   .     A
C634   C93     1.521   1_556 S
C635   O710    1.288   .     A
C635   C637    1.429   .     S
C635   O712    1.297   .     A
C636   O711    1.292   .     A
C636   C638    1.435   .     S
C636   O713    1.296   .     A
C637   S715    1.774   .     S
C638   S716    1.780   .     S
C638   C727    1.355   .     S
C639   C650    1.421   .     A
C639   C641    1.392   .     A
C639   S717    1.779   .     S
C640   S718    1.778   .     S
C640   C651    1.419   .     A
C640   C643    1.394   .     A
C641   C644    1.399   .     A
C641   H661    1.083   .     S
C642   O709    1.300   .     A
C642   O692    1.306   .     A
C642   C645    1.472   .     S
C643   H671    1.084   .     S
C643   C645    1.402   .     A
C644   C646    1.422   .     A
C645   C647    1.423   .     A
C646   S719    1.786   .     S
C646   C648    1.413   .     A
C647   S720    1.786   .     S
C647   C649    1.412   .     A
C648   O700    1.377   .     S
C648   C650    1.405   .     A
C649   O701    1.377   .     S
C649   C651    1.404   .     A
C650   C921    1.511   1_545 S
C651   C920    1.511   .     S
C652   C654    1.403   .     A
C652   H672    1.083   .     S
C653   H673    1.083   .     S
C653   C655    1.406   .     A
C654   O702    1.363   .     S
C654   N679    1.381   .     A
C655   O704    1.368   .     S
C655   N680    1.381   .     A
C656   N679    1.390   .     A
C656   O705    1.374   .     S
C656   C658    1.416   .     A
C657   N680    1.384   .     A
C657   O706    1.374   .     S
C658   O707    1.381   .     S
Cu659  O713    1.989   .     S
Cu659  N680    2.029   .     S
Cu659  Cu660   2.700   .     S
Cu659  O709    1.952   .     S
Cu659  O681    1.956   .     S
Cu659  O710    2.009   .     S
Cu660  O703    1.952   .     S
Cu660  O712    1.989   .     S
Cu660  N679    2.029   .     S
Cu660  O692    1.956   .     S
Cu660  O711    2.009   .     S
H662   O699    0.991   .     S
H663   O700    0.991   .     S
H664   O701    0.991   .     S
H665   O702    0.973   .     S
H666   O704    0.982   .     S
H667   O705    0.981   .     S
H668   O706    0.983   .     S
H669   O167    0.990   1_556 S
H670   O708    0.990   .     S
H674   O683    0.991   .     S
H675   O686    0.991   .     S
H676   O689    0.991   .     S
H677   O693    0.990   .     S
H678   O696    0.991   .     S
O682   S805    1.503   .     S
O683   S715    1.679   .     S
O686   S716    1.684   .     S
O687   S987    1.503   .     S
O688   S717    1.504   .     D
O689   S717    1.682   .     S
O690   S718    1.503   .     D
O691   S718    1.504   .     D
O693   S988    1.682   1_545 S
O694   S719    1.501   .     D
O695   S719    1.503   .     D
O696   S719    1.682   .     S
O697   S720    1.500   .     D
O698   S720    1.503   .     D
O699   S720    1.676   .     S
O714   S805    1.500   .     S
S716   O774    1.503   .     S
S716   O775    1.503   .     S
S717   O957    1.503   1_545 S
S718   O963    1.682   .     S
C721   O771    1.307   .     A
C721   O793    1.298   .     A
C721   C734    1.470   .     S
C722   C747    1.412   .     A
C722   C724    1.418   .     A
C722   O798    1.380   .     S
C723   C748    1.416   .     A
C723   C742    1.398   .     A
C724   C743    1.401   .     A
C724   C183    1.521   1_556 S
C725   O800    1.288   .     A
C725   C727    1.429   .     S
C725   O802    1.297   .     A
C726   O801    1.292   .     A
C726   C728    1.435   .     S
C726   O803    1.296   .     A
C727   S805    1.774   .     S
C728   S806    1.780   .     S
C728   C547    1.355   1_655 S
C729   C740    1.421   .     A
C729   C731    1.392   .     A
C729   S807    1.779   .     S
C730   S808    1.778   .     S
C730   C741    1.419   .     A
C730   C733    1.394   .     A
C731   C734    1.399   .     A
C731   H751    1.083   .     S
C732   O799    1.300   .     A
C732   O782    1.306   .     A
C732   C735    1.472   .     S
C733   H761    1.084   .     S
C733   C735    1.402   .     A
C734   C736    1.422   .     A
C735   C737    1.423   .     A
C736   S809    1.786   .     S
C736   C738    1.413   .     A
C737   S810    1.786   .     S
C737   C739    1.412   .     A
C738   O790    1.377   .     S
C738   C740    1.405   .     A
C739   O791    1.377   .     S
C739   C741    1.404   .     A
C740   C1011   1.511   1_545 S
C741   C1010   1.511   .     S
C742   C744    1.403   .     A
C742   H762    1.083   .     S
C743   H763    1.083   .     S
C743   C745    1.406   .     A
C744   O792    1.363   .     S
C744   N769    1.381   .     A
C745   O794    1.368   .     S
C745   N770    1.381   .     A
C746   N769    1.390   .     A
C746   O795    1.374   .     S
C746   C748    1.416   .     A
C747   N770    1.384   .     A
C747   O796    1.374   .     S
C748   O797    1.381   .     S
Cu749  O803    1.989   .     S
Cu749  N770    2.029   .     S
Cu749  Cu750   2.700   .     S
Cu749  O799    1.952   .     S
Cu749  O771    1.956   .     S
Cu749  O800    2.009   .     S
Cu750  O793    1.952   .     S
Cu750  O802    1.989   .     S
Cu750  N769    2.029   .     S
Cu750  O782    1.956   .     S
Cu750  O801    2.009   .     S
H752   O789    0.991   .     S
H753   O790    0.991   .     S
H754   O791    0.991   .     S
H755   O792    0.973   .     S
H756   O794    0.982   .     S
H757   O795    0.981   .     S
H758   O796    0.983   .     S
H759   O257    0.990   1_556 S
H760   O798    0.990   .     S
H764   O773    0.991   .     S
H765   O776    0.991   .     S
H766   O779    0.991   .     S
H767   O783    0.990   .     S
H768   O786    0.991   .     S
O772   S625    1.503   1_655 S
O773   S805    1.679   .     S
O776   S806    1.684   .     S
O777   S1077   1.503   .     S
O778   S807    1.504   .     D
O779   S807    1.682   .     S
O780   S808    1.503   .     D
O781   S808    1.504   .     D
O783   S1078   1.682   1_545 S
O784   S809    1.501   .     D
O785   S809    1.503   .     D
O786   S809    1.682   .     S
O787   S810    1.500   .     D
O788   S810    1.503   .     D
O789   S810    1.676   .     S
O804   S625    1.500   1_655 S
S806   O594    1.503   1_655 S
S806   O595    1.503   1_655 S
S807   O1047   1.503   1_545 S
S808   O1053   1.682   .     S
C811   O861    1.307   .     A
C811   O883    1.298   .     A
C811   C824    1.470   .     S
C812   C837    1.412   .     A
C812   C814    1.418   .     A
C812   O888    1.380   .     S
C813   C838    1.416   .     A
C813   C832    1.398   .     A
C814   C833    1.401   .     A
C814   C273    1.521   1_556 S
C815   O890    1.288   .     A
C815   C817    1.429   .     S
C815   O892    1.297   .     A
C816   O891    1.292   .     A
C816   C818    1.435   .     S
C816   O893    1.296   .     A
C817   S895    1.774   .     S
C817   C998    1.355   1_455 S
C818   S896    1.780   .     S
C818   C907    1.355   .     S
C819   C830    1.421   .     A
C819   C821    1.392   .     A
C819   S897    1.779   .     S
C820   S898    1.778   .     S
C820   C831    1.419   .     A
C820   C823    1.394   .     A
C821   C824    1.399   .     A
C821   H841    1.083   .     S
C822   O889    1.300   .     A
C822   O872    1.306   .     A
C822   C825    1.472   .     S
C823   H851    1.084   .     S
C823   C825    1.402   .     A
C824   C826    1.422   .     A
C825   C827    1.423   .     A
C826   S899    1.786   .     S
C826   C828    1.413   .     A
C827   S900    1.786   .     S
C827   C829    1.412   .     A
C828   O880    1.377   .     S
C828   C830    1.405   .     A
C829   O881    1.377   .     S
C829   C831    1.404   .     A
C831   C560    1.511   1_565 S
C832   C834    1.403   .     A
C832   H852    1.083   .     S
C833   H853    1.083   .     S
C833   C835    1.406   .     A
C834   O882    1.363   .     S
C834   N859    1.381   .     A
C835   O884    1.368   .     S
C835   N860    1.381   .     A
C836   N859    1.390   .     A
C836   O885    1.374   .     S
C836   C838    1.416   .     A
C837   N860    1.384   .     A
C837   O886    1.374   .     S
C838   O887    1.381   .     S
Cu839  O893    1.989   .     S
Cu839  N860    2.029   .     S
Cu839  Cu840   2.700   .     S
Cu839  O889    1.952   .     S
Cu839  O861    1.956   .     S
Cu839  O890    2.009   .     S
Cu840  O883    1.952   .     S
Cu840  O892    1.989   .     S
Cu840  N859    2.029   .     S
Cu840  O872    1.956   .     S
Cu840  O891    2.009   .     S
H842   O879    0.991   .     S
H843   O880    0.991   .     S
H844   O881    0.991   .     S
H845   O882    0.973   .     S
H846   O884    0.982   .     S
H847   O885    0.981   .     S
H848   O886    0.983   .     S
H849   O347    0.990   1_556 S
H850   O888    0.990   .     S
H854   O863    0.991   .     S
H855   O866    0.991   .     S
H856   O869    0.991   .     S
H857   O873    0.990   .     S
H858   O876    0.991   .     S
O862   S985    1.503   .     S
O863   S895    1.679   .     S
O864   S1076   1.503   1_455 S
O865   S1076   1.503   1_455 S
O866   S896    1.684   .     S
O867   S627    1.503   1_565 S
O868   S897    1.504   .     D
O869   S897    1.682   .     S
O870   S898    1.503   .     D
O871   S898    1.504   .     D
O874   S899    1.501   .     D
O875   S899    1.503   .     D
O876   S899    1.682   .     S
O877   S900    1.500   .     D
O878   S900    1.503   .     D
O879   S900    1.676   .     S
O894   S985    1.500   .     S
S895   O1042   1.503   1_455 S
S895   O1074   1.500   1_455 S
S896   O954    1.503   .     S
S896   O955    1.503   .     S
S898   O603    1.682   1_565 S
C901   O951    1.307   .     A
C901   O973    1.298   .     A
C901   C914    1.470   .     S
C902   C927    1.412   .     A
C902   C904    1.418   .     A
C902   O978    1.380   .     S
C903   C928    1.416   .     A
C903   C922    1.398   .     A
C904   C923    1.401   .     A
C904   C363    1.521   1_556 S
C905   O980    1.288   .     A
C905   C907    1.429   .     S
C905   O982    1.297   .     A
C906   O981    1.292   .     A
C906   C908    1.435   .     S
C906   O983    1.296   .     A
C907   S985    1.774   .     S
C908   S986    1.780   .     S
C908   C997    1.355   .     S
C909   C920    1.421   .     A
C909   C911    1.392   .     A
C909   S987    1.779   .     S
C910   S988    1.778   .     S
C910   C921    1.419   .     A
C910   C913    1.394   .     A
C911   C914    1.399   .     A
C911   H931    1.083   .     S
C912   O979    1.300   .     A
C912   O962    1.306   .     A
C912   C915    1.472   .     S
C913   H941    1.084   .     S
C913   C915    1.402   .     A
C914   C916    1.422   .     A
C915   C917    1.423   .     A
C916   S989    1.786   .     S
C916   C918    1.413   .     A
C917   S990    1.786   .     S
C917   C919    1.412   .     A
C918   O970    1.377   .     S
C918   C920    1.405   .     A
C919   O971    1.377   .     S
C919   C921    1.404   .     A
C921   C650    1.511   1_565 S
C922   C924    1.403   .     A
C922   H942    1.083   .     S
C923   H943    1.083   .     S
C923   C925    1.406   .     A
C924   O972    1.363   .     S
C924   N949    1.381   .     A
C925   O974    1.368   .     S
C925   N950    1.381   .     A
C926   N949    1.390   .     A
C926   O975    1.374   .     S
C926   C928    1.416   .     A
C927   N950    1.384   .     A
C927   O976    1.374   .     S
C928   O977    1.381   .     S
Cu929  O983    1.989   .     S
Cu929  N950    2.029   .     S
Cu929  Cu930   2.700   .     S
Cu929  O979    1.952   .     S
Cu929  O951    1.956   .     S
Cu929  O980    2.009   .     S
Cu930  O973    1.952   .     S
Cu930  O982    1.989   .     S
Cu930  N949    2.029   .     S
Cu930  O962    1.956   .     S
Cu930  O981    2.009   .     S
H932   O969    0.991   .     S
H933   O970    0.991   .     S
H934   O971    0.991   .     S
H935   O972    0.973   .     S
H936   O974    0.982   .     S
H937   O975    0.981   .     S
H938   O976    0.983   .     S
H939   O437    0.990   1_556 S
H940   O978    0.990   .     S
H944   O953    0.991   .     S
H945   O956    0.991   .     S
H946   O959    0.991   .     S
H947   O963    0.990   .     S
H948   O966    0.991   .     S
O952   S1075   1.503   .     S
O953   S985    1.679   .     S
O956   S986    1.684   .     S
O957   S717    1.503   1_565 S
O958   S987    1.504   .     D
O959   S987    1.682   .     S
O960   S988    1.503   .     D
O961   S988    1.504   .     D
O964   S989    1.501   .     D
O965   S989    1.503   .     D
O966   S989    1.682   .     S
O967   S990    1.500   .     D
O968   S990    1.503   .     D
O969   S990    1.676   .     S
O984   S1075   1.500   .     S
S986   O1044   1.503   .     S
S986   O1045   1.503   .     S
S988   O693    1.682   1_565 S
C991   O1041   1.307   .     A
C991   O1063   1.298   .     A
C991   C1004   1.470   .     S
C992   C1017   1.412   .     A
C992   C994    1.418   .     A
C992   O1068   1.380   .     S
C993   C1018   1.416   .     A
C993   C1012   1.398   .     A
C994   C1013   1.401   .     A
C994   C453    1.521   1_556 S
C995   O1070   1.288   .     A
C995   C997    1.429   .     S
C995   O1072   1.297   .     A
C996   O1071   1.292   .     A
C996   C998    1.435   .     S
C996   O1073   1.296   .     A
C997   S1075   1.774   .     S
C998   S1076   1.780   .     S
C998   C817    1.355   1_655 S
C999   C1010   1.421   .     A
C999   C1001   1.392   .     A
C999   S1077   1.779   .     S
C1000  S1078   1.778   .     S
C1000  C1011   1.419   .     A
C1000  C1003   1.394   .     A
C1001  C1004   1.399   .     A
C1001  H1021   1.083   .     S
C1002  O1069   1.300   .     A
C1002  O1052   1.306   .     A
C1002  C1005   1.472   .     S
C1003  H1031   1.084   .     S
C1003  C1005   1.402   .     A
C1004  C1006   1.422   .     A
C1005  C1007   1.423   .     A
C1006  S1079   1.786   .     S
C1006  C1008   1.413   .     A
C1007  S1080   1.786   .     S
C1007  C1009   1.412   .     A
C1008  O1060   1.377   .     S
C1008  C1010   1.405   .     A
C1009  O1061   1.377   .     S
C1009  C1011   1.404   .     A
C1011  C740    1.511   1_565 S
C1012  C1014   1.403   .     A
C1012  H1032   1.083   .     S
C1013  H1033   1.083   .     S
C1013  C1015   1.406   .     A
C1014  O1062   1.363   .     S
C1014  N1039   1.381   .     A
C1015  O1064   1.368   .     S
C1015  N1040   1.381   .     A
C1016  N1039   1.390   .     A
C1016  O1065   1.374   .     S
C1016  C1018   1.416   .     A
C1017  N1040   1.384   .     A
C1017  O1066   1.374   .     S
C1018  O1067   1.381   .     S
Cu1019 O1073   1.989   .     S
Cu1019 N1040   2.029   .     S
Cu1019 Cu1020  2.700   .     S
Cu1019 O1069   1.952   .     S
Cu1019 O1041   1.956   .     S
Cu1019 O1070   2.009   .     S
Cu1020 O1063   1.952   .     S
Cu1020 O1072   1.989   .     S
Cu1020 N1039   2.029   .     S
Cu1020 O1052   1.956   .     S
Cu1020 O1071   2.009   .     S
H1022  O1059   0.991   .     S
H1023  O1060   0.991   .     S
H1024  O1061   0.991   .     S
H1025  O1062   0.973   .     S
H1026  O1064   0.982   .     S
H1027  O1065   0.981   .     S
H1028  O1066   0.983   .     S
H1029  O527    0.990   1_556 S
H1030  O1068   0.990   .     S
H1034  O1043   0.991   .     S
H1035  O1046   0.991   .     S
H1036  O1049   0.991   .     S
H1037  O1053   0.990   .     S
H1038  O1056   0.991   .     S
O1042  S895    1.503   1_655 S
O1043  S1075   1.679   .     S
O1046  S1076   1.684   .     S
O1047  S807    1.503   1_565 S
O1048  S1077   1.504   .     D
O1049  S1077   1.682   .     S
O1050  S1078   1.503   .     D
O1051  S1078   1.504   .     D
O1054  S1079   1.501   .     D
O1055  S1079   1.503   .     D
O1056  S1079   1.682   .     S
O1057  S1080   1.500   .     D
O1058  S1080   1.503   .     D
O1059  S1080   1.676   .     S
O1074  S895    1.500   1_655 S
S1076  O864    1.503   1_655 S
S1076  O865    1.503   1_655 S
S1078  O783    1.682   1_565 S
