data_str_m3_o1_o10_pcu_sym.41
_audit_creation_date              2020-01-03
_audit_creation_method            'Materials Studio'
_symmetry_space_group_name_H-M    'P1'
_symmetry_Int_Tables_number       1
_symmetry_cell_setting            triclinic
loop_
_symmetry_equiv_pos_as_xyz
  x,y,z
_cell_length_a                    25.7011
_cell_length_b                    32.0658
_cell_length_c                    29.7150
_cell_angle_alpha                 90.8408
_cell_angle_beta                  98.6684
_cell_angle_gamma                 91.0779
loop_
_atom_site_label
_atom_site_type_symbol
_atom_site_fract_x
_atom_site_fract_y
_atom_site_fract_z
_atom_site_U_iso_or_equiv
_atom_site_adp_type
_atom_site_occupancy
C1     C     0.16635   0.08684   0.16633   0.00000  Uiso   1.00
C2     C     0.19615   0.02267   0.20158   0.00000  Uiso   1.00
C3     C     0.16283   0.29082   0.16789   0.00000  Uiso   1.00
C4     C     0.16490   0.04275   0.16607   0.00000  Uiso   1.00
C5     C     0.20701   0.18553   0.02955   0.00000  Uiso   1.00
C6     C     0.12680   0.14713   0.30384   0.00000  Uiso   1.00
C7     C     0.20771   0.18441   0.31490   0.00000  Uiso   1.00
C8     C     0.12649   0.14772   0.01860   0.00000  Uiso   1.00
C9     C     0.05253   0.05344   0.11651   0.00000  Uiso   1.00
C10    C     0.18355   0.29930   0.27824   0.00000  Uiso   1.00
C11    C     0.05609   0.27319   0.10603   0.00000  Uiso   1.00
C12    C     0.16600   0.24662   0.16702   0.00000  Uiso   1.00
C13    C     0.27936   0.04866   0.22044   0.00000  Uiso   1.00
C14    C     0.24324   0.24590   0.06374   0.00000  Uiso   1.00
C15    C     0.09361   0.08525   0.27119   0.00000  Uiso   1.00
C16    C     0.06712   0.16675   0.15474   0.00000  Uiso   1.00
C17    C     0.26623   0.16677   0.17861   0.00000  Uiso   1.00
C18    C     0.01202   0.16620   0.14836   0.00000  Uiso   1.00
C19    C     0.32134   0.16720   0.18500   0.00000  Uiso   1.00
C20    C     0.13069   0.02062   0.13225   0.00000  Uiso   1.00
C21    C     0.19058   0.31340   0.20507   0.00000  Uiso   1.00
C22    C     0.13163   0.31081   0.13184   0.00000  Uiso   1.00
H23    H     0.32476   0.16468   0.11362   0.00000  Uiso   1.00
H24    H     0.04337   0.24562   0.08383   0.00000  Uiso   1.00
H25    H     0.05844   0.26292   0.14194   0.00000  Uiso   1.00
H26    H     0.30588   0.06723   0.24647   0.00000  Uiso   1.00
H27    H     0.29722   0.01758   0.21734   0.00000  Uiso   1.00
H28    H     0.27700   0.06551   0.18771   0.00000  Uiso   1.00
H29    H     0.20175   0.25644   0.05595   0.00000  Uiso   1.00
H30    H     0.26797   0.26305   0.04236   0.00000  Uiso   1.00
H31    H     0.25803   0.25492   0.09965   0.00000  Uiso   1.00
H32    H     0.07921   0.07495   0.23561   0.00000  Uiso   1.00
H33    H     0.06973   0.06799   0.29318   0.00000  Uiso   1.00
H34    H     0.00862   0.16862   0.21975   0.00000  Uiso   1.00
H35    H     0.13559   0.07600   0.27936   0.00000  Uiso   1.00
H36    H     0.25885   0.23131   0.30524   0.00000  Uiso   1.00
H37    H     0.28575   0.18377   0.31233   0.00000  Uiso   1.00
H38    H     0.08424   0.09651   0.03085   0.00000  Uiso   1.00
H39    H     0.04857   0.14032   0.02072   0.00000  Uiso   1.00
H40    H     0.02272   0.06360   0.08805   0.00000  Uiso   1.00
H41    H     0.03434   0.02790   0.13420   0.00000  Uiso   1.00
H42    H     0.06180   0.08036   0.14037   0.00000  Uiso   1.00
H43    H     0.20308   0.28504   0.30980   0.00000  Uiso   1.00
H44    H     0.14434   0.28360   0.26888   0.00000  Uiso   1.00
H45    H     0.17859   0.33281   0.28652   0.00000  Uiso   1.00
H46    H     0.02528   0.29690   0.09868   0.00000  Uiso   1.00
N47    N     0.16665   0.16666   0.28573   0.00000  Uiso   1.00
N48    N     0.16668   0.16668   0.04760   0.00000  Uiso   1.00
N49    N     0.25284   0.19976   0.29696   0.00000  Uiso   1.00
N50    N     0.08398   0.12857   0.03716   0.00000  Uiso   1.00
O51    O     0.16666   0.10558   0.20487   0.00000  Uiso   1.00
O52    O     0.21507   0.29387   0.24355   0.00000  Uiso   1.00
O53    O     0.10438   0.28861   0.09501   0.00000  Uiso   1.00
O54    O     0.22964   0.04484   0.23476   0.00000  Uiso   1.00
O55    O     0.24945   0.20250   0.05846   0.00000  Uiso   1.00
O56    O     0.08544   0.12856   0.27494   0.00000  Uiso   1.00
O57    O     0.16667   0.22775   0.12846   0.00000  Uiso   1.00
O58    O     0.16666   0.10559   0.12843   0.00000  Uiso   1.00
O59    O     0.16667   0.22774   0.20490   0.00000  Uiso   1.00
O60    O     0.09058   0.16666   0.19595   0.00000  Uiso   1.00
O61    O     0.24275   0.16667   0.13739   0.00000  Uiso   1.00
O62    O     0.09058   0.16667   0.11950   0.00000  Uiso   1.00
O63    O     0.24275   0.16666   0.21383   0.00000  Uiso   1.00
O64    O     0.09771   0.04066   0.09859   0.00000  Uiso   1.00
Zn65   Zn    0.16667   0.16666   0.21771   0.00000  Uiso   1.00
Zn66   Zn    0.16667   0.16667   0.11563   0.00000  Uiso   1.00
C67    C     0.49968   0.08684   0.16633   0.00000  Uiso   1.00
C68    C     0.52948   0.02267   0.20158   0.00000  Uiso   1.00
C69    C     0.49616   0.29082   0.16789   0.00000  Uiso   1.00
C70    C     0.49824   0.04275   0.16607   0.00000  Uiso   1.00
C71    C     0.54034   0.18553   0.02955   0.00000  Uiso   1.00
C72    C     0.46014   0.14713   0.30384   0.00000  Uiso   1.00
C73    C     0.54105   0.18441   0.31490   0.00000  Uiso   1.00
C74    C     0.45982   0.14772   0.01860   0.00000  Uiso   1.00
C75    C     0.38586   0.05344   0.11651   0.00000  Uiso   1.00
C76    C     0.51689   0.29930   0.27824   0.00000  Uiso   1.00
C77    C     0.38942   0.27319   0.10603   0.00000  Uiso   1.00
C78    C     0.49934   0.24662   0.16702   0.00000  Uiso   1.00
C79    C     0.61270   0.04866   0.22044   0.00000  Uiso   1.00
C80    C     0.57657   0.24590   0.06374   0.00000  Uiso   1.00
C81    C     0.42694   0.08525   0.27119   0.00000  Uiso   1.00
C82    C     0.40045   0.16675   0.15474   0.00000  Uiso   1.00
C83    C     0.59956   0.16677   0.17861   0.00000  Uiso   1.00
C84    C     0.34535   0.16620   0.14836   0.00000  Uiso   1.00
C85    C     0.65467   0.16720   0.18500   0.00000  Uiso   1.00
C86    C     0.46402   0.02062   0.13225   0.00000  Uiso   1.00
C87    C     0.52392   0.31340   0.20507   0.00000  Uiso   1.00
C88    C     0.46496   0.31081   0.13184   0.00000  Uiso   1.00
H89    H     0.65810   0.16468   0.11362   0.00000  Uiso   1.00
H90    H     0.37671   0.24562   0.08383   0.00000  Uiso   1.00
H91    H     0.39177   0.26292   0.14194   0.00000  Uiso   1.00
H92    H     0.63922   0.06723   0.24647   0.00000  Uiso   1.00
H93    H     0.63055   0.01758   0.21734   0.00000  Uiso   1.00
H94    H     0.61033   0.06551   0.18771   0.00000  Uiso   1.00
H95    H     0.53508   0.25644   0.05595   0.00000  Uiso   1.00
H96    H     0.60130   0.26305   0.04236   0.00000  Uiso   1.00
H97    H     0.59136   0.25492   0.09965   0.00000  Uiso   1.00
H98    H     0.41254   0.07495   0.23561   0.00000  Uiso   1.00
H99    H     0.40306   0.06799   0.29318   0.00000  Uiso   1.00
H100   H     0.34196   0.16862   0.21975   0.00000  Uiso   1.00
H101   H     0.46892   0.07600   0.27936   0.00000  Uiso   1.00
H102   H     0.59218   0.23131   0.30524   0.00000  Uiso   1.00
H103   H     0.61908   0.18377   0.31233   0.00000  Uiso   1.00
H104   H     0.41757   0.09651   0.03085   0.00000  Uiso   1.00
H105   H     0.38190   0.14032   0.02072   0.00000  Uiso   1.00
H106   H     0.35606   0.06360   0.08805   0.00000  Uiso   1.00
H107   H     0.36768   0.02790   0.13420   0.00000  Uiso   1.00
H108   H     0.39513   0.08036   0.14037   0.00000  Uiso   1.00
H109   H     0.53641   0.28504   0.30980   0.00000  Uiso   1.00
H110   H     0.47767   0.28360   0.26888   0.00000  Uiso   1.00
H111   H     0.51192   0.33281   0.28652   0.00000  Uiso   1.00
H112   H     0.35861   0.29690   0.09868   0.00000  Uiso   1.00
N113   N     0.49999   0.16666   0.28573   0.00000  Uiso   1.00
N114   N     0.50001   0.16668   0.04760   0.00000  Uiso   1.00
N115   N     0.58618   0.19976   0.29696   0.00000  Uiso   1.00
N116   N     0.41731   0.12857   0.03716   0.00000  Uiso   1.00
O117   O     0.50000   0.10558   0.20487   0.00000  Uiso   1.00
O118   O     0.54840   0.29387   0.24355   0.00000  Uiso   1.00
O119   O     0.43771   0.28861   0.09501   0.00000  Uiso   1.00
O120   O     0.56297   0.04484   0.23476   0.00000  Uiso   1.00
O121   O     0.58279   0.20250   0.05846   0.00000  Uiso   1.00
O122   O     0.41878   0.12856   0.27494   0.00000  Uiso   1.00
O123   O     0.50000   0.22775   0.12846   0.00000  Uiso   1.00
O124   O     0.50000   0.10559   0.12843   0.00000  Uiso   1.00
O125   O     0.50000   0.22774   0.20490   0.00000  Uiso   1.00
O126   O     0.42392   0.16666   0.19595   0.00000  Uiso   1.00
O127   O     0.57608   0.16667   0.13739   0.00000  Uiso   1.00
O128   O     0.42392   0.16667   0.11950   0.00000  Uiso   1.00
O129   O     0.57608   0.16666   0.21383   0.00000  Uiso   1.00
O130   O     0.43104   0.04066   0.09859   0.00000  Uiso   1.00
Zn131  Zn    0.50000   0.16666   0.21771   0.00000  Uiso   1.00
Zn132  Zn    0.50000   0.16667   0.11563   0.00000  Uiso   1.00
C133   C     0.83302   0.08684   0.16633   0.00000  Uiso   1.00
C134   C     0.86281   0.02267   0.20158   0.00000  Uiso   1.00
C135   C     0.82950   0.29082   0.16789   0.00000  Uiso   1.00
C136   C     0.83157   0.04275   0.16607   0.00000  Uiso   1.00
C137   C     0.87367   0.18553   0.02955   0.00000  Uiso   1.00
C138   C     0.79347   0.14713   0.30384   0.00000  Uiso   1.00
C139   C     0.87438   0.18441   0.31490   0.00000  Uiso   1.00
C140   C     0.79316   0.14772   0.01860   0.00000  Uiso   1.00
C141   C     0.71919   0.05344   0.11651   0.00000  Uiso   1.00
C142   C     0.85022   0.29930   0.27824   0.00000  Uiso   1.00
C143   C     0.72276   0.27319   0.10603   0.00000  Uiso   1.00
C144   C     0.83267   0.24662   0.16702   0.00000  Uiso   1.00
C145   C     0.94603   0.04866   0.22044   0.00000  Uiso   1.00
C146   C     0.90990   0.24590   0.06374   0.00000  Uiso   1.00
C147   C     0.76027   0.08525   0.27119   0.00000  Uiso   1.00
C148   C     0.73378   0.16675   0.15474   0.00000  Uiso   1.00
C149   C     0.93289   0.16677   0.17861   0.00000  Uiso   1.00
C150   C     0.67868   0.16620   0.14836   0.00000  Uiso   1.00
C151   C     0.98800   0.16720   0.18500   0.00000  Uiso   1.00
C152   C     0.79735   0.02062   0.13225   0.00000  Uiso   1.00
C153   C     0.85725   0.31340   0.20507   0.00000  Uiso   1.00
C154   C     0.79829   0.31081   0.13184   0.00000  Uiso   1.00
H155   H     0.99143   0.16468   0.11362   0.00000  Uiso   1.00
H156   H     0.71004   0.24562   0.08383   0.00000  Uiso   1.00
H157   H     0.72510   0.26292   0.14194   0.00000  Uiso   1.00
H158   H     0.97255   0.06723   0.24647   0.00000  Uiso   1.00
H159   H     0.96389   0.01758   0.21734   0.00000  Uiso   1.00
H160   H     0.94367   0.06551   0.18771   0.00000  Uiso   1.00
H161   H     0.86841   0.25644   0.05595   0.00000  Uiso   1.00
H162   H     0.93463   0.26305   0.04236   0.00000  Uiso   1.00
H163   H     0.92470   0.25492   0.09965   0.00000  Uiso   1.00
H164   H     0.74587   0.07495   0.23561   0.00000  Uiso   1.00
H165   H     0.73640   0.06799   0.29318   0.00000  Uiso   1.00
H166   H     0.67529   0.16862   0.21975   0.00000  Uiso   1.00
H167   H     0.80226   0.07600   0.27936   0.00000  Uiso   1.00
H168   H     0.92552   0.23131   0.30524   0.00000  Uiso   1.00
H169   H     0.95241   0.18377   0.31233   0.00000  Uiso   1.00
H170   H     0.75091   0.09651   0.03085   0.00000  Uiso   1.00
H171   H     0.71523   0.14032   0.02072   0.00000  Uiso   1.00
H172   H     0.68939   0.06360   0.08805   0.00000  Uiso   1.00
H173   H     0.70101   0.02790   0.13420   0.00000  Uiso   1.00
H174   H     0.72847   0.08036   0.14037   0.00000  Uiso   1.00
H175   H     0.86974   0.28504   0.30980   0.00000  Uiso   1.00
H176   H     0.81100   0.28360   0.26888   0.00000  Uiso   1.00
H177   H     0.84525   0.33281   0.28652   0.00000  Uiso   1.00
H178   H     0.69195   0.29690   0.09868   0.00000  Uiso   1.00
N179   N     0.83332   0.16666   0.28573   0.00000  Uiso   1.00
N180   N     0.83335   0.16668   0.04760   0.00000  Uiso   1.00
N181   N     0.91951   0.19976   0.29696   0.00000  Uiso   1.00
N182   N     0.75065   0.12857   0.03716   0.00000  Uiso   1.00
O183   O     0.83333   0.10558   0.20487   0.00000  Uiso   1.00
O184   O     0.88173   0.29387   0.24355   0.00000  Uiso   1.00
O185   O     0.77105   0.28861   0.09501   0.00000  Uiso   1.00
O186   O     0.89631   0.04484   0.23476   0.00000  Uiso   1.00
O187   O     0.91612   0.20250   0.05846   0.00000  Uiso   1.00
O188   O     0.75211   0.12856   0.27494   0.00000  Uiso   1.00
O189   O     0.83334   0.22775   0.12846   0.00000  Uiso   1.00
O190   O     0.83333   0.10559   0.12843   0.00000  Uiso   1.00
O191   O     0.83334   0.22774   0.20490   0.00000  Uiso   1.00
O192   O     0.75725   0.16666   0.19595   0.00000  Uiso   1.00
O193   O     0.90942   0.16667   0.13739   0.00000  Uiso   1.00
O194   O     0.75725   0.16667   0.11950   0.00000  Uiso   1.00
O195   O     0.90942   0.16666   0.21383   0.00000  Uiso   1.00
O196   O     0.76438   0.04066   0.09859   0.00000  Uiso   1.00
Zn197  Zn    0.83333   0.16666   0.21771   0.00000  Uiso   1.00
Zn198  Zn    0.83333   0.16667   0.11563   0.00000  Uiso   1.00
C199   C     0.16635   0.42017   0.16633   0.00000  Uiso   1.00
C200   C     0.19615   0.35600   0.20158   0.00000  Uiso   1.00
C201   C     0.16283   0.62416   0.16789   0.00000  Uiso   1.00
C202   C     0.16490   0.37608   0.16607   0.00000  Uiso   1.00
C203   C     0.20701   0.51887   0.02955   0.00000  Uiso   1.00
C204   C     0.12680   0.48047   0.30384   0.00000  Uiso   1.00
C205   C     0.20771   0.51774   0.31490   0.00000  Uiso   1.00
C206   C     0.12649   0.48106   0.01860   0.00000  Uiso   1.00
C207   C     0.05253   0.38678   0.11651   0.00000  Uiso   1.00
C208   C     0.18355   0.63264   0.27824   0.00000  Uiso   1.00
C209   C     0.05609   0.60653   0.10603   0.00000  Uiso   1.00
C210   C     0.16600   0.57995   0.16702   0.00000  Uiso   1.00
C211   C     0.27936   0.38199   0.22044   0.00000  Uiso   1.00
C212   C     0.24324   0.57923   0.06374   0.00000  Uiso   1.00
C213   C     0.09361   0.41858   0.27119   0.00000  Uiso   1.00
C214   C     0.06712   0.50008   0.15474   0.00000  Uiso   1.00
C215   C     0.26623   0.50010   0.17861   0.00000  Uiso   1.00
C216   C     0.01202   0.49953   0.14836   0.00000  Uiso   1.00
C217   C     0.32134   0.50054   0.18500   0.00000  Uiso   1.00
C218   C     0.13069   0.35395   0.13225   0.00000  Uiso   1.00
C219   C     0.19058   0.64674   0.20507   0.00000  Uiso   1.00
C220   C     0.13163   0.64415   0.13184   0.00000  Uiso   1.00
H221   H     0.32476   0.49801   0.11362   0.00000  Uiso   1.00
H222   H     0.04337   0.57896   0.08383   0.00000  Uiso   1.00
H223   H     0.05844   0.59626   0.14194   0.00000  Uiso   1.00
H224   H     0.30588   0.40056   0.24647   0.00000  Uiso   1.00
H225   H     0.29722   0.35092   0.21734   0.00000  Uiso   1.00
H226   H     0.27700   0.39884   0.18771   0.00000  Uiso   1.00
H227   H     0.20175   0.58977   0.05595   0.00000  Uiso   1.00
H228   H     0.26797   0.59638   0.04236   0.00000  Uiso   1.00
H229   H     0.25803   0.58826   0.09965   0.00000  Uiso   1.00
H230   H     0.07921   0.40828   0.23561   0.00000  Uiso   1.00
H231   H     0.06973   0.40133   0.29318   0.00000  Uiso   1.00
H232   H     0.00862   0.50196   0.21975   0.00000  Uiso   1.00
H233   H     0.13559   0.40933   0.27936   0.00000  Uiso   1.00
H234   H     0.25885   0.56465   0.30524   0.00000  Uiso   1.00
H235   H     0.28575   0.51710   0.31233   0.00000  Uiso   1.00
H236   H     0.08424   0.42984   0.03085   0.00000  Uiso   1.00
H237   H     0.04857   0.47365   0.02072   0.00000  Uiso   1.00
H238   H     0.02272   0.39693   0.08805   0.00000  Uiso   1.00
H239   H     0.03434   0.36123   0.13420   0.00000  Uiso   1.00
H240   H     0.06180   0.41369   0.14037   0.00000  Uiso   1.00
H241   H     0.20308   0.61837   0.30980   0.00000  Uiso   1.00
H242   H     0.14434   0.61694   0.26888   0.00000  Uiso   1.00
H243   H     0.17859   0.66615   0.28652   0.00000  Uiso   1.00
H244   H     0.02528   0.63024   0.09868   0.00000  Uiso   1.00
N245   N     0.16665   0.49999   0.28573   0.00000  Uiso   1.00
N246   N     0.16668   0.50001   0.04760   0.00000  Uiso   1.00
N247   N     0.25284   0.53309   0.29696   0.00000  Uiso   1.00
N248   N     0.08398   0.46190   0.03716   0.00000  Uiso   1.00
O249   O     0.16666   0.43892   0.20487   0.00000  Uiso   1.00
O250   O     0.21507   0.62721   0.24355   0.00000  Uiso   1.00
O251   O     0.10438   0.62194   0.09501   0.00000  Uiso   1.00
O252   O     0.22964   0.37817   0.23476   0.00000  Uiso   1.00
O253   O     0.24945   0.53584   0.05846   0.00000  Uiso   1.00
O254   O     0.08544   0.46190   0.27494   0.00000  Uiso   1.00
O255   O     0.16667   0.56108   0.12846   0.00000  Uiso   1.00
O256   O     0.16666   0.43893   0.12843   0.00000  Uiso   1.00
O257   O     0.16667   0.56107   0.20490   0.00000  Uiso   1.00
O258   O     0.09058   0.50000   0.19595   0.00000  Uiso   1.00
O259   O     0.24275   0.50000   0.13739   0.00000  Uiso   1.00
O260   O     0.09058   0.50000   0.11950   0.00000  Uiso   1.00
O261   O     0.24275   0.50000   0.21383   0.00000  Uiso   1.00
O262   O     0.09771   0.37399   0.09859   0.00000  Uiso   1.00
Zn263  Zn    0.16667   0.49999   0.21771   0.00000  Uiso   1.00
Zn264  Zn    0.16667   0.50001   0.11563   0.00000  Uiso   1.00
C265   C     0.49968   0.42017   0.16633   0.00000  Uiso   1.00
C266   C     0.52948   0.35600   0.20158   0.00000  Uiso   1.00
C267   C     0.49616   0.62416   0.16789   0.00000  Uiso   1.00
C268   C     0.49824   0.37608   0.16607   0.00000  Uiso   1.00
C269   C     0.54034   0.51887   0.02955   0.00000  Uiso   1.00
C270   C     0.46014   0.48047   0.30384   0.00000  Uiso   1.00
C271   C     0.54105   0.51774   0.31490   0.00000  Uiso   1.00
C272   C     0.45982   0.48106   0.01860   0.00000  Uiso   1.00
C273   C     0.38586   0.38678   0.11651   0.00000  Uiso   1.00
C274   C     0.51689   0.63264   0.27824   0.00000  Uiso   1.00
C275   C     0.38942   0.60653   0.10603   0.00000  Uiso   1.00
C276   C     0.49934   0.57995   0.16702   0.00000  Uiso   1.00
C277   C     0.61270   0.38199   0.22044   0.00000  Uiso   1.00
C278   C     0.57657   0.57923   0.06374   0.00000  Uiso   1.00
C279   C     0.42694   0.41858   0.27119   0.00000  Uiso   1.00
C280   C     0.40045   0.50008   0.15474   0.00000  Uiso   1.00
C281   C     0.59956   0.50010   0.17861   0.00000  Uiso   1.00
C282   C     0.34535   0.49953   0.14836   0.00000  Uiso   1.00
C283   C     0.65467   0.50054   0.18500   0.00000  Uiso   1.00
C284   C     0.46402   0.35395   0.13225   0.00000  Uiso   1.00
C285   C     0.52392   0.64674   0.20507   0.00000  Uiso   1.00
C286   C     0.46496   0.64415   0.13184   0.00000  Uiso   1.00
H287   H     0.65810   0.49801   0.11362   0.00000  Uiso   1.00
H288   H     0.37671   0.57896   0.08383   0.00000  Uiso   1.00
H289   H     0.39177   0.59626   0.14194   0.00000  Uiso   1.00
H290   H     0.63922   0.40056   0.24647   0.00000  Uiso   1.00
H291   H     0.63055   0.35092   0.21734   0.00000  Uiso   1.00
H292   H     0.61033   0.39884   0.18771   0.00000  Uiso   1.00
H293   H     0.53508   0.58977   0.05595   0.00000  Uiso   1.00
H294   H     0.60130   0.59638   0.04236   0.00000  Uiso   1.00
H295   H     0.59136   0.58826   0.09965   0.00000  Uiso   1.00
H296   H     0.41254   0.40828   0.23561   0.00000  Uiso   1.00
H297   H     0.40306   0.40133   0.29318   0.00000  Uiso   1.00
H298   H     0.34196   0.50196   0.21975   0.00000  Uiso   1.00
H299   H     0.46892   0.40933   0.27936   0.00000  Uiso   1.00
H300   H     0.59218   0.56465   0.30524   0.00000  Uiso   1.00
H301   H     0.61908   0.51710   0.31233   0.00000  Uiso   1.00
H302   H     0.41757   0.42984   0.03085   0.00000  Uiso   1.00
H303   H     0.38190   0.47365   0.02072   0.00000  Uiso   1.00
H304   H     0.35606   0.39693   0.08805   0.00000  Uiso   1.00
H305   H     0.36768   0.36123   0.13420   0.00000  Uiso   1.00
H306   H     0.39513   0.41369   0.14037   0.00000  Uiso   1.00
H307   H     0.53641   0.61837   0.30980   0.00000  Uiso   1.00
H308   H     0.47767   0.61694   0.26888   0.00000  Uiso   1.00
H309   H     0.51192   0.66615   0.28652   0.00000  Uiso   1.00
H310   H     0.35861   0.63024   0.09868   0.00000  Uiso   1.00
N311   N     0.49999   0.49999   0.28573   0.00000  Uiso   1.00
N312   N     0.50001   0.50001   0.04760   0.00000  Uiso   1.00
N313   N     0.58618   0.53309   0.29696   0.00000  Uiso   1.00
N314   N     0.41731   0.46190   0.03716   0.00000  Uiso   1.00
O315   O     0.50000   0.43892   0.20487   0.00000  Uiso   1.00
O316   O     0.54840   0.62721   0.24355   0.00000  Uiso   1.00
O317   O     0.43771   0.62194   0.09501   0.00000  Uiso   1.00
O318   O     0.56297   0.37817   0.23476   0.00000  Uiso   1.00
O319   O     0.58279   0.53584   0.05846   0.00000  Uiso   1.00
O320   O     0.41878   0.46190   0.27494   0.00000  Uiso   1.00
O321   O     0.50000   0.56108   0.12846   0.00000  Uiso   1.00
O322   O     0.50000   0.43893   0.12843   0.00000  Uiso   1.00
O323   O     0.50000   0.56107   0.20490   0.00000  Uiso   1.00
O324   O     0.42392   0.50000   0.19595   0.00000  Uiso   1.00
O325   O     0.57608   0.50000   0.13739   0.00000  Uiso   1.00
O326   O     0.42392   0.50000   0.11950   0.00000  Uiso   1.00
O327   O     0.57608   0.50000   0.21383   0.00000  Uiso   1.00
O328   O     0.43104   0.37399   0.09859   0.00000  Uiso   1.00
Zn329  Zn    0.50000   0.49999   0.21771   0.00000  Uiso   1.00
Zn330  Zn    0.50000   0.50001   0.11563   0.00000  Uiso   1.00
C331   C     0.83302   0.42017   0.16633   0.00000  Uiso   1.00
C332   C     0.86281   0.35600   0.20158   0.00000  Uiso   1.00
C333   C     0.82950   0.62416   0.16789   0.00000  Uiso   1.00
C334   C     0.83157   0.37608   0.16607   0.00000  Uiso   1.00
C335   C     0.87367   0.51887   0.02955   0.00000  Uiso   1.00
C336   C     0.79347   0.48047   0.30384   0.00000  Uiso   1.00
C337   C     0.87438   0.51774   0.31490   0.00000  Uiso   1.00
C338   C     0.79316   0.48106   0.01860   0.00000  Uiso   1.00
C339   C     0.71919   0.38678   0.11651   0.00000  Uiso   1.00
C340   C     0.85022   0.63264   0.27824   0.00000  Uiso   1.00
C341   C     0.72276   0.60653   0.10603   0.00000  Uiso   1.00
C342   C     0.83267   0.57995   0.16702   0.00000  Uiso   1.00
C343   C     0.94603   0.38199   0.22044   0.00000  Uiso   1.00
C344   C     0.90990   0.57923   0.06374   0.00000  Uiso   1.00
C345   C     0.76027   0.41858   0.27119   0.00000  Uiso   1.00
C346   C     0.73378   0.50008   0.15474   0.00000  Uiso   1.00
C347   C     0.93289   0.50010   0.17861   0.00000  Uiso   1.00
C348   C     0.67868   0.49953   0.14836   0.00000  Uiso   1.00
C349   C     0.98800   0.50054   0.18500   0.00000  Uiso   1.00
C350   C     0.79735   0.35395   0.13225   0.00000  Uiso   1.00
C351   C     0.85725   0.64674   0.20507   0.00000  Uiso   1.00
C352   C     0.79829   0.64415   0.13184   0.00000  Uiso   1.00
H353   H     0.99143   0.49801   0.11362   0.00000  Uiso   1.00
H354   H     0.71004   0.57896   0.08383   0.00000  Uiso   1.00
H355   H     0.72510   0.59626   0.14194   0.00000  Uiso   1.00
H356   H     0.97255   0.40056   0.24647   0.00000  Uiso   1.00
H357   H     0.96389   0.35092   0.21734   0.00000  Uiso   1.00
H358   H     0.94367   0.39884   0.18771   0.00000  Uiso   1.00
H359   H     0.86841   0.58977   0.05595   0.00000  Uiso   1.00
H360   H     0.93463   0.59638   0.04236   0.00000  Uiso   1.00
H361   H     0.92470   0.58826   0.09965   0.00000  Uiso   1.00
H362   H     0.74587   0.40828   0.23561   0.00000  Uiso   1.00
H363   H     0.73640   0.40133   0.29318   0.00000  Uiso   1.00
H364   H     0.67529   0.50196   0.21975   0.00000  Uiso   1.00
H365   H     0.80226   0.40933   0.27936   0.00000  Uiso   1.00
H366   H     0.92552   0.56465   0.30524   0.00000  Uiso   1.00
H367   H     0.95241   0.51710   0.31233   0.00000  Uiso   1.00
H368   H     0.75091   0.42984   0.03085   0.00000  Uiso   1.00
H369   H     0.71523   0.47365   0.02072   0.00000  Uiso   1.00
H370   H     0.68939   0.39693   0.08805   0.00000  Uiso   1.00
H371   H     0.70101   0.36123   0.13420   0.00000  Uiso   1.00
H372   H     0.72847   0.41369   0.14037   0.00000  Uiso   1.00
H373   H     0.86974   0.61837   0.30980   0.00000  Uiso   1.00
H374   H     0.81100   0.61694   0.26888   0.00000  Uiso   1.00
H375   H     0.84525   0.66615   0.28652   0.00000  Uiso   1.00
H376   H     0.69195   0.63024   0.09868   0.00000  Uiso   1.00
N377   N     0.83332   0.49999   0.28573   0.00000  Uiso   1.00
N378   N     0.83335   0.50001   0.04760   0.00000  Uiso   1.00
N379   N     0.91951   0.53309   0.29696   0.00000  Uiso   1.00
N380   N     0.75065   0.46190   0.03716   0.00000  Uiso   1.00
O381   O     0.83333   0.43892   0.20487   0.00000  Uiso   1.00
O382   O     0.88173   0.62721   0.24355   0.00000  Uiso   1.00
O383   O     0.77105   0.62194   0.09501   0.00000  Uiso   1.00
O384   O     0.89631   0.37817   0.23476   0.00000  Uiso   1.00
O385   O     0.91612   0.53584   0.05846   0.00000  Uiso   1.00
O386   O     0.75211   0.46190   0.27494   0.00000  Uiso   1.00
O387   O     0.83334   0.56108   0.12846   0.00000  Uiso   1.00
O388   O     0.83333   0.43893   0.12843   0.00000  Uiso   1.00
O389   O     0.83334   0.56107   0.20490   0.00000  Uiso   1.00
O390   O     0.75725   0.50000   0.19595   0.00000  Uiso   1.00
O391   O     0.90942   0.50000   0.13739   0.00000  Uiso   1.00
O392   O     0.75725   0.50000   0.11950   0.00000  Uiso   1.00
O393   O     0.90942   0.50000   0.21383   0.00000  Uiso   1.00
O394   O     0.76438   0.37399   0.09859   0.00000  Uiso   1.00
Zn395  Zn    0.83333   0.49999   0.21771   0.00000  Uiso   1.00
Zn396  Zn    0.83333   0.50001   0.11563   0.00000  Uiso   1.00
C397   C     0.16635   0.75350   0.16633   0.00000  Uiso   1.00
C398   C     0.19615   0.68933   0.20158   0.00000  Uiso   1.00
C399   C     0.16283   0.95749   0.16789   0.00000  Uiso   1.00
C400   C     0.16490   0.70941   0.16607   0.00000  Uiso   1.00
C401   C     0.20701   0.85220   0.02955   0.00000  Uiso   1.00
C402   C     0.12680   0.81380   0.30384   0.00000  Uiso   1.00
C403   C     0.20771   0.85107   0.31490   0.00000  Uiso   1.00
C404   C     0.12649   0.81439   0.01860   0.00000  Uiso   1.00
C405   C     0.05253   0.72011   0.11651   0.00000  Uiso   1.00
C406   C     0.18355   0.96597   0.27824   0.00000  Uiso   1.00
C407   C     0.05609   0.93986   0.10603   0.00000  Uiso   1.00
C408   C     0.16600   0.91328   0.16702   0.00000  Uiso   1.00
C409   C     0.27936   0.71532   0.22044   0.00000  Uiso   1.00
C410   C     0.24324   0.91257   0.06374   0.00000  Uiso   1.00
C411   C     0.09361   0.75192   0.27119   0.00000  Uiso   1.00
C412   C     0.06712   0.83342   0.15474   0.00000  Uiso   1.00
C413   C     0.26623   0.83343   0.17861   0.00000  Uiso   1.00
C414   C     0.01202   0.83286   0.14836   0.00000  Uiso   1.00
C415   C     0.32134   0.83387   0.18500   0.00000  Uiso   1.00
C416   C     0.13069   0.68728   0.13225   0.00000  Uiso   1.00
C417   C     0.19058   0.98007   0.20507   0.00000  Uiso   1.00
C418   C     0.13163   0.97748   0.13184   0.00000  Uiso   1.00
H419   H     0.32476   0.83135   0.11362   0.00000  Uiso   1.00
H420   H     0.04337   0.91229   0.08383   0.00000  Uiso   1.00
H421   H     0.05844   0.92959   0.14194   0.00000  Uiso   1.00
H422   H     0.30588   0.73390   0.24647   0.00000  Uiso   1.00
H423   H     0.29722   0.68425   0.21734   0.00000  Uiso   1.00
H424   H     0.27700   0.73217   0.18771   0.00000  Uiso   1.00
H425   H     0.20175   0.92311   0.05595   0.00000  Uiso   1.00
H426   H     0.26797   0.92971   0.04236   0.00000  Uiso   1.00
H427   H     0.25803   0.92159   0.09965   0.00000  Uiso   1.00
H428   H     0.07921   0.74161   0.23561   0.00000  Uiso   1.00
H429   H     0.06973   0.73466   0.29318   0.00000  Uiso   1.00
H430   H     0.00862   0.83529   0.21975   0.00000  Uiso   1.00
H431   H     0.13559   0.74267   0.27936   0.00000  Uiso   1.00
H432   H     0.25885   0.89798   0.30524   0.00000  Uiso   1.00
H433   H     0.28575   0.85044   0.31233   0.00000  Uiso   1.00
H434   H     0.08424   0.76318   0.03085   0.00000  Uiso   1.00
H435   H     0.04857   0.80698   0.02072   0.00000  Uiso   1.00
H436   H     0.02272   0.73026   0.08805   0.00000  Uiso   1.00
H437   H     0.03434   0.69456   0.13420   0.00000  Uiso   1.00
H438   H     0.06180   0.74702   0.14037   0.00000  Uiso   1.00
H439   H     0.20308   0.95171   0.30980   0.00000  Uiso   1.00
H440   H     0.14434   0.95027   0.26888   0.00000  Uiso   1.00
H441   H     0.17859   0.99948   0.28652   0.00000  Uiso   1.00
H442   H     0.02528   0.96357   0.09868   0.00000  Uiso   1.00
N443   N     0.16665   0.83332   0.28573   0.00000  Uiso   1.00
N444   N     0.16668   0.83334   0.04760   0.00000  Uiso   1.00
N445   N     0.25284   0.86642   0.29696   0.00000  Uiso   1.00
N446   N     0.08398   0.79524   0.03716   0.00000  Uiso   1.00
O447   O     0.16666   0.77225   0.20487   0.00000  Uiso   1.00
O448   O     0.21507   0.96054   0.24355   0.00000  Uiso   1.00
O449   O     0.10438   0.95527   0.09501   0.00000  Uiso   1.00
O450   O     0.22964   0.71151   0.23476   0.00000  Uiso   1.00
O451   O     0.24945   0.86917   0.05846   0.00000  Uiso   1.00
O452   O     0.08544   0.79523   0.27494   0.00000  Uiso   1.00
O453   O     0.16667   0.89442   0.12846   0.00000  Uiso   1.00
O454   O     0.16666   0.77226   0.12843   0.00000  Uiso   1.00
O455   O     0.16667   0.89441   0.20490   0.00000  Uiso   1.00
O456   O     0.09058   0.83333   0.19595   0.00000  Uiso   1.00
O457   O     0.24275   0.83334   0.13739   0.00000  Uiso   1.00
O458   O     0.09058   0.83334   0.11950   0.00000  Uiso   1.00
O459   O     0.24275   0.83333   0.21383   0.00000  Uiso   1.00
O460   O     0.09771   0.70733   0.09859   0.00000  Uiso   1.00
Zn461  Zn    0.16667   0.83333   0.21771   0.00000  Uiso   1.00
Zn462  Zn    0.16667   0.83334   0.11563   0.00000  Uiso   1.00
C463   C     0.49968   0.75350   0.16633   0.00000  Uiso   1.00
C464   C     0.52948   0.68933   0.20158   0.00000  Uiso   1.00
C465   C     0.49616   0.95749   0.16789   0.00000  Uiso   1.00
C466   C     0.49824   0.70941   0.16607   0.00000  Uiso   1.00
C467   C     0.54034   0.85220   0.02955   0.00000  Uiso   1.00
C468   C     0.46014   0.81380   0.30384   0.00000  Uiso   1.00
C469   C     0.54105   0.85107   0.31490   0.00000  Uiso   1.00
C470   C     0.45982   0.81439   0.01860   0.00000  Uiso   1.00
C471   C     0.38586   0.72011   0.11651   0.00000  Uiso   1.00
C472   C     0.51689   0.96597   0.27824   0.00000  Uiso   1.00
C473   C     0.38942   0.93986   0.10603   0.00000  Uiso   1.00
C474   C     0.49934   0.91328   0.16702   0.00000  Uiso   1.00
C475   C     0.61270   0.71532   0.22044   0.00000  Uiso   1.00
C476   C     0.57657   0.91257   0.06374   0.00000  Uiso   1.00
C477   C     0.42694   0.75192   0.27119   0.00000  Uiso   1.00
C478   C     0.40045   0.83342   0.15474   0.00000  Uiso   1.00
C479   C     0.59956   0.83343   0.17861   0.00000  Uiso   1.00
C480   C     0.34535   0.83286   0.14836   0.00000  Uiso   1.00
C481   C     0.65467   0.83387   0.18500   0.00000  Uiso   1.00
C482   C     0.46402   0.68728   0.13225   0.00000  Uiso   1.00
C483   C     0.52392   0.98007   0.20507   0.00000  Uiso   1.00
C484   C     0.46496   0.97748   0.13184   0.00000  Uiso   1.00
H485   H     0.65810   0.83135   0.11362   0.00000  Uiso   1.00
H486   H     0.37671   0.91229   0.08383   0.00000  Uiso   1.00
H487   H     0.39177   0.92959   0.14194   0.00000  Uiso   1.00
H488   H     0.63922   0.73390   0.24647   0.00000  Uiso   1.00
H489   H     0.63055   0.68425   0.21734   0.00000  Uiso   1.00
H490   H     0.61033   0.73217   0.18771   0.00000  Uiso   1.00
H491   H     0.53508   0.92311   0.05595   0.00000  Uiso   1.00
H492   H     0.60130   0.92971   0.04236   0.00000  Uiso   1.00
H493   H     0.59136   0.92159   0.09965   0.00000  Uiso   1.00
H494   H     0.41254   0.74161   0.23561   0.00000  Uiso   1.00
H495   H     0.40306   0.73466   0.29318   0.00000  Uiso   1.00
H496   H     0.34196   0.83529   0.21975   0.00000  Uiso   1.00
H497   H     0.46892   0.74267   0.27936   0.00000  Uiso   1.00
H498   H     0.59218   0.89798   0.30524   0.00000  Uiso   1.00
H499   H     0.61908   0.85044   0.31233   0.00000  Uiso   1.00
H500   H     0.41757   0.76318   0.03085   0.00000  Uiso   1.00
H501   H     0.38190   0.80698   0.02072   0.00000  Uiso   1.00
H502   H     0.35606   0.73026   0.08805   0.00000  Uiso   1.00
H503   H     0.36768   0.69456   0.13420   0.00000  Uiso   1.00
H504   H     0.39513   0.74702   0.14037   0.00000  Uiso   1.00
H505   H     0.53641   0.95171   0.30980   0.00000  Uiso   1.00
H506   H     0.47767   0.95027   0.26888   0.00000  Uiso   1.00
H507   H     0.51192   0.99948   0.28652   0.00000  Uiso   1.00
H508   H     0.35861   0.96357   0.09868   0.00000  Uiso   1.00
N509   N     0.49999   0.83332   0.28573   0.00000  Uiso   1.00
N510   N     0.50001   0.83334   0.04760   0.00000  Uiso   1.00
N511   N     0.58618   0.86642   0.29696   0.00000  Uiso   1.00
N512   N     0.41731   0.79524   0.03716   0.00000  Uiso   1.00
O513   O     0.50000   0.77225   0.20487   0.00000  Uiso   1.00
O514   O     0.54840   0.96054   0.24355   0.00000  Uiso   1.00
O515   O     0.43771   0.95527   0.09501   0.00000  Uiso   1.00
O516   O     0.56297   0.71151   0.23476   0.00000  Uiso   1.00
O517   O     0.58279   0.86917   0.05846   0.00000  Uiso   1.00
O518   O     0.41878   0.79523   0.27494   0.00000  Uiso   1.00
O519   O     0.50000   0.89442   0.12846   0.00000  Uiso   1.00
O520   O     0.50000   0.77226   0.12843   0.00000  Uiso   1.00
O521   O     0.50000   0.89441   0.20490   0.00000  Uiso   1.00
O522   O     0.42392   0.83333   0.19595   0.00000  Uiso   1.00
O523   O     0.57608   0.83334   0.13739   0.00000  Uiso   1.00
O524   O     0.42392   0.83334   0.11950   0.00000  Uiso   1.00
O525   O     0.57608   0.83333   0.21383   0.00000  Uiso   1.00
O526   O     0.43104   0.70733   0.09859   0.00000  Uiso   1.00
Zn527  Zn    0.50000   0.83333   0.21771   0.00000  Uiso   1.00
Zn528  Zn    0.50000   0.83334   0.11563   0.00000  Uiso   1.00
C529   C     0.83302   0.75350   0.16633   0.00000  Uiso   1.00
C530   C     0.86281   0.68933   0.20158   0.00000  Uiso   1.00
C531   C     0.82950   0.95749   0.16789   0.00000  Uiso   1.00
C532   C     0.83157   0.70941   0.16607   0.00000  Uiso   1.00
C533   C     0.87367   0.85220   0.02955   0.00000  Uiso   1.00
C534   C     0.79347   0.81380   0.30384   0.00000  Uiso   1.00
C535   C     0.87438   0.85107   0.31490   0.00000  Uiso   1.00
C536   C     0.79316   0.81439   0.01860   0.00000  Uiso   1.00
C537   C     0.71919   0.72011   0.11651   0.00000  Uiso   1.00
C538   C     0.85022   0.96597   0.27824   0.00000  Uiso   1.00
C539   C     0.72276   0.93986   0.10603   0.00000  Uiso   1.00
C540   C     0.83267   0.91328   0.16702   0.00000  Uiso   1.00
C541   C     0.94603   0.71532   0.22044   0.00000  Uiso   1.00
C542   C     0.90990   0.91257   0.06374   0.00000  Uiso   1.00
C543   C     0.76027   0.75192   0.27119   0.00000  Uiso   1.00
C544   C     0.73378   0.83342   0.15474   0.00000  Uiso   1.00
C545   C     0.93289   0.83343   0.17861   0.00000  Uiso   1.00
C546   C     0.67868   0.83286   0.14836   0.00000  Uiso   1.00
C547   C     0.98800   0.83387   0.18500   0.00000  Uiso   1.00
C548   C     0.79735   0.68728   0.13225   0.00000  Uiso   1.00
C549   C     0.85725   0.98007   0.20507   0.00000  Uiso   1.00
C550   C     0.79829   0.97748   0.13184   0.00000  Uiso   1.00
H551   H     0.99143   0.83135   0.11362   0.00000  Uiso   1.00
H552   H     0.71004   0.91229   0.08383   0.00000  Uiso   1.00
H553   H     0.72510   0.92959   0.14194   0.00000  Uiso   1.00
H554   H     0.97255   0.73390   0.24647   0.00000  Uiso   1.00
H555   H     0.96389   0.68425   0.21734   0.00000  Uiso   1.00
H556   H     0.94367   0.73217   0.18771   0.00000  Uiso   1.00
H557   H     0.86841   0.92311   0.05595   0.00000  Uiso   1.00
H558   H     0.93463   0.92971   0.04236   0.00000  Uiso   1.00
H559   H     0.92470   0.92159   0.09965   0.00000  Uiso   1.00
H560   H     0.74587   0.74161   0.23561   0.00000  Uiso   1.00
H561   H     0.73640   0.73466   0.29318   0.00000  Uiso   1.00
H562   H     0.67529   0.83529   0.21975   0.00000  Uiso   1.00
H563   H     0.80226   0.74267   0.27936   0.00000  Uiso   1.00
H564   H     0.92552   0.89798   0.30524   0.00000  Uiso   1.00
H565   H     0.95241   0.85044   0.31233   0.00000  Uiso   1.00
H566   H     0.75091   0.76318   0.03085   0.00000  Uiso   1.00
H567   H     0.71523   0.80698   0.02072   0.00000  Uiso   1.00
H568   H     0.68939   0.73026   0.08805   0.00000  Uiso   1.00
H569   H     0.70101   0.69456   0.13420   0.00000  Uiso   1.00
H570   H     0.72847   0.74702   0.14037   0.00000  Uiso   1.00
H571   H     0.86974   0.95171   0.30980   0.00000  Uiso   1.00
H572   H     0.81100   0.95027   0.26888   0.00000  Uiso   1.00
H573   H     0.84525   0.99948   0.28652   0.00000  Uiso   1.00
H574   H     0.69195   0.96357   0.09868   0.00000  Uiso   1.00
N575   N     0.83332   0.83332   0.28573   0.00000  Uiso   1.00
N576   N     0.83335   0.83334   0.04760   0.00000  Uiso   1.00
N577   N     0.91951   0.86642   0.29696   0.00000  Uiso   1.00
N578   N     0.75065   0.79524   0.03716   0.00000  Uiso   1.00
O579   O     0.83333   0.77225   0.20487   0.00000  Uiso   1.00
O580   O     0.88173   0.96054   0.24355   0.00000  Uiso   1.00
O581   O     0.77105   0.95527   0.09501   0.00000  Uiso   1.00
O582   O     0.89631   0.71151   0.23476   0.00000  Uiso   1.00
O583   O     0.91612   0.86917   0.05846   0.00000  Uiso   1.00
O584   O     0.75211   0.79523   0.27494   0.00000  Uiso   1.00
O585   O     0.83334   0.89442   0.12846   0.00000  Uiso   1.00
O586   O     0.83333   0.77226   0.12843   0.00000  Uiso   1.00
O587   O     0.83334   0.89441   0.20490   0.00000  Uiso   1.00
O588   O     0.75725   0.83333   0.19595   0.00000  Uiso   1.00
O589   O     0.90942   0.83334   0.13739   0.00000  Uiso   1.00
O590   O     0.75725   0.83334   0.11950   0.00000  Uiso   1.00
O591   O     0.90942   0.83333   0.21383   0.00000  Uiso   1.00
O592   O     0.76438   0.70733   0.09859   0.00000  Uiso   1.00
Zn593  Zn    0.83333   0.83333   0.21771   0.00000  Uiso   1.00
Zn594  Zn    0.83333   0.83334   0.11563   0.00000  Uiso   1.00
C595   C     0.16635   0.08684   0.49966   0.00000  Uiso   1.00
C596   C     0.19615   0.02267   0.53492   0.00000  Uiso   1.00
C597   C     0.16283   0.29082   0.50123   0.00000  Uiso   1.00
C598   C     0.16490   0.04275   0.49940   0.00000  Uiso   1.00
C599   C     0.20701   0.18553   0.36288   0.00000  Uiso   1.00
C600   C     0.12680   0.14713   0.63717   0.00000  Uiso   1.00
C601   C     0.20771   0.18441   0.64823   0.00000  Uiso   1.00
C602   C     0.12649   0.14772   0.35194   0.00000  Uiso   1.00
C603   C     0.05253   0.05344   0.44984   0.00000  Uiso   1.00
C604   C     0.18355   0.29930   0.61158   0.00000  Uiso   1.00
C605   C     0.05609   0.27319   0.43937   0.00000  Uiso   1.00
C606   C     0.16600   0.24662   0.50035   0.00000  Uiso   1.00
C607   C     0.27936   0.04866   0.55377   0.00000  Uiso   1.00
C608   C     0.24324   0.24590   0.39708   0.00000  Uiso   1.00
C609   C     0.09361   0.08525   0.60453   0.00000  Uiso   1.00
C610   C     0.06712   0.16675   0.48807   0.00000  Uiso   1.00
C611   C     0.26623   0.16677   0.51194   0.00000  Uiso   1.00
C612   C     0.01202   0.16620   0.48170   0.00000  Uiso   1.00
C613   C     0.32134   0.16720   0.51833   0.00000  Uiso   1.00
C614   C     0.13069   0.02062   0.46558   0.00000  Uiso   1.00
C615   C     0.19058   0.31340   0.53840   0.00000  Uiso   1.00
C616   C     0.13163   0.31081   0.46517   0.00000  Uiso   1.00
H617   H     0.32476   0.16468   0.44695   0.00000  Uiso   1.00
H618   H     0.04337   0.24562   0.41716   0.00000  Uiso   1.00
H619   H     0.05844   0.26292   0.47528   0.00000  Uiso   1.00
H620   H     0.30588   0.06723   0.57980   0.00000  Uiso   1.00
H621   H     0.29722   0.01758   0.55068   0.00000  Uiso   1.00
H622   H     0.27700   0.06551   0.52105   0.00000  Uiso   1.00
H623   H     0.20175   0.25644   0.38928   0.00000  Uiso   1.00
H624   H     0.26797   0.26305   0.37569   0.00000  Uiso   1.00
H625   H     0.25803   0.25492   0.43298   0.00000  Uiso   1.00
H626   H     0.07921   0.07495   0.56894   0.00000  Uiso   1.00
H627   H     0.06973   0.06799   0.62652   0.00000  Uiso   1.00
H628   H     0.00862   0.16862   0.55309   0.00000  Uiso   1.00
H629   H     0.13559   0.07600   0.61270   0.00000  Uiso   1.00
H630   H     0.25885   0.23131   0.63857   0.00000  Uiso   1.00
H631   H     0.28575   0.18377   0.64567   0.00000  Uiso   1.00
H632   H     0.08424   0.09651   0.36418   0.00000  Uiso   1.00
H633   H     0.04857   0.14032   0.35406   0.00000  Uiso   1.00
H634   H     0.02272   0.06360   0.42138   0.00000  Uiso   1.00
H635   H     0.03434   0.02790   0.46753   0.00000  Uiso   1.00
H636   H     0.06180   0.08036   0.47371   0.00000  Uiso   1.00
H637   H     0.20308   0.28504   0.64313   0.00000  Uiso   1.00
H638   H     0.14434   0.28360   0.60221   0.00000  Uiso   1.00
H639   H     0.17859   0.33281   0.61985   0.00000  Uiso   1.00
H640   H     0.02528   0.29690   0.43201   0.00000  Uiso   1.00
N641   N     0.16665   0.16666   0.61907   0.00000  Uiso   1.00
N642   N     0.16668   0.16668   0.38093   0.00000  Uiso   1.00
N643   N     0.25284   0.19976   0.63030   0.00000  Uiso   1.00
N644   N     0.08398   0.12857   0.37049   0.00000  Uiso   1.00
O645   O     0.16666   0.10558   0.53821   0.00000  Uiso   1.00
O646   O     0.21507   0.29387   0.57688   0.00000  Uiso   1.00
O647   O     0.10438   0.28861   0.42834   0.00000  Uiso   1.00
O648   O     0.22964   0.04484   0.56809   0.00000  Uiso   1.00
O649   O     0.24945   0.20250   0.39179   0.00000  Uiso   1.00
O650   O     0.08544   0.12856   0.60828   0.00000  Uiso   1.00
O651   O     0.16667   0.22775   0.46179   0.00000  Uiso   1.00
O652   O     0.16666   0.10559   0.46176   0.00000  Uiso   1.00
O653   O     0.16667   0.22774   0.53824   0.00000  Uiso   1.00
O654   O     0.09058   0.16666   0.52928   0.00000  Uiso   1.00
O655   O     0.24275   0.16667   0.47072   0.00000  Uiso   1.00
O656   O     0.09058   0.16667   0.45284   0.00000  Uiso   1.00
O657   O     0.24275   0.16666   0.54716   0.00000  Uiso   1.00
O658   O     0.09771   0.04066   0.43192   0.00000  Uiso   1.00
Zn659  Zn    0.16667   0.16666   0.55104   0.00000  Uiso   1.00
Zn660  Zn    0.16667   0.16667   0.44896   0.00000  Uiso   1.00
C661   C     0.49968   0.08684   0.49966   0.00000  Uiso   1.00
C662   C     0.52948   0.02267   0.53492   0.00000  Uiso   1.00
C663   C     0.49616   0.29082   0.50123   0.00000  Uiso   1.00
C664   C     0.49824   0.04275   0.49940   0.00000  Uiso   1.00
C665   C     0.54034   0.18553   0.36288   0.00000  Uiso   1.00
C666   C     0.46014   0.14713   0.63717   0.00000  Uiso   1.00
C667   C     0.54105   0.18441   0.64823   0.00000  Uiso   1.00
C668   C     0.45982   0.14772   0.35194   0.00000  Uiso   1.00
C669   C     0.38586   0.05344   0.44984   0.00000  Uiso   1.00
C670   C     0.51689   0.29930   0.61158   0.00000  Uiso   1.00
C671   C     0.38942   0.27319   0.43937   0.00000  Uiso   1.00
C672   C     0.49934   0.24662   0.50035   0.00000  Uiso   1.00
C673   C     0.61270   0.04866   0.55377   0.00000  Uiso   1.00
C674   C     0.57657   0.24590   0.39708   0.00000  Uiso   1.00
C675   C     0.42694   0.08525   0.60453   0.00000  Uiso   1.00
C676   C     0.40045   0.16675   0.48807   0.00000  Uiso   1.00
C677   C     0.59956   0.16677   0.51194   0.00000  Uiso   1.00
C678   C     0.34535   0.16620   0.48170   0.00000  Uiso   1.00
C679   C     0.65467   0.16720   0.51833   0.00000  Uiso   1.00
C680   C     0.46402   0.02062   0.46558   0.00000  Uiso   1.00
C681   C     0.52392   0.31340   0.53840   0.00000  Uiso   1.00
C682   C     0.46496   0.31081   0.46517   0.00000  Uiso   1.00
H683   H     0.65810   0.16468   0.44695   0.00000  Uiso   1.00
H684   H     0.37671   0.24562   0.41716   0.00000  Uiso   1.00
H685   H     0.39177   0.26292   0.47528   0.00000  Uiso   1.00
H686   H     0.63922   0.06723   0.57980   0.00000  Uiso   1.00
H687   H     0.63055   0.01758   0.55068   0.00000  Uiso   1.00
H688   H     0.61033   0.06551   0.52105   0.00000  Uiso   1.00
H689   H     0.53508   0.25644   0.38928   0.00000  Uiso   1.00
H690   H     0.60130   0.26305   0.37569   0.00000  Uiso   1.00
H691   H     0.59136   0.25492   0.43298   0.00000  Uiso   1.00
H692   H     0.41254   0.07495   0.56894   0.00000  Uiso   1.00
H693   H     0.40306   0.06799   0.62652   0.00000  Uiso   1.00
H694   H     0.34196   0.16862   0.55309   0.00000  Uiso   1.00
H695   H     0.46892   0.07600   0.61270   0.00000  Uiso   1.00
H696   H     0.59218   0.23131   0.63857   0.00000  Uiso   1.00
H697   H     0.61908   0.18377   0.64567   0.00000  Uiso   1.00
H698   H     0.41757   0.09651   0.36418   0.00000  Uiso   1.00
H699   H     0.38190   0.14032   0.35406   0.00000  Uiso   1.00
H700   H     0.35606   0.06360   0.42138   0.00000  Uiso   1.00
H701   H     0.36768   0.02790   0.46753   0.00000  Uiso   1.00
H702   H     0.39513   0.08036   0.47371   0.00000  Uiso   1.00
H703   H     0.53641   0.28504   0.64313   0.00000  Uiso   1.00
H704   H     0.47767   0.28360   0.60221   0.00000  Uiso   1.00
H705   H     0.51192   0.33281   0.61985   0.00000  Uiso   1.00
H706   H     0.35861   0.29690   0.43201   0.00000  Uiso   1.00
N707   N     0.49999   0.16666   0.61907   0.00000  Uiso   1.00
N708   N     0.50001   0.16668   0.38093   0.00000  Uiso   1.00
N709   N     0.58618   0.19976   0.63030   0.00000  Uiso   1.00
N710   N     0.41731   0.12857   0.37049   0.00000  Uiso   1.00
O711   O     0.50000   0.10558   0.53821   0.00000  Uiso   1.00
O712   O     0.54840   0.29387   0.57688   0.00000  Uiso   1.00
O713   O     0.43771   0.28861   0.42834   0.00000  Uiso   1.00
O714   O     0.56297   0.04484   0.56809   0.00000  Uiso   1.00
O715   O     0.58279   0.20250   0.39179   0.00000  Uiso   1.00
O716   O     0.41878   0.12856   0.60828   0.00000  Uiso   1.00
O717   O     0.50000   0.22775   0.46179   0.00000  Uiso   1.00
O718   O     0.50000   0.10559   0.46176   0.00000  Uiso   1.00
O719   O     0.50000   0.22774   0.53824   0.00000  Uiso   1.00
O720   O     0.42392   0.16666   0.52928   0.00000  Uiso   1.00
O721   O     0.57608   0.16667   0.47072   0.00000  Uiso   1.00
O722   O     0.42392   0.16667   0.45284   0.00000  Uiso   1.00
O723   O     0.57608   0.16666   0.54716   0.00000  Uiso   1.00
O724   O     0.43104   0.04066   0.43192   0.00000  Uiso   1.00
Zn725  Zn    0.50000   0.16666   0.55104   0.00000  Uiso   1.00
Zn726  Zn    0.50000   0.16667   0.44896   0.00000  Uiso   1.00
C727   C     0.83302   0.08684   0.49966   0.00000  Uiso   1.00
C728   C     0.86281   0.02267   0.53492   0.00000  Uiso   1.00
C729   C     0.82950   0.29082   0.50123   0.00000  Uiso   1.00
C730   C     0.83157   0.04275   0.49940   0.00000  Uiso   1.00
C731   C     0.87367   0.18553   0.36288   0.00000  Uiso   1.00
C732   C     0.79347   0.14713   0.63717   0.00000  Uiso   1.00
C733   C     0.87438   0.18441   0.64823   0.00000  Uiso   1.00
C734   C     0.79316   0.14772   0.35194   0.00000  Uiso   1.00
C735   C     0.71919   0.05344   0.44984   0.00000  Uiso   1.00
C736   C     0.85022   0.29930   0.61158   0.00000  Uiso   1.00
C737   C     0.72276   0.27319   0.43937   0.00000  Uiso   1.00
C738   C     0.83267   0.24662   0.50035   0.00000  Uiso   1.00
C739   C     0.94603   0.04866   0.55377   0.00000  Uiso   1.00
C740   C     0.90990   0.24590   0.39708   0.00000  Uiso   1.00
C741   C     0.76027   0.08525   0.60453   0.00000  Uiso   1.00
C742   C     0.73378   0.16675   0.48807   0.00000  Uiso   1.00
C743   C     0.93289   0.16677   0.51194   0.00000  Uiso   1.00
C744   C     0.67868   0.16620   0.48170   0.00000  Uiso   1.00
C745   C     0.98800   0.16720   0.51833   0.00000  Uiso   1.00
C746   C     0.79735   0.02062   0.46558   0.00000  Uiso   1.00
C747   C     0.85725   0.31340   0.53840   0.00000  Uiso   1.00
C748   C     0.79829   0.31081   0.46517   0.00000  Uiso   1.00
H749   H     0.99143   0.16468   0.44695   0.00000  Uiso   1.00
H750   H     0.71004   0.24562   0.41716   0.00000  Uiso   1.00
H751   H     0.72510   0.26292   0.47528   0.00000  Uiso   1.00
H752   H     0.97255   0.06723   0.57980   0.00000  Uiso   1.00
H753   H     0.96389   0.01758   0.55068   0.00000  Uiso   1.00
H754   H     0.94367   0.06551   0.52105   0.00000  Uiso   1.00
H755   H     0.86841   0.25644   0.38928   0.00000  Uiso   1.00
H756   H     0.93463   0.26305   0.37569   0.00000  Uiso   1.00
H757   H     0.92470   0.25492   0.43298   0.00000  Uiso   1.00
H758   H     0.74587   0.07495   0.56894   0.00000  Uiso   1.00
H759   H     0.73640   0.06799   0.62652   0.00000  Uiso   1.00
H760   H     0.67529   0.16862   0.55309   0.00000  Uiso   1.00
H761   H     0.80226   0.07600   0.61270   0.00000  Uiso   1.00
H762   H     0.92552   0.23131   0.63857   0.00000  Uiso   1.00
H763   H     0.95241   0.18377   0.64567   0.00000  Uiso   1.00
H764   H     0.75091   0.09651   0.36418   0.00000  Uiso   1.00
H765   H     0.71523   0.14032   0.35406   0.00000  Uiso   1.00
H766   H     0.68939   0.06360   0.42138   0.00000  Uiso   1.00
H767   H     0.70101   0.02790   0.46753   0.00000  Uiso   1.00
H768   H     0.72847   0.08036   0.47371   0.00000  Uiso   1.00
H769   H     0.86974   0.28504   0.64313   0.00000  Uiso   1.00
H770   H     0.81100   0.28360   0.60221   0.00000  Uiso   1.00
H771   H     0.84525   0.33281   0.61985   0.00000  Uiso   1.00
H772   H     0.69195   0.29690   0.43201   0.00000  Uiso   1.00
N773   N     0.83332   0.16666   0.61907   0.00000  Uiso   1.00
N774   N     0.83335   0.16668   0.38093   0.00000  Uiso   1.00
N775   N     0.91951   0.19976   0.63030   0.00000  Uiso   1.00
N776   N     0.75065   0.12857   0.37049   0.00000  Uiso   1.00
O777   O     0.83333   0.10558   0.53821   0.00000  Uiso   1.00
O778   O     0.88173   0.29387   0.57688   0.00000  Uiso   1.00
O779   O     0.77105   0.28861   0.42834   0.00000  Uiso   1.00
O780   O     0.89631   0.04484   0.56809   0.00000  Uiso   1.00
O781   O     0.91612   0.20250   0.39179   0.00000  Uiso   1.00
O782   O     0.75211   0.12856   0.60828   0.00000  Uiso   1.00
O783   O     0.83334   0.22775   0.46179   0.00000  Uiso   1.00
O784   O     0.83333   0.10559   0.46176   0.00000  Uiso   1.00
O785   O     0.83334   0.22774   0.53824   0.00000  Uiso   1.00
O786   O     0.75725   0.16666   0.52928   0.00000  Uiso   1.00
O787   O     0.90942   0.16667   0.47072   0.00000  Uiso   1.00
O788   O     0.75725   0.16667   0.45284   0.00000  Uiso   1.00
O789   O     0.90942   0.16666   0.54716   0.00000  Uiso   1.00
O790   O     0.76438   0.04066   0.43192   0.00000  Uiso   1.00
Zn791  Zn    0.83333   0.16666   0.55104   0.00000  Uiso   1.00
Zn792  Zn    0.83333   0.16667   0.44896   0.00000  Uiso   1.00
C793   C     0.16635   0.42017   0.49966   0.00000  Uiso   1.00
C794   C     0.19615   0.35600   0.53492   0.00000  Uiso   1.00
C795   C     0.16283   0.62416   0.50123   0.00000  Uiso   1.00
C796   C     0.16490   0.37608   0.49940   0.00000  Uiso   1.00
C797   C     0.20701   0.51887   0.36288   0.00000  Uiso   1.00
C798   C     0.12680   0.48047   0.63717   0.00000  Uiso   1.00
C799   C     0.20771   0.51774   0.64823   0.00000  Uiso   1.00
C800   C     0.12649   0.48106   0.35194   0.00000  Uiso   1.00
C801   C     0.05253   0.38678   0.44984   0.00000  Uiso   1.00
C802   C     0.18355   0.63264   0.61158   0.00000  Uiso   1.00
C803   C     0.05609   0.60653   0.43937   0.00000  Uiso   1.00
C804   C     0.16600   0.57995   0.50035   0.00000  Uiso   1.00
C805   C     0.27936   0.38199   0.55377   0.00000  Uiso   1.00
C806   C     0.24324   0.57923   0.39708   0.00000  Uiso   1.00
C807   C     0.09361   0.41858   0.60453   0.00000  Uiso   1.00
C808   C     0.06712   0.50008   0.48807   0.00000  Uiso   1.00
C809   C     0.26623   0.50010   0.51194   0.00000  Uiso   1.00
C810   C     0.01202   0.49953   0.48170   0.00000  Uiso   1.00
C811   C     0.32134   0.50054   0.51833   0.00000  Uiso   1.00
C812   C     0.13069   0.35395   0.46558   0.00000  Uiso   1.00
C813   C     0.19058   0.64674   0.53840   0.00000  Uiso   1.00
C814   C     0.13163   0.64415   0.46517   0.00000  Uiso   1.00
H815   H     0.32476   0.49801   0.44695   0.00000  Uiso   1.00
H816   H     0.04337   0.57896   0.41716   0.00000  Uiso   1.00
H817   H     0.05844   0.59626   0.47528   0.00000  Uiso   1.00
H818   H     0.30588   0.40056   0.57980   0.00000  Uiso   1.00
H819   H     0.29722   0.35092   0.55068   0.00000  Uiso   1.00
H820   H     0.27700   0.39884   0.52105   0.00000  Uiso   1.00
H821   H     0.20175   0.58977   0.38928   0.00000  Uiso   1.00
H822   H     0.26797   0.59638   0.37569   0.00000  Uiso   1.00
H823   H     0.25803   0.58826   0.43298   0.00000  Uiso   1.00
H824   H     0.07921   0.40828   0.56894   0.00000  Uiso   1.00
H825   H     0.06973   0.40133   0.62652   0.00000  Uiso   1.00
H826   H     0.00862   0.50196   0.55309   0.00000  Uiso   1.00
H827   H     0.13559   0.40933   0.61270   0.00000  Uiso   1.00
H828   H     0.25885   0.56465   0.63857   0.00000  Uiso   1.00
H829   H     0.28575   0.51710   0.64567   0.00000  Uiso   1.00
H830   H     0.08424   0.42984   0.36418   0.00000  Uiso   1.00
H831   H     0.04857   0.47365   0.35406   0.00000  Uiso   1.00
H832   H     0.02272   0.39693   0.42138   0.00000  Uiso   1.00
H833   H     0.03434   0.36123   0.46753   0.00000  Uiso   1.00
H834   H     0.06180   0.41369   0.47371   0.00000  Uiso   1.00
H835   H     0.20308   0.61837   0.64313   0.00000  Uiso   1.00
H836   H     0.14434   0.61694   0.60221   0.00000  Uiso   1.00
H837   H     0.17859   0.66615   0.61985   0.00000  Uiso   1.00
H838   H     0.02528   0.63024   0.43201   0.00000  Uiso   1.00
N839   N     0.16665   0.49999   0.61907   0.00000  Uiso   1.00
N840   N     0.16668   0.50001   0.38093   0.00000  Uiso   1.00
N841   N     0.25284   0.53309   0.63030   0.00000  Uiso   1.00
N842   N     0.08398   0.46190   0.37049   0.00000  Uiso   1.00
O843   O     0.16666   0.43892   0.53821   0.00000  Uiso   1.00
O844   O     0.21507   0.62721   0.57688   0.00000  Uiso   1.00
O845   O     0.10438   0.62194   0.42834   0.00000  Uiso   1.00
O846   O     0.22964   0.37817   0.56809   0.00000  Uiso   1.00
O847   O     0.24945   0.53584   0.39179   0.00000  Uiso   1.00
O848   O     0.08544   0.46190   0.60828   0.00000  Uiso   1.00
O849   O     0.16667   0.56108   0.46179   0.00000  Uiso   1.00
O850   O     0.16666   0.43893   0.46176   0.00000  Uiso   1.00
O851   O     0.16667   0.56107   0.53824   0.00000  Uiso   1.00
O852   O     0.09058   0.50000   0.52928   0.00000  Uiso   1.00
O853   O     0.24275   0.50000   0.47072   0.00000  Uiso   1.00
O854   O     0.09058   0.50000   0.45284   0.00000  Uiso   1.00
O855   O     0.24275   0.50000   0.54716   0.00000  Uiso   1.00
O856   O     0.09771   0.37399   0.43192   0.00000  Uiso   1.00
Zn857  Zn    0.16667   0.49999   0.55104   0.00000  Uiso   1.00
Zn858  Zn    0.16667   0.50001   0.44896   0.00000  Uiso   1.00
C859   C     0.49968   0.42017   0.49966   0.00000  Uiso   1.00
C860   C     0.52948   0.35600   0.53492   0.00000  Uiso   1.00
C861   C     0.49616   0.62416   0.50123   0.00000  Uiso   1.00
C862   C     0.49824   0.37608   0.49940   0.00000  Uiso   1.00
C863   C     0.54034   0.51887   0.36288   0.00000  Uiso   1.00
C864   C     0.46014   0.48047   0.63717   0.00000  Uiso   1.00
C865   C     0.54105   0.51774   0.64823   0.00000  Uiso   1.00
C866   C     0.45982   0.48106   0.35194   0.00000  Uiso   1.00
C867   C     0.38586   0.38678   0.44984   0.00000  Uiso   1.00
C868   C     0.51689   0.63264   0.61158   0.00000  Uiso   1.00
C869   C     0.38942   0.60653   0.43937   0.00000  Uiso   1.00
C870   C     0.49934   0.57995   0.50035   0.00000  Uiso   1.00
C871   C     0.61270   0.38199   0.55377   0.00000  Uiso   1.00
C872   C     0.57657   0.57923   0.39708   0.00000  Uiso   1.00
C873   C     0.42694   0.41858   0.60453   0.00000  Uiso   1.00
C874   C     0.40045   0.50008   0.48807   0.00000  Uiso   1.00
C875   C     0.59956   0.50010   0.51194   0.00000  Uiso   1.00
C876   C     0.34535   0.49953   0.48170   0.00000  Uiso   1.00
C877   C     0.65467   0.50054   0.51833   0.00000  Uiso   1.00
C878   C     0.46402   0.35395   0.46558   0.00000  Uiso   1.00
C879   C     0.52392   0.64674   0.53840   0.00000  Uiso   1.00
C880   C     0.46496   0.64415   0.46517   0.00000  Uiso   1.00
H881   H     0.65810   0.49801   0.44695   0.00000  Uiso   1.00
H882   H     0.37671   0.57896   0.41716   0.00000  Uiso   1.00
H883   H     0.39177   0.59626   0.47528   0.00000  Uiso   1.00
H884   H     0.63922   0.40056   0.57980   0.00000  Uiso   1.00
H885   H     0.63055   0.35092   0.55068   0.00000  Uiso   1.00
H886   H     0.61033   0.39884   0.52105   0.00000  Uiso   1.00
H887   H     0.53508   0.58977   0.38928   0.00000  Uiso   1.00
H888   H     0.60130   0.59638   0.37569   0.00000  Uiso   1.00
H889   H     0.59136   0.58826   0.43298   0.00000  Uiso   1.00
H890   H     0.41254   0.40828   0.56894   0.00000  Uiso   1.00
H891   H     0.40306   0.40133   0.62652   0.00000  Uiso   1.00
H892   H     0.34196   0.50196   0.55309   0.00000  Uiso   1.00
H893   H     0.46892   0.40933   0.61270   0.00000  Uiso   1.00
H894   H     0.59218   0.56465   0.63857   0.00000  Uiso   1.00
H895   H     0.61908   0.51710   0.64567   0.00000  Uiso   1.00
H896   H     0.41757   0.42984   0.36418   0.00000  Uiso   1.00
H897   H     0.38190   0.47365   0.35406   0.00000  Uiso   1.00
H898   H     0.35606   0.39693   0.42138   0.00000  Uiso   1.00
H899   H     0.36768   0.36123   0.46753   0.00000  Uiso   1.00
H900   H     0.39513   0.41369   0.47371   0.00000  Uiso   1.00
H901   H     0.53641   0.61837   0.64313   0.00000  Uiso   1.00
H902   H     0.47767   0.61694   0.60221   0.00000  Uiso   1.00
H903   H     0.51192   0.66615   0.61985   0.00000  Uiso   1.00
H904   H     0.35861   0.63024   0.43201   0.00000  Uiso   1.00
N905   N     0.49999   0.49999   0.61907   0.00000  Uiso   1.00
N906   N     0.50001   0.50001   0.38093   0.00000  Uiso   1.00
N907   N     0.58618   0.53309   0.63030   0.00000  Uiso   1.00
N908   N     0.41731   0.46190   0.37049   0.00000  Uiso   1.00
O909   O     0.50000   0.43892   0.53821   0.00000  Uiso   1.00
O910   O     0.54840   0.62721   0.57688   0.00000  Uiso   1.00
O911   O     0.43771   0.62194   0.42834   0.00000  Uiso   1.00
O912   O     0.56297   0.37817   0.56809   0.00000  Uiso   1.00
O913   O     0.58279   0.53584   0.39179   0.00000  Uiso   1.00
O914   O     0.41878   0.46190   0.60828   0.00000  Uiso   1.00
O915   O     0.50000   0.56108   0.46179   0.00000  Uiso   1.00
O916   O     0.50000   0.43893   0.46176   0.00000  Uiso   1.00
O917   O     0.50000   0.56107   0.53824   0.00000  Uiso   1.00
O918   O     0.42392   0.50000   0.52928   0.00000  Uiso   1.00
O919   O     0.57608   0.50000   0.47072   0.00000  Uiso   1.00
O920   O     0.42392   0.50000   0.45284   0.00000  Uiso   1.00
O921   O     0.57608   0.50000   0.54716   0.00000  Uiso   1.00
O922   O     0.43104   0.37399   0.43192   0.00000  Uiso   1.00
Zn923  Zn    0.50000   0.49999   0.55104   0.00000  Uiso   1.00
Zn924  Zn    0.50000   0.50001   0.44896   0.00000  Uiso   1.00
C925   C     0.83302   0.42017   0.49966   0.00000  Uiso   1.00
C926   C     0.86281   0.35600   0.53492   0.00000  Uiso   1.00
C927   C     0.82950   0.62416   0.50123   0.00000  Uiso   1.00
C928   C     0.83157   0.37608   0.49940   0.00000  Uiso   1.00
C929   C     0.87367   0.51887   0.36288   0.00000  Uiso   1.00
C930   C     0.79347   0.48047   0.63717   0.00000  Uiso   1.00
C931   C     0.87438   0.51774   0.64823   0.00000  Uiso   1.00
C932   C     0.79316   0.48106   0.35194   0.00000  Uiso   1.00
C933   C     0.71919   0.38678   0.44984   0.00000  Uiso   1.00
C934   C     0.85022   0.63264   0.61158   0.00000  Uiso   1.00
C935   C     0.72276   0.60653   0.43937   0.00000  Uiso   1.00
C936   C     0.83267   0.57995   0.50035   0.00000  Uiso   1.00
C937   C     0.94603   0.38199   0.55377   0.00000  Uiso   1.00
C938   C     0.90990   0.57923   0.39708   0.00000  Uiso   1.00
C939   C     0.76027   0.41858   0.60453   0.00000  Uiso   1.00
C940   C     0.73378   0.50008   0.48807   0.00000  Uiso   1.00
C941   C     0.93289   0.50010   0.51194   0.00000  Uiso   1.00
C942   C     0.67868   0.49953   0.48170   0.00000  Uiso   1.00
C943   C     0.98800   0.50054   0.51833   0.00000  Uiso   1.00
C944   C     0.79735   0.35395   0.46558   0.00000  Uiso   1.00
C945   C     0.85725   0.64674   0.53840   0.00000  Uiso   1.00
C946   C     0.79829   0.64415   0.46517   0.00000  Uiso   1.00
H947   H     0.99143   0.49801   0.44695   0.00000  Uiso   1.00
H948   H     0.71004   0.57896   0.41716   0.00000  Uiso   1.00
H949   H     0.72510   0.59626   0.47528   0.00000  Uiso   1.00
H950   H     0.97255   0.40056   0.57980   0.00000  Uiso   1.00
H951   H     0.96389   0.35092   0.55068   0.00000  Uiso   1.00
H952   H     0.94367   0.39884   0.52105   0.00000  Uiso   1.00
H953   H     0.86841   0.58977   0.38928   0.00000  Uiso   1.00
H954   H     0.93463   0.59638   0.37569   0.00000  Uiso   1.00
H955   H     0.92470   0.58826   0.43298   0.00000  Uiso   1.00
H956   H     0.74587   0.40828   0.56894   0.00000  Uiso   1.00
H957   H     0.73640   0.40133   0.62652   0.00000  Uiso   1.00
H958   H     0.67529   0.50196   0.55309   0.00000  Uiso   1.00
H959   H     0.80226   0.40933   0.61270   0.00000  Uiso   1.00
H960   H     0.92552   0.56465   0.63857   0.00000  Uiso   1.00
H961   H     0.95241   0.51710   0.64567   0.00000  Uiso   1.00
H962   H     0.75091   0.42984   0.36418   0.00000  Uiso   1.00
H963   H     0.71523   0.47365   0.35406   0.00000  Uiso   1.00
H964   H     0.68939   0.39693   0.42138   0.00000  Uiso   1.00
H965   H     0.70101   0.36123   0.46753   0.00000  Uiso   1.00
H966   H     0.72847   0.41369   0.47371   0.00000  Uiso   1.00
H967   H     0.86974   0.61837   0.64313   0.00000  Uiso   1.00
H968   H     0.81100   0.61694   0.60221   0.00000  Uiso   1.00
H969   H     0.84525   0.66615   0.61985   0.00000  Uiso   1.00
H970   H     0.69195   0.63024   0.43201   0.00000  Uiso   1.00
N971   N     0.83332   0.49999   0.61907   0.00000  Uiso   1.00
N972   N     0.83335   0.50001   0.38093   0.00000  Uiso   1.00
N973   N     0.91951   0.53309   0.63030   0.00000  Uiso   1.00
N974   N     0.75065   0.46190   0.37049   0.00000  Uiso   1.00
O975   O     0.83333   0.43892   0.53821   0.00000  Uiso   1.00
O976   O     0.88173   0.62721   0.57688   0.00000  Uiso   1.00
O977   O     0.77105   0.62194   0.42834   0.00000  Uiso   1.00
O978   O     0.89631   0.37817   0.56809   0.00000  Uiso   1.00
O979   O     0.91612   0.53584   0.39179   0.00000  Uiso   1.00
O980   O     0.75211   0.46190   0.60828   0.00000  Uiso   1.00
O981   O     0.83334   0.56108   0.46179   0.00000  Uiso   1.00
O982   O     0.83333   0.43893   0.46176   0.00000  Uiso   1.00
O983   O     0.83334   0.56107   0.53824   0.00000  Uiso   1.00
O984   O     0.75725   0.50000   0.52928   0.00000  Uiso   1.00
O985   O     0.90942   0.50000   0.47072   0.00000  Uiso   1.00
O986   O     0.75725   0.50000   0.45284   0.00000  Uiso   1.00
O987   O     0.90942   0.50000   0.54716   0.00000  Uiso   1.00
O988   O     0.76438   0.37399   0.43192   0.00000  Uiso   1.00
Zn989  Zn    0.83333   0.49999   0.55104   0.00000  Uiso   1.00
Zn990  Zn    0.83333   0.50001   0.44896   0.00000  Uiso   1.00
C991   C     0.16635   0.75350   0.49966   0.00000  Uiso   1.00
C992   C     0.19615   0.68933   0.53492   0.00000  Uiso   1.00
C993   C     0.16283   0.95749   0.50123   0.00000  Uiso   1.00
C994   C     0.16490   0.70941   0.49940   0.00000  Uiso   1.00
C995   C     0.20701   0.85220   0.36288   0.00000  Uiso   1.00
C996   C     0.12680   0.81380   0.63717   0.00000  Uiso   1.00
C997   C     0.20771   0.85107   0.64823   0.00000  Uiso   1.00
C998   C     0.12649   0.81439   0.35194   0.00000  Uiso   1.00
C999   C     0.05253   0.72011   0.44984   0.00000  Uiso   1.00
C1000  C     0.18355   0.96597   0.61158   0.00000  Uiso   1.00
C1001  C     0.05609   0.93986   0.43937   0.00000  Uiso   1.00
C1002  C     0.16600   0.91328   0.50035   0.00000  Uiso   1.00
C1003  C     0.27936   0.71532   0.55377   0.00000  Uiso   1.00
C1004  C     0.24324   0.91257   0.39708   0.00000  Uiso   1.00
C1005  C     0.09361   0.75192   0.60453   0.00000  Uiso   1.00
C1006  C     0.06712   0.83342   0.48807   0.00000  Uiso   1.00
C1007  C     0.26623   0.83343   0.51194   0.00000  Uiso   1.00
C1008  C     0.01202   0.83286   0.48170   0.00000  Uiso   1.00
C1009  C     0.32134   0.83387   0.51833   0.00000  Uiso   1.00
C1010  C     0.13069   0.68728   0.46558   0.00000  Uiso   1.00
C1011  C     0.19058   0.98007   0.53840   0.00000  Uiso   1.00
C1012  C     0.13163   0.97748   0.46517   0.00000  Uiso   1.00
H1013  H     0.32476   0.83135   0.44695   0.00000  Uiso   1.00
H1014  H     0.04337   0.91229   0.41716   0.00000  Uiso   1.00
H1015  H     0.05844   0.92959   0.47528   0.00000  Uiso   1.00
H1016  H     0.30588   0.73390   0.57980   0.00000  Uiso   1.00
H1017  H     0.29722   0.68425   0.55068   0.00000  Uiso   1.00
H1018  H     0.27700   0.73217   0.52105   0.00000  Uiso   1.00
H1019  H     0.20175   0.92311   0.38928   0.00000  Uiso   1.00
H1020  H     0.26797   0.92971   0.37569   0.00000  Uiso   1.00
H1021  H     0.25803   0.92159   0.43298   0.00000  Uiso   1.00
H1022  H     0.07921   0.74161   0.56894   0.00000  Uiso   1.00
H1023  H     0.06973   0.73466   0.62652   0.00000  Uiso   1.00
H1024  H     0.00862   0.83529   0.55309   0.00000  Uiso   1.00
H1025  H     0.13559   0.74267   0.61270   0.00000  Uiso   1.00
H1026  H     0.25885   0.89798   0.63857   0.00000  Uiso   1.00
H1027  H     0.28575   0.85044   0.64567   0.00000  Uiso   1.00
H1028  H     0.08424   0.76318   0.36418   0.00000  Uiso   1.00
H1029  H     0.04857   0.80698   0.35406   0.00000  Uiso   1.00
H1030  H     0.02272   0.73026   0.42138   0.00000  Uiso   1.00
H1031  H     0.03434   0.69456   0.46753   0.00000  Uiso   1.00
H1032  H     0.06180   0.74702   0.47371   0.00000  Uiso   1.00
H1033  H     0.20308   0.95171   0.64313   0.00000  Uiso   1.00
H1034  H     0.14434   0.95027   0.60221   0.00000  Uiso   1.00
H1035  H     0.17859   0.99948   0.61985   0.00000  Uiso   1.00
H1036  H     0.02528   0.96357   0.43201   0.00000  Uiso   1.00
N1037  N     0.16665   0.83332   0.61907   0.00000  Uiso   1.00
N1038  N     0.16668   0.83334   0.38093   0.00000  Uiso   1.00
N1039  N     0.25284   0.86642   0.63030   0.00000  Uiso   1.00
N1040  N     0.08398   0.79524   0.37049   0.00000  Uiso   1.00
O1041  O     0.16666   0.77225   0.53821   0.00000  Uiso   1.00
O1042  O     0.21507   0.96054   0.57688   0.00000  Uiso   1.00
O1043  O     0.10438   0.95527   0.42834   0.00000  Uiso   1.00
O1044  O     0.22964   0.71151   0.56809   0.00000  Uiso   1.00
O1045  O     0.24945   0.86917   0.39179   0.00000  Uiso   1.00
O1046  O     0.08544   0.79523   0.60828   0.00000  Uiso   1.00
O1047  O     0.16667   0.89442   0.46179   0.00000  Uiso   1.00
O1048  O     0.16666   0.77226   0.46176   0.00000  Uiso   1.00
O1049  O     0.16667   0.89441   0.53824   0.00000  Uiso   1.00
O1050  O     0.09058   0.83333   0.52928   0.00000  Uiso   1.00
O1051  O     0.24275   0.83334   0.47072   0.00000  Uiso   1.00
O1052  O     0.09058   0.83334   0.45284   0.00000  Uiso   1.00
O1053  O     0.24275   0.83333   0.54716   0.00000  Uiso   1.00
O1054  O     0.09771   0.70733   0.43192   0.00000  Uiso   1.00
Zn1055 Zn    0.16667   0.83333   0.55104   0.00000  Uiso   1.00
Zn1056 Zn    0.16667   0.83334   0.44896   0.00000  Uiso   1.00
C1057  C     0.49968   0.75350   0.49966   0.00000  Uiso   1.00
C1058  C     0.52948   0.68933   0.53492   0.00000  Uiso   1.00
C1059  C     0.49616   0.95749   0.50123   0.00000  Uiso   1.00
C1060  C     0.49824   0.70941   0.49940   0.00000  Uiso   1.00
C1061  C     0.54034   0.85220   0.36288   0.00000  Uiso   1.00
C1062  C     0.46014   0.81380   0.63717   0.00000  Uiso   1.00
C1063  C     0.54105   0.85107   0.64823   0.00000  Uiso   1.00
C1064  C     0.45982   0.81439   0.35194   0.00000  Uiso   1.00
C1065  C     0.38586   0.72011   0.44984   0.00000  Uiso   1.00
C1066  C     0.51689   0.96597   0.61158   0.00000  Uiso   1.00
C1067  C     0.38942   0.93986   0.43937   0.00000  Uiso   1.00
C1068  C     0.49934   0.91328   0.50035   0.00000  Uiso   1.00
C1069  C     0.61270   0.71532   0.55377   0.00000  Uiso   1.00
C1070  C     0.57657   0.91257   0.39708   0.00000  Uiso   1.00
C1071  C     0.42694   0.75192   0.60453   0.00000  Uiso   1.00
C1072  C     0.40045   0.83342   0.48807   0.00000  Uiso   1.00
C1073  C     0.59956   0.83343   0.51194   0.00000  Uiso   1.00
C1074  C     0.34535   0.83286   0.48170   0.00000  Uiso   1.00
C1075  C     0.65467   0.83387   0.51833   0.00000  Uiso   1.00
C1076  C     0.46402   0.68728   0.46558   0.00000  Uiso   1.00
C1077  C     0.52392   0.98007   0.53840   0.00000  Uiso   1.00
C1078  C     0.46496   0.97748   0.46517   0.00000  Uiso   1.00
H1079  H     0.65810   0.83135   0.44695   0.00000  Uiso   1.00
H1080  H     0.37671   0.91229   0.41716   0.00000  Uiso   1.00
H1081  H     0.39177   0.92959   0.47528   0.00000  Uiso   1.00
H1082  H     0.63922   0.73390   0.57980   0.00000  Uiso   1.00
H1083  H     0.63055   0.68425   0.55068   0.00000  Uiso   1.00
H1084  H     0.61033   0.73217   0.52105   0.00000  Uiso   1.00
H1085  H     0.53508   0.92311   0.38928   0.00000  Uiso   1.00
H1086  H     0.60130   0.92971   0.37569   0.00000  Uiso   1.00
H1087  H     0.59136   0.92159   0.43298   0.00000  Uiso   1.00
H1088  H     0.41254   0.74161   0.56894   0.00000  Uiso   1.00
H1089  H     0.40306   0.73466   0.62652   0.00000  Uiso   1.00
H1090  H     0.34196   0.83529   0.55309   0.00000  Uiso   1.00
H1091  H     0.46892   0.74267   0.61270   0.00000  Uiso   1.00
H1092  H     0.59218   0.89798   0.63857   0.00000  Uiso   1.00
H1093  H     0.61908   0.85044   0.64567   0.00000  Uiso   1.00
H1094  H     0.41757   0.76318   0.36418   0.00000  Uiso   1.00
H1095  H     0.38190   0.80698   0.35406   0.00000  Uiso   1.00
H1096  H     0.35606   0.73026   0.42138   0.00000  Uiso   1.00
H1097  H     0.36768   0.69456   0.46753   0.00000  Uiso   1.00
H1098  H     0.39513   0.74702   0.47371   0.00000  Uiso   1.00
H1099  H     0.53641   0.95171   0.64313   0.00000  Uiso   1.00
H1100  H     0.47767   0.95027   0.60221   0.00000  Uiso   1.00
H1101  H     0.51192   0.99948   0.61985   0.00000  Uiso   1.00
H1102  H     0.35861   0.96357   0.43201   0.00000  Uiso   1.00
N1103  N     0.49999   0.83332   0.61907   0.00000  Uiso   1.00
N1104  N     0.50001   0.83334   0.38093   0.00000  Uiso   1.00
N1105  N     0.58618   0.86642   0.63030   0.00000  Uiso   1.00
N1106  N     0.41731   0.79524   0.37049   0.00000  Uiso   1.00
O1107  O     0.50000   0.77225   0.53821   0.00000  Uiso   1.00
O1108  O     0.54840   0.96054   0.57688   0.00000  Uiso   1.00
O1109  O     0.43771   0.95527   0.42834   0.00000  Uiso   1.00
O1110  O     0.56297   0.71151   0.56809   0.00000  Uiso   1.00
O1111  O     0.58279   0.86917   0.39179   0.00000  Uiso   1.00
O1112  O     0.41878   0.79523   0.60828   0.00000  Uiso   1.00
O1113  O     0.50000   0.89442   0.46179   0.00000  Uiso   1.00
O1114  O     0.50000   0.77226   0.46176   0.00000  Uiso   1.00
O1115  O     0.50000   0.89441   0.53824   0.00000  Uiso   1.00
O1116  O     0.42392   0.83333   0.52928   0.00000  Uiso   1.00
O1117  O     0.57608   0.83334   0.47072   0.00000  Uiso   1.00
O1118  O     0.42392   0.83334   0.45284   0.00000  Uiso   1.00
O1119  O     0.57608   0.83333   0.54716   0.00000  Uiso   1.00
O1120  O     0.43104   0.70733   0.43192   0.00000  Uiso   1.00
Zn1121 Zn    0.50000   0.83333   0.55104   0.00000  Uiso   1.00
Zn1122 Zn    0.50000   0.83334   0.44896   0.00000  Uiso   1.00
C1123  C     0.83302   0.75350   0.49966   0.00000  Uiso   1.00
C1124  C     0.86281   0.68933   0.53492   0.00000  Uiso   1.00
C1125  C     0.82950   0.95749   0.50123   0.00000  Uiso   1.00
C1126  C     0.83157   0.70941   0.49940   0.00000  Uiso   1.00
C1127  C     0.87367   0.85220   0.36288   0.00000  Uiso   1.00
C1128  C     0.79347   0.81380   0.63717   0.00000  Uiso   1.00
C1129  C     0.87438   0.85107   0.64823   0.00000  Uiso   1.00
C1130  C     0.79316   0.81439   0.35194   0.00000  Uiso   1.00
C1131  C     0.71919   0.72011   0.44984   0.00000  Uiso   1.00
C1132  C     0.85022   0.96597   0.61158   0.00000  Uiso   1.00
C1133  C     0.72276   0.93986   0.43937   0.00000  Uiso   1.00
C1134  C     0.83267   0.91328   0.50035   0.00000  Uiso   1.00
C1135  C     0.94603   0.71532   0.55377   0.00000  Uiso   1.00
C1136  C     0.90990   0.91257   0.39708   0.00000  Uiso   1.00
C1137  C     0.76027   0.75192   0.60453   0.00000  Uiso   1.00
C1138  C     0.73378   0.83342   0.48807   0.00000  Uiso   1.00
C1139  C     0.93289   0.83343   0.51194   0.00000  Uiso   1.00
C1140  C     0.67868   0.83286   0.48170   0.00000  Uiso   1.00
C1141  C     0.98800   0.83387   0.51833   0.00000  Uiso   1.00
C1142  C     0.79735   0.68728   0.46558   0.00000  Uiso   1.00
C1143  C     0.85725   0.98007   0.53840   0.00000  Uiso   1.00
C1144  C     0.79829   0.97748   0.46517   0.00000  Uiso   1.00
H1145  H     0.99143   0.83135   0.44695   0.00000  Uiso   1.00
H1146  H     0.71004   0.91229   0.41716   0.00000  Uiso   1.00
H1147  H     0.72510   0.92959   0.47528   0.00000  Uiso   1.00
H1148  H     0.97255   0.73390   0.57980   0.00000  Uiso   1.00
H1149  H     0.96389   0.68425   0.55068   0.00000  Uiso   1.00
H1150  H     0.94367   0.73217   0.52105   0.00000  Uiso   1.00
H1151  H     0.86841   0.92311   0.38928   0.00000  Uiso   1.00
H1152  H     0.93463   0.92971   0.37569   0.00000  Uiso   1.00
H1153  H     0.92470   0.92159   0.43298   0.00000  Uiso   1.00
H1154  H     0.74587   0.74161   0.56894   0.00000  Uiso   1.00
H1155  H     0.73640   0.73466   0.62652   0.00000  Uiso   1.00
H1156  H     0.67529   0.83529   0.55309   0.00000  Uiso   1.00
H1157  H     0.80226   0.74267   0.61270   0.00000  Uiso   1.00
H1158  H     0.92552   0.89798   0.63857   0.00000  Uiso   1.00
H1159  H     0.95241   0.85044   0.64567   0.00000  Uiso   1.00
H1160  H     0.75091   0.76318   0.36418   0.00000  Uiso   1.00
H1161  H     0.71523   0.80698   0.35406   0.00000  Uiso   1.00
H1162  H     0.68939   0.73026   0.42138   0.00000  Uiso   1.00
H1163  H     0.70101   0.69456   0.46753   0.00000  Uiso   1.00
H1164  H     0.72847   0.74702   0.47371   0.00000  Uiso   1.00
H1165  H     0.86974   0.95171   0.64313   0.00000  Uiso   1.00
H1166  H     0.81100   0.95027   0.60221   0.00000  Uiso   1.00
H1167  H     0.84525   0.99948   0.61985   0.00000  Uiso   1.00
H1168  H     0.69195   0.96357   0.43201   0.00000  Uiso   1.00
N1169  N     0.83332   0.83332   0.61907   0.00000  Uiso   1.00
N1170  N     0.83335   0.83334   0.38093   0.00000  Uiso   1.00
N1171  N     0.91951   0.86642   0.63030   0.00000  Uiso   1.00
N1172  N     0.75065   0.79524   0.37049   0.00000  Uiso   1.00
O1173  O     0.83333   0.77225   0.53821   0.00000  Uiso   1.00
O1174  O     0.88173   0.96054   0.57688   0.00000  Uiso   1.00
O1175  O     0.77105   0.95527   0.42834   0.00000  Uiso   1.00
O1176  O     0.89631   0.71151   0.56809   0.00000  Uiso   1.00
O1177  O     0.91612   0.86917   0.39179   0.00000  Uiso   1.00
O1178  O     0.75211   0.79523   0.60828   0.00000  Uiso   1.00
O1179  O     0.83334   0.89442   0.46179   0.00000  Uiso   1.00
O1180  O     0.83333   0.77226   0.46176   0.00000  Uiso   1.00
O1181  O     0.83334   0.89441   0.53824   0.00000  Uiso   1.00
O1182  O     0.75725   0.83333   0.52928   0.00000  Uiso   1.00
O1183  O     0.90942   0.83334   0.47072   0.00000  Uiso   1.00
O1184  O     0.75725   0.83334   0.45284   0.00000  Uiso   1.00
O1185  O     0.90942   0.83333   0.54716   0.00000  Uiso   1.00
O1186  O     0.76438   0.70733   0.43192   0.00000  Uiso   1.00
Zn1187 Zn    0.83333   0.83333   0.55104   0.00000  Uiso   1.00
Zn1188 Zn    0.83333   0.83334   0.44896   0.00000  Uiso   1.00
C1189  C     0.16635   0.08684   0.83299   0.00000  Uiso   1.00
C1190  C     0.19615   0.02267   0.86825   0.00000  Uiso   1.00
C1191  C     0.16283   0.29082   0.83456   0.00000  Uiso   1.00
C1192  C     0.16490   0.04275   0.83273   0.00000  Uiso   1.00
C1193  C     0.20701   0.18553   0.69621   0.00000  Uiso   1.00
C1194  C     0.12680   0.14713   0.97051   0.00000  Uiso   1.00
C1195  C     0.20771   0.18441   0.98157   0.00000  Uiso   1.00
C1196  C     0.12649   0.14772   0.68527   0.00000  Uiso   1.00
C1197  C     0.05253   0.05344   0.78317   0.00000  Uiso   1.00
C1198  C     0.18355   0.29930   0.94491   0.00000  Uiso   1.00
C1199  C     0.05609   0.27319   0.77270   0.00000  Uiso   1.00
C1200  C     0.16600   0.24662   0.83368   0.00000  Uiso   1.00
C1201  C     0.27936   0.04866   0.88710   0.00000  Uiso   1.00
C1202  C     0.24324   0.24590   0.73041   0.00000  Uiso   1.00
C1203  C     0.09361   0.08525   0.93786   0.00000  Uiso   1.00
C1204  C     0.06712   0.16675   0.82140   0.00000  Uiso   1.00
C1205  C     0.26623   0.16677   0.84528   0.00000  Uiso   1.00
C1206  C     0.01202   0.16620   0.81503   0.00000  Uiso   1.00
C1207  C     0.32134   0.16720   0.85166   0.00000  Uiso   1.00
C1208  C     0.13069   0.02062   0.79892   0.00000  Uiso   1.00
C1209  C     0.19058   0.31340   0.87173   0.00000  Uiso   1.00
C1210  C     0.13163   0.31081   0.79850   0.00000  Uiso   1.00
H1211  H     0.32476   0.16468   0.78028   0.00000  Uiso   1.00
H1212  H     0.04337   0.24562   0.75049   0.00000  Uiso   1.00
H1213  H     0.05844   0.26292   0.80861   0.00000  Uiso   1.00
H1214  H     0.30588   0.06723   0.91313   0.00000  Uiso   1.00
H1215  H     0.29722   0.01758   0.88401   0.00000  Uiso   1.00
H1216  H     0.27700   0.06551   0.85438   0.00000  Uiso   1.00
H1217  H     0.20175   0.25644   0.72262   0.00000  Uiso   1.00
H1218  H     0.26797   0.26305   0.70903   0.00000  Uiso   1.00
H1219  H     0.25803   0.25492   0.76632   0.00000  Uiso   1.00
H1220  H     0.07921   0.07495   0.90228   0.00000  Uiso   1.00
H1221  H     0.06973   0.06799   0.95985   0.00000  Uiso   1.00
H1222  H     0.00862   0.16862   0.88642   0.00000  Uiso   1.00
H1223  H     0.13559   0.07600   0.94603   0.00000  Uiso   1.00
H1224  H     0.25885   0.23131   0.97191   0.00000  Uiso   1.00
H1225  H     0.28575   0.18377   0.97900   0.00000  Uiso   1.00
H1226  H     0.08424   0.09651   0.69751   0.00000  Uiso   1.00
H1227  H     0.04857   0.14032   0.68739   0.00000  Uiso   1.00
H1228  H     0.02272   0.06360   0.75471   0.00000  Uiso   1.00
H1229  H     0.03434   0.02790   0.80087   0.00000  Uiso   1.00
H1230  H     0.06180   0.08036   0.80704   0.00000  Uiso   1.00
H1231  H     0.20308   0.28504   0.97647   0.00000  Uiso   1.00
H1232  H     0.14434   0.28360   0.93555   0.00000  Uiso   1.00
H1233  H     0.17859   0.33281   0.95318   0.00000  Uiso   1.00
H1234  H     0.02528   0.29690   0.76534   0.00000  Uiso   1.00
N1235  N     0.16665   0.16666   0.95240   0.00000  Uiso   1.00
N1236  N     0.16668   0.16668   0.71427   0.00000  Uiso   1.00
N1237  N     0.25284   0.19976   0.96363   0.00000  Uiso   1.00
N1238  N     0.08398   0.12857   0.70383   0.00000  Uiso   1.00
O1239  O     0.16666   0.10558   0.87154   0.00000  Uiso   1.00
O1240  O     0.21507   0.29387   0.91021   0.00000  Uiso   1.00
O1241  O     0.10438   0.28861   0.76167   0.00000  Uiso   1.00
O1242  O     0.22964   0.04484   0.90143   0.00000  Uiso   1.00
O1243  O     0.24945   0.20250   0.72512   0.00000  Uiso   1.00
O1244  O     0.08544   0.12856   0.94161   0.00000  Uiso   1.00
O1245  O     0.16667   0.22775   0.79513   0.00000  Uiso   1.00
O1246  O     0.16666   0.10559   0.79510   0.00000  Uiso   1.00
O1247  O     0.16667   0.22774   0.87157   0.00000  Uiso   1.00
O1248  O     0.09058   0.16666   0.86261   0.00000  Uiso   1.00
O1249  O     0.24275   0.16667   0.80405   0.00000  Uiso   1.00
O1250  O     0.09058   0.16667   0.78617   0.00000  Uiso   1.00
O1251  O     0.24275   0.16666   0.88050   0.00000  Uiso   1.00
O1252  O     0.09771   0.04066   0.76525   0.00000  Uiso   1.00
Zn1253 Zn    0.16667   0.16666   0.88437   0.00000  Uiso   1.00
Zn1254 Zn    0.16667   0.16667   0.78229   0.00000  Uiso   1.00
C1255  C     0.49968   0.08684   0.83299   0.00000  Uiso   1.00
C1256  C     0.52948   0.02267   0.86825   0.00000  Uiso   1.00
C1257  C     0.49616   0.29082   0.83456   0.00000  Uiso   1.00
C1258  C     0.49824   0.04275   0.83273   0.00000  Uiso   1.00
C1259  C     0.54034   0.18553   0.69621   0.00000  Uiso   1.00
C1260  C     0.46014   0.14713   0.97051   0.00000  Uiso   1.00
C1261  C     0.54105   0.18441   0.98157   0.00000  Uiso   1.00
C1262  C     0.45982   0.14772   0.68527   0.00000  Uiso   1.00
C1263  C     0.38586   0.05344   0.78317   0.00000  Uiso   1.00
C1264  C     0.51689   0.29930   0.94491   0.00000  Uiso   1.00
C1265  C     0.38942   0.27319   0.77270   0.00000  Uiso   1.00
C1266  C     0.49934   0.24662   0.83368   0.00000  Uiso   1.00
C1267  C     0.61270   0.04866   0.88710   0.00000  Uiso   1.00
C1268  C     0.57657   0.24590   0.73041   0.00000  Uiso   1.00
C1269  C     0.42694   0.08525   0.93786   0.00000  Uiso   1.00
C1270  C     0.40045   0.16675   0.82140   0.00000  Uiso   1.00
C1271  C     0.59956   0.16677   0.84528   0.00000  Uiso   1.00
C1272  C     0.34535   0.16620   0.81503   0.00000  Uiso   1.00
C1273  C     0.65467   0.16720   0.85166   0.00000  Uiso   1.00
C1274  C     0.46402   0.02062   0.79892   0.00000  Uiso   1.00
C1275  C     0.52392   0.31340   0.87173   0.00000  Uiso   1.00
C1276  C     0.46496   0.31081   0.79850   0.00000  Uiso   1.00
H1277  H     0.65810   0.16468   0.78028   0.00000  Uiso   1.00
H1278  H     0.37671   0.24562   0.75049   0.00000  Uiso   1.00
H1279  H     0.39177   0.26292   0.80861   0.00000  Uiso   1.00
H1280  H     0.63922   0.06723   0.91313   0.00000  Uiso   1.00
H1281  H     0.63055   0.01758   0.88401   0.00000  Uiso   1.00
H1282  H     0.61033   0.06551   0.85438   0.00000  Uiso   1.00
H1283  H     0.53508   0.25644   0.72262   0.00000  Uiso   1.00
H1284  H     0.60130   0.26305   0.70903   0.00000  Uiso   1.00
H1285  H     0.59136   0.25492   0.76632   0.00000  Uiso   1.00
H1286  H     0.41254   0.07495   0.90228   0.00000  Uiso   1.00
H1287  H     0.40306   0.06799   0.95985   0.00000  Uiso   1.00
H1288  H     0.34196   0.16862   0.88642   0.00000  Uiso   1.00
H1289  H     0.46892   0.07600   0.94603   0.00000  Uiso   1.00
H1290  H     0.59218   0.23131   0.97191   0.00000  Uiso   1.00
H1291  H     0.61908   0.18377   0.97900   0.00000  Uiso   1.00
H1292  H     0.41757   0.09651   0.69751   0.00000  Uiso   1.00
H1293  H     0.38190   0.14032   0.68739   0.00000  Uiso   1.00
H1294  H     0.35606   0.06360   0.75471   0.00000  Uiso   1.00
H1295  H     0.36768   0.02790   0.80087   0.00000  Uiso   1.00
H1296  H     0.39513   0.08036   0.80704   0.00000  Uiso   1.00
H1297  H     0.53641   0.28504   0.97647   0.00000  Uiso   1.00
H1298  H     0.47767   0.28360   0.93555   0.00000  Uiso   1.00
H1299  H     0.51192   0.33281   0.95318   0.00000  Uiso   1.00
H1300  H     0.35861   0.29690   0.76534   0.00000  Uiso   1.00
N1301  N     0.49999   0.16666   0.95240   0.00000  Uiso   1.00
N1302  N     0.50001   0.16668   0.71427   0.00000  Uiso   1.00
N1303  N     0.58618   0.19976   0.96363   0.00000  Uiso   1.00
N1304  N     0.41731   0.12857   0.70383   0.00000  Uiso   1.00
O1305  O     0.50000   0.10558   0.87154   0.00000  Uiso   1.00
O1306  O     0.54840   0.29387   0.91021   0.00000  Uiso   1.00
O1307  O     0.43771   0.28861   0.76167   0.00000  Uiso   1.00
O1308  O     0.56297   0.04484   0.90143   0.00000  Uiso   1.00
O1309  O     0.58279   0.20250   0.72512   0.00000  Uiso   1.00
O1310  O     0.41878   0.12856   0.94161   0.00000  Uiso   1.00
O1311  O     0.50000   0.22775   0.79513   0.00000  Uiso   1.00
O1312  O     0.50000   0.10559   0.79510   0.00000  Uiso   1.00
O1313  O     0.50000   0.22774   0.87157   0.00000  Uiso   1.00
O1314  O     0.42392   0.16666   0.86261   0.00000  Uiso   1.00
O1315  O     0.57608   0.16667   0.80405   0.00000  Uiso   1.00
O1316  O     0.42392   0.16667   0.78617   0.00000  Uiso   1.00
O1317  O     0.57608   0.16666   0.88050   0.00000  Uiso   1.00
O1318  O     0.43104   0.04066   0.76525   0.00000  Uiso   1.00
Zn1319 Zn    0.50000   0.16666   0.88437   0.00000  Uiso   1.00
Zn1320 Zn    0.50000   0.16667   0.78229   0.00000  Uiso   1.00
C1321  C     0.83302   0.08684   0.83299   0.00000  Uiso   1.00
C1322  C     0.86281   0.02267   0.86825   0.00000  Uiso   1.00
C1323  C     0.82950   0.29082   0.83456   0.00000  Uiso   1.00
C1324  C     0.83157   0.04275   0.83273   0.00000  Uiso   1.00
C1325  C     0.87367   0.18553   0.69621   0.00000  Uiso   1.00
C1326  C     0.79347   0.14713   0.97051   0.00000  Uiso   1.00
C1327  C     0.87438   0.18441   0.98157   0.00000  Uiso   1.00
C1328  C     0.79316   0.14772   0.68527   0.00000  Uiso   1.00
C1329  C     0.71919   0.05344   0.78317   0.00000  Uiso   1.00
C1330  C     0.85022   0.29930   0.94491   0.00000  Uiso   1.00
C1331  C     0.72276   0.27319   0.77270   0.00000  Uiso   1.00
C1332  C     0.83267   0.24662   0.83368   0.00000  Uiso   1.00
C1333  C     0.94603   0.04866   0.88710   0.00000  Uiso   1.00
C1334  C     0.90990   0.24590   0.73041   0.00000  Uiso   1.00
C1335  C     0.76027   0.08525   0.93786   0.00000  Uiso   1.00
C1336  C     0.73378   0.16675   0.82140   0.00000  Uiso   1.00
C1337  C     0.93289   0.16677   0.84528   0.00000  Uiso   1.00
C1338  C     0.67868   0.16620   0.81503   0.00000  Uiso   1.00
C1339  C     0.98800   0.16720   0.85166   0.00000  Uiso   1.00
C1340  C     0.79735   0.02062   0.79892   0.00000  Uiso   1.00
C1341  C     0.85725   0.31340   0.87173   0.00000  Uiso   1.00
C1342  C     0.79829   0.31081   0.79850   0.00000  Uiso   1.00
H1343  H     0.99143   0.16468   0.78028   0.00000  Uiso   1.00
H1344  H     0.71004   0.24562   0.75049   0.00000  Uiso   1.00
H1345  H     0.72510   0.26292   0.80861   0.00000  Uiso   1.00
H1346  H     0.97255   0.06723   0.91313   0.00000  Uiso   1.00
H1347  H     0.96389   0.01758   0.88401   0.00000  Uiso   1.00
H1348  H     0.94367   0.06551   0.85438   0.00000  Uiso   1.00
H1349  H     0.86841   0.25644   0.72262   0.00000  Uiso   1.00
H1350  H     0.93463   0.26305   0.70903   0.00000  Uiso   1.00
H1351  H     0.92470   0.25492   0.76632   0.00000  Uiso   1.00
H1352  H     0.74587   0.07495   0.90228   0.00000  Uiso   1.00
H1353  H     0.73640   0.06799   0.95985   0.00000  Uiso   1.00
H1354  H     0.67529   0.16862   0.88642   0.00000  Uiso   1.00
H1355  H     0.80226   0.07600   0.94603   0.00000  Uiso   1.00
H1356  H     0.92552   0.23131   0.97191   0.00000  Uiso   1.00
H1357  H     0.95241   0.18377   0.97900   0.00000  Uiso   1.00
H1358  H     0.75091   0.09651   0.69751   0.00000  Uiso   1.00
H1359  H     0.71523   0.14032   0.68739   0.00000  Uiso   1.00
H1360  H     0.68939   0.06360   0.75471   0.00000  Uiso   1.00
H1361  H     0.70101   0.02790   0.80087   0.00000  Uiso   1.00
H1362  H     0.72847   0.08036   0.80704   0.00000  Uiso   1.00
H1363  H     0.86974   0.28504   0.97647   0.00000  Uiso   1.00
H1364  H     0.81100   0.28360   0.93555   0.00000  Uiso   1.00
H1365  H     0.84525   0.33281   0.95318   0.00000  Uiso   1.00
H1366  H     0.69195   0.29690   0.76534   0.00000  Uiso   1.00
N1367  N     0.83332   0.16666   0.95240   0.00000  Uiso   1.00
N1368  N     0.83335   0.16668   0.71427   0.00000  Uiso   1.00
N1369  N     0.91951   0.19976   0.96363   0.00000  Uiso   1.00
N1370  N     0.75065   0.12857   0.70383   0.00000  Uiso   1.00
O1371  O     0.83333   0.10558   0.87154   0.00000  Uiso   1.00
O1372  O     0.88173   0.29387   0.91021   0.00000  Uiso   1.00
O1373  O     0.77105   0.28861   0.76167   0.00000  Uiso   1.00
O1374  O     0.89631   0.04484   0.90143   0.00000  Uiso   1.00
O1375  O     0.91612   0.20250   0.72512   0.00000  Uiso   1.00
O1376  O     0.75211   0.12856   0.94161   0.00000  Uiso   1.00
O1377  O     0.83334   0.22775   0.79513   0.00000  Uiso   1.00
O1378  O     0.83333   0.10559   0.79510   0.00000  Uiso   1.00
O1379  O     0.83334   0.22774   0.87157   0.00000  Uiso   1.00
O1380  O     0.75725   0.16666   0.86261   0.00000  Uiso   1.00
O1381  O     0.90942   0.16667   0.80405   0.00000  Uiso   1.00
O1382  O     0.75725   0.16667   0.78617   0.00000  Uiso   1.00
O1383  O     0.90942   0.16666   0.88050   0.00000  Uiso   1.00
O1384  O     0.76438   0.04066   0.76525   0.00000  Uiso   1.00
Zn1385 Zn    0.83333   0.16666   0.88437   0.00000  Uiso   1.00
Zn1386 Zn    0.83333   0.16667   0.78229   0.00000  Uiso   1.00
C1387  C     0.16635   0.42017   0.83299   0.00000  Uiso   1.00
C1388  C     0.19615   0.35600   0.86825   0.00000  Uiso   1.00
C1389  C     0.16283   0.62416   0.83456   0.00000  Uiso   1.00
C1390  C     0.16490   0.37608   0.83273   0.00000  Uiso   1.00
C1391  C     0.20701   0.51887   0.69621   0.00000  Uiso   1.00
C1392  C     0.12680   0.48047   0.97051   0.00000  Uiso   1.00
C1393  C     0.20771   0.51774   0.98157   0.00000  Uiso   1.00
C1394  C     0.12649   0.48106   0.68527   0.00000  Uiso   1.00
C1395  C     0.05253   0.38678   0.78317   0.00000  Uiso   1.00
C1396  C     0.18355   0.63264   0.94491   0.00000  Uiso   1.00
C1397  C     0.05609   0.60653   0.77270   0.00000  Uiso   1.00
C1398  C     0.16600   0.57995   0.83368   0.00000  Uiso   1.00
C1399  C     0.27936   0.38199   0.88710   0.00000  Uiso   1.00
C1400  C     0.24324   0.57923   0.73041   0.00000  Uiso   1.00
C1401  C     0.09361   0.41858   0.93786   0.00000  Uiso   1.00
C1402  C     0.06712   0.50008   0.82140   0.00000  Uiso   1.00
C1403  C     0.26623   0.50010   0.84528   0.00000  Uiso   1.00
C1404  C     0.01202   0.49953   0.81503   0.00000  Uiso   1.00
C1405  C     0.32134   0.50054   0.85166   0.00000  Uiso   1.00
C1406  C     0.13069   0.35395   0.79892   0.00000  Uiso   1.00
C1407  C     0.19058   0.64674   0.87173   0.00000  Uiso   1.00
C1408  C     0.13163   0.64415   0.79850   0.00000  Uiso   1.00
H1409  H     0.32476   0.49801   0.78028   0.00000  Uiso   1.00
H1410  H     0.04337   0.57896   0.75049   0.00000  Uiso   1.00
H1411  H     0.05844   0.59626   0.80861   0.00000  Uiso   1.00
H1412  H     0.30588   0.40056   0.91313   0.00000  Uiso   1.00
H1413  H     0.29722   0.35092   0.88401   0.00000  Uiso   1.00
H1414  H     0.27700   0.39884   0.85438   0.00000  Uiso   1.00
H1415  H     0.20175   0.58977   0.72262   0.00000  Uiso   1.00
H1416  H     0.26797   0.59638   0.70903   0.00000  Uiso   1.00
H1417  H     0.25803   0.58826   0.76632   0.00000  Uiso   1.00
H1418  H     0.07921   0.40828   0.90228   0.00000  Uiso   1.00
H1419  H     0.06973   0.40133   0.95985   0.00000  Uiso   1.00
H1420  H     0.00862   0.50196   0.88642   0.00000  Uiso   1.00
H1421  H     0.13559   0.40933   0.94603   0.00000  Uiso   1.00
H1422  H     0.25885   0.56465   0.97191   0.00000  Uiso   1.00
H1423  H     0.28575   0.51710   0.97900   0.00000  Uiso   1.00
H1424  H     0.08424   0.42984   0.69751   0.00000  Uiso   1.00
H1425  H     0.04857   0.47365   0.68739   0.00000  Uiso   1.00
H1426  H     0.02272   0.39693   0.75471   0.00000  Uiso   1.00
H1427  H     0.03434   0.36123   0.80087   0.00000  Uiso   1.00
H1428  H     0.06180   0.41369   0.80704   0.00000  Uiso   1.00
H1429  H     0.20308   0.61837   0.97647   0.00000  Uiso   1.00
H1430  H     0.14434   0.61694   0.93555   0.00000  Uiso   1.00
H1431  H     0.17859   0.66615   0.95318   0.00000  Uiso   1.00
H1432  H     0.02528   0.63024   0.76534   0.00000  Uiso   1.00
N1433  N     0.16665   0.49999   0.95240   0.00000  Uiso   1.00
N1434  N     0.16668   0.50001   0.71427   0.00000  Uiso   1.00
N1435  N     0.25284   0.53309   0.96363   0.00000  Uiso   1.00
N1436  N     0.08398   0.46190   0.70383   0.00000  Uiso   1.00
O1437  O     0.16666   0.43892   0.87154   0.00000  Uiso   1.00
O1438  O     0.21507   0.62721   0.91021   0.00000  Uiso   1.00
O1439  O     0.10438   0.62194   0.76167   0.00000  Uiso   1.00
O1440  O     0.22964   0.37817   0.90143   0.00000  Uiso   1.00
O1441  O     0.24945   0.53584   0.72512   0.00000  Uiso   1.00
O1442  O     0.08544   0.46190   0.94161   0.00000  Uiso   1.00
O1443  O     0.16667   0.56108   0.79513   0.00000  Uiso   1.00
O1444  O     0.16666   0.43893   0.79510   0.00000  Uiso   1.00
O1445  O     0.16667   0.56107   0.87157   0.00000  Uiso   1.00
O1446  O     0.09058   0.50000   0.86261   0.00000  Uiso   1.00
O1447  O     0.24275   0.50000   0.80405   0.00000  Uiso   1.00
O1448  O     0.09058   0.50000   0.78617   0.00000  Uiso   1.00
O1449  O     0.24275   0.50000   0.88050   0.00000  Uiso   1.00
O1450  O     0.09771   0.37399   0.76525   0.00000  Uiso   1.00
Zn1451 Zn    0.16667   0.49999   0.88437   0.00000  Uiso   1.00
Zn1452 Zn    0.16667   0.50001   0.78229   0.00000  Uiso   1.00
C1453  C     0.49968   0.42017   0.83299   0.00000  Uiso   1.00
C1454  C     0.52948   0.35600   0.86825   0.00000  Uiso   1.00
C1455  C     0.49616   0.62416   0.83456   0.00000  Uiso   1.00
C1456  C     0.49824   0.37608   0.83273   0.00000  Uiso   1.00
C1457  C     0.54034   0.51887   0.69621   0.00000  Uiso   1.00
C1458  C     0.46014   0.48047   0.97051   0.00000  Uiso   1.00
C1459  C     0.54105   0.51774   0.98157   0.00000  Uiso   1.00
C1460  C     0.45982   0.48106   0.68527   0.00000  Uiso   1.00
C1461  C     0.38586   0.38678   0.78317   0.00000  Uiso   1.00
C1462  C     0.51689   0.63264   0.94491   0.00000  Uiso   1.00
C1463  C     0.38942   0.60653   0.77270   0.00000  Uiso   1.00
C1464  C     0.49934   0.57995   0.83368   0.00000  Uiso   1.00
C1465  C     0.61270   0.38199   0.88710   0.00000  Uiso   1.00
C1466  C     0.57657   0.57923   0.73041   0.00000  Uiso   1.00
C1467  C     0.42694   0.41858   0.93786   0.00000  Uiso   1.00
C1468  C     0.40045   0.50008   0.82140   0.00000  Uiso   1.00
C1469  C     0.59956   0.50010   0.84528   0.00000  Uiso   1.00
C1470  C     0.34535   0.49953   0.81503   0.00000  Uiso   1.00
C1471  C     0.65467   0.50054   0.85166   0.00000  Uiso   1.00
C1472  C     0.46402   0.35395   0.79892   0.00000  Uiso   1.00
C1473  C     0.52392   0.64674   0.87173   0.00000  Uiso   1.00
C1474  C     0.46496   0.64415   0.79850   0.00000  Uiso   1.00
H1475  H     0.65810   0.49801   0.78028   0.00000  Uiso   1.00
H1476  H     0.37671   0.57896   0.75049   0.00000  Uiso   1.00
H1477  H     0.39177   0.59626   0.80861   0.00000  Uiso   1.00
H1478  H     0.63922   0.40056   0.91313   0.00000  Uiso   1.00
H1479  H     0.63055   0.35092   0.88401   0.00000  Uiso   1.00
H1480  H     0.61033   0.39884   0.85438   0.00000  Uiso   1.00
H1481  H     0.53508   0.58977   0.72262   0.00000  Uiso   1.00
H1482  H     0.60130   0.59638   0.70903   0.00000  Uiso   1.00
H1483  H     0.59136   0.58826   0.76632   0.00000  Uiso   1.00
H1484  H     0.41254   0.40828   0.90228   0.00000  Uiso   1.00
H1485  H     0.40306   0.40133   0.95985   0.00000  Uiso   1.00
H1486  H     0.34196   0.50196   0.88642   0.00000  Uiso   1.00
H1487  H     0.46892   0.40933   0.94603   0.00000  Uiso   1.00
H1488  H     0.59218   0.56465   0.97191   0.00000  Uiso   1.00
H1489  H     0.61908   0.51710   0.97900   0.00000  Uiso   1.00
H1490  H     0.41757   0.42984   0.69751   0.00000  Uiso   1.00
H1491  H     0.38190   0.47365   0.68739   0.00000  Uiso   1.00
H1492  H     0.35606   0.39693   0.75471   0.00000  Uiso   1.00
H1493  H     0.36768   0.36123   0.80087   0.00000  Uiso   1.00
H1494  H     0.39513   0.41369   0.80704   0.00000  Uiso   1.00
H1495  H     0.53641   0.61837   0.97647   0.00000  Uiso   1.00
H1496  H     0.47767   0.61694   0.93555   0.00000  Uiso   1.00
H1497  H     0.51192   0.66615   0.95318   0.00000  Uiso   1.00
H1498  H     0.35861   0.63024   0.76534   0.00000  Uiso   1.00
N1499  N     0.49999   0.49999   0.95240   0.00000  Uiso   1.00
N1500  N     0.50001   0.50001   0.71427   0.00000  Uiso   1.00
N1501  N     0.58618   0.53309   0.96363   0.00000  Uiso   1.00
N1502  N     0.41731   0.46190   0.70383   0.00000  Uiso   1.00
O1503  O     0.50000   0.43892   0.87154   0.00000  Uiso   1.00
O1504  O     0.54840   0.62721   0.91021   0.00000  Uiso   1.00
O1505  O     0.43771   0.62194   0.76167   0.00000  Uiso   1.00
O1506  O     0.56297   0.37817   0.90143   0.00000  Uiso   1.00
O1507  O     0.58279   0.53584   0.72512   0.00000  Uiso   1.00
O1508  O     0.41878   0.46190   0.94161   0.00000  Uiso   1.00
O1509  O     0.50000   0.56108   0.79513   0.00000  Uiso   1.00
O1510  O     0.50000   0.43893   0.79510   0.00000  Uiso   1.00
O1511  O     0.50000   0.56107   0.87157   0.00000  Uiso   1.00
O1512  O     0.42392   0.50000   0.86261   0.00000  Uiso   1.00
O1513  O     0.57608   0.50000   0.80405   0.00000  Uiso   1.00
O1514  O     0.42392   0.50000   0.78617   0.00000  Uiso   1.00
O1515  O     0.57608   0.50000   0.88050   0.00000  Uiso   1.00
O1516  O     0.43104   0.37399   0.76525   0.00000  Uiso   1.00
Zn1517 Zn    0.50000   0.49999   0.88437   0.00000  Uiso   1.00
Zn1518 Zn    0.50000   0.50001   0.78229   0.00000  Uiso   1.00
C1519  C     0.83302   0.42017   0.83299   0.00000  Uiso   1.00
C1520  C     0.86281   0.35600   0.86825   0.00000  Uiso   1.00
C1521  C     0.82950   0.62416   0.83456   0.00000  Uiso   1.00
C1522  C     0.83157   0.37608   0.83273   0.00000  Uiso   1.00
C1523  C     0.87367   0.51887   0.69621   0.00000  Uiso   1.00
C1524  C     0.79347   0.48047   0.97051   0.00000  Uiso   1.00
C1525  C     0.87438   0.51774   0.98157   0.00000  Uiso   1.00
C1526  C     0.79316   0.48106   0.68527   0.00000  Uiso   1.00
C1527  C     0.71919   0.38678   0.78317   0.00000  Uiso   1.00
C1528  C     0.85022   0.63264   0.94491   0.00000  Uiso   1.00
C1529  C     0.72276   0.60653   0.77270   0.00000  Uiso   1.00
C1530  C     0.83267   0.57995   0.83368   0.00000  Uiso   1.00
C1531  C     0.94603   0.38199   0.88710   0.00000  Uiso   1.00
C1532  C     0.90990   0.57923   0.73041   0.00000  Uiso   1.00
C1533  C     0.76027   0.41858   0.93786   0.00000  Uiso   1.00
C1534  C     0.73378   0.50008   0.82140   0.00000  Uiso   1.00
C1535  C     0.93289   0.50010   0.84528   0.00000  Uiso   1.00
C1536  C     0.67868   0.49953   0.81503   0.00000  Uiso   1.00
C1537  C     0.98800   0.50054   0.85166   0.00000  Uiso   1.00
C1538  C     0.79735   0.35395   0.79892   0.00000  Uiso   1.00
C1539  C     0.85725   0.64674   0.87173   0.00000  Uiso   1.00
C1540  C     0.79829   0.64415   0.79850   0.00000  Uiso   1.00
H1541  H     0.99143   0.49801   0.78028   0.00000  Uiso   1.00
H1542  H     0.71004   0.57896   0.75049   0.00000  Uiso   1.00
H1543  H     0.72510   0.59626   0.80861   0.00000  Uiso   1.00
H1544  H     0.97255   0.40056   0.91313   0.00000  Uiso   1.00
H1545  H     0.96389   0.35092   0.88401   0.00000  Uiso   1.00
H1546  H     0.94367   0.39884   0.85438   0.00000  Uiso   1.00
H1547  H     0.86841   0.58977   0.72262   0.00000  Uiso   1.00
H1548  H     0.93463   0.59638   0.70903   0.00000  Uiso   1.00
H1549  H     0.92470   0.58826   0.76632   0.00000  Uiso   1.00
H1550  H     0.74587   0.40828   0.90228   0.00000  Uiso   1.00
H1551  H     0.73640   0.40133   0.95985   0.00000  Uiso   1.00
H1552  H     0.67529   0.50196   0.88642   0.00000  Uiso   1.00
H1553  H     0.80226   0.40933   0.94603   0.00000  Uiso   1.00
H1554  H     0.92552   0.56465   0.97191   0.00000  Uiso   1.00
H1555  H     0.95241   0.51710   0.97900   0.00000  Uiso   1.00
H1556  H     0.75091   0.42984   0.69751   0.00000  Uiso   1.00
H1557  H     0.71523   0.47365   0.68739   0.00000  Uiso   1.00
H1558  H     0.68939   0.39693   0.75471   0.00000  Uiso   1.00
H1559  H     0.70101   0.36123   0.80087   0.00000  Uiso   1.00
H1560  H     0.72847   0.41369   0.80704   0.00000  Uiso   1.00
H1561  H     0.86974   0.61837   0.97647   0.00000  Uiso   1.00
H1562  H     0.81100   0.61694   0.93555   0.00000  Uiso   1.00
H1563  H     0.84525   0.66615   0.95318   0.00000  Uiso   1.00
H1564  H     0.69195   0.63024   0.76534   0.00000  Uiso   1.00
N1565  N     0.83332   0.49999   0.95240   0.00000  Uiso   1.00
N1566  N     0.83335   0.50001   0.71427   0.00000  Uiso   1.00
N1567  N     0.91951   0.53309   0.96363   0.00000  Uiso   1.00
N1568  N     0.75065   0.46190   0.70383   0.00000  Uiso   1.00
O1569  O     0.83333   0.43892   0.87154   0.00000  Uiso   1.00
O1570  O     0.88173   0.62721   0.91021   0.00000  Uiso   1.00
O1571  O     0.77105   0.62194   0.76167   0.00000  Uiso   1.00
O1572  O     0.89631   0.37817   0.90143   0.00000  Uiso   1.00
O1573  O     0.91612   0.53584   0.72512   0.00000  Uiso   1.00
O1574  O     0.75211   0.46190   0.94161   0.00000  Uiso   1.00
O1575  O     0.83334   0.56108   0.79513   0.00000  Uiso   1.00
O1576  O     0.83333   0.43893   0.79510   0.00000  Uiso   1.00
O1577  O     0.83334   0.56107   0.87157   0.00000  Uiso   1.00
O1578  O     0.75725   0.50000   0.86261   0.00000  Uiso   1.00
O1579  O     0.90942   0.50000   0.80405   0.00000  Uiso   1.00
O1580  O     0.75725   0.50000   0.78617   0.00000  Uiso   1.00
O1581  O     0.90942   0.50000   0.88050   0.00000  Uiso   1.00
O1582  O     0.76438   0.37399   0.76525   0.00000  Uiso   1.00
Zn1583 Zn    0.83333   0.49999   0.88437   0.00000  Uiso   1.00
Zn1584 Zn    0.83333   0.50001   0.78229   0.00000  Uiso   1.00
C1585  C     0.16635   0.75350   0.83299   0.00000  Uiso   1.00
C1586  C     0.19615   0.68933   0.86825   0.00000  Uiso   1.00
C1587  C     0.16283   0.95749   0.83456   0.00000  Uiso   1.00
C1588  C     0.16490   0.70941   0.83273   0.00000  Uiso   1.00
C1589  C     0.20701   0.85220   0.69621   0.00000  Uiso   1.00
C1590  C     0.12680   0.81380   0.97051   0.00000  Uiso   1.00
C1591  C     0.20771   0.85107   0.98157   0.00000  Uiso   1.00
C1592  C     0.12649   0.81439   0.68527   0.00000  Uiso   1.00
C1593  C     0.05253   0.72011   0.78317   0.00000  Uiso   1.00
C1594  C     0.18355   0.96597   0.94491   0.00000  Uiso   1.00
C1595  C     0.05609   0.93986   0.77270   0.00000  Uiso   1.00
C1596  C     0.16600   0.91328   0.83368   0.00000  Uiso   1.00
C1597  C     0.27936   0.71532   0.88710   0.00000  Uiso   1.00
C1598  C     0.24324   0.91257   0.73041   0.00000  Uiso   1.00
C1599  C     0.09361   0.75192   0.93786   0.00000  Uiso   1.00
C1600  C     0.06712   0.83342   0.82140   0.00000  Uiso   1.00
C1601  C     0.26623   0.83343   0.84528   0.00000  Uiso   1.00
C1602  C     0.01202   0.83286   0.81503   0.00000  Uiso   1.00
C1603  C     0.32134   0.83387   0.85166   0.00000  Uiso   1.00
C1604  C     0.13069   0.68728   0.79892   0.00000  Uiso   1.00
C1605  C     0.19058   0.98007   0.87173   0.00000  Uiso   1.00
C1606  C     0.13163   0.97748   0.79850   0.00000  Uiso   1.00
H1607  H     0.32476   0.83135   0.78028   0.00000  Uiso   1.00
H1608  H     0.04337   0.91229   0.75049   0.00000  Uiso   1.00
H1609  H     0.05844   0.92959   0.80861   0.00000  Uiso   1.00
H1610  H     0.30588   0.73390   0.91313   0.00000  Uiso   1.00
H1611  H     0.29722   0.68425   0.88401   0.00000  Uiso   1.00
H1612  H     0.27700   0.73217   0.85438   0.00000  Uiso   1.00
H1613  H     0.20175   0.92311   0.72262   0.00000  Uiso   1.00
H1614  H     0.26797   0.92971   0.70903   0.00000  Uiso   1.00
H1615  H     0.25803   0.92159   0.76632   0.00000  Uiso   1.00
H1616  H     0.07921   0.74161   0.90228   0.00000  Uiso   1.00
H1617  H     0.06973   0.73466   0.95985   0.00000  Uiso   1.00
H1618  H     0.00862   0.83529   0.88642   0.00000  Uiso   1.00
H1619  H     0.13559   0.74267   0.94603   0.00000  Uiso   1.00
H1620  H     0.25885   0.89798   0.97191   0.00000  Uiso   1.00
H1621  H     0.28575   0.85044   0.97900   0.00000  Uiso   1.00
H1622  H     0.08424   0.76318   0.69751   0.00000  Uiso   1.00
H1623  H     0.04857   0.80698   0.68739   0.00000  Uiso   1.00
H1624  H     0.02272   0.73026   0.75471   0.00000  Uiso   1.00
H1625  H     0.03434   0.69456   0.80087   0.00000  Uiso   1.00
H1626  H     0.06180   0.74702   0.80704   0.00000  Uiso   1.00
H1627  H     0.20308   0.95171   0.97647   0.00000  Uiso   1.00
H1628  H     0.14434   0.95027   0.93555   0.00000  Uiso   1.00
H1629  H     0.17859   0.99948   0.95318   0.00000  Uiso   1.00
H1630  H     0.02528   0.96357   0.76534   0.00000  Uiso   1.00
N1631  N     0.16665   0.83332   0.95240   0.00000  Uiso   1.00
N1632  N     0.16668   0.83334   0.71427   0.00000  Uiso   1.00
N1633  N     0.25284   0.86642   0.96363   0.00000  Uiso   1.00
N1634  N     0.08398   0.79524   0.70383   0.00000  Uiso   1.00
O1635  O     0.16666   0.77225   0.87154   0.00000  Uiso   1.00
O1636  O     0.21507   0.96054   0.91021   0.00000  Uiso   1.00
O1637  O     0.10438   0.95527   0.76167   0.00000  Uiso   1.00
O1638  O     0.22964   0.71151   0.90143   0.00000  Uiso   1.00
O1639  O     0.24945   0.86917   0.72512   0.00000  Uiso   1.00
O1640  O     0.08544   0.79523   0.94161   0.00000  Uiso   1.00
O1641  O     0.16667   0.89442   0.79513   0.00000  Uiso   1.00
O1642  O     0.16666   0.77226   0.79510   0.00000  Uiso   1.00
O1643  O     0.16667   0.89441   0.87157   0.00000  Uiso   1.00
O1644  O     0.09058   0.83333   0.86261   0.00000  Uiso   1.00
O1645  O     0.24275   0.83334   0.80405   0.00000  Uiso   1.00
O1646  O     0.09058   0.83334   0.78617   0.00000  Uiso   1.00
O1647  O     0.24275   0.83333   0.88050   0.00000  Uiso   1.00
O1648  O     0.09771   0.70733   0.76525   0.00000  Uiso   1.00
Zn1649 Zn    0.16667   0.83333   0.88437   0.00000  Uiso   1.00
Zn1650 Zn    0.16667   0.83334   0.78229   0.00000  Uiso   1.00
C1651  C     0.49968   0.75350   0.83299   0.00000  Uiso   1.00
C1652  C     0.52948   0.68933   0.86825   0.00000  Uiso   1.00
C1653  C     0.49616   0.95749   0.83456   0.00000  Uiso   1.00
C1654  C     0.49824   0.70941   0.83273   0.00000  Uiso   1.00
C1655  C     0.54034   0.85220   0.69621   0.00000  Uiso   1.00
C1656  C     0.46014   0.81380   0.97051   0.00000  Uiso   1.00
C1657  C     0.54105   0.85107   0.98157   0.00000  Uiso   1.00
C1658  C     0.45982   0.81439   0.68527   0.00000  Uiso   1.00
C1659  C     0.38586   0.72011   0.78317   0.00000  Uiso   1.00
C1660  C     0.51689   0.96597   0.94491   0.00000  Uiso   1.00
C1661  C     0.38942   0.93986   0.77270   0.00000  Uiso   1.00
C1662  C     0.49934   0.91328   0.83368   0.00000  Uiso   1.00
C1663  C     0.61270   0.71532   0.88710   0.00000  Uiso   1.00
C1664  C     0.57657   0.91257   0.73041   0.00000  Uiso   1.00
C1665  C     0.42694   0.75192   0.93786   0.00000  Uiso   1.00
C1666  C     0.40045   0.83342   0.82140   0.00000  Uiso   1.00
C1667  C     0.59956   0.83343   0.84528   0.00000  Uiso   1.00
C1668  C     0.34535   0.83286   0.81503   0.00000  Uiso   1.00
C1669  C     0.65467   0.83387   0.85166   0.00000  Uiso   1.00
C1670  C     0.46402   0.68728   0.79892   0.00000  Uiso   1.00
C1671  C     0.52392   0.98007   0.87173   0.00000  Uiso   1.00
C1672  C     0.46496   0.97748   0.79850   0.00000  Uiso   1.00
H1673  H     0.65810   0.83135   0.78028   0.00000  Uiso   1.00
H1674  H     0.37671   0.91229   0.75049   0.00000  Uiso   1.00
H1675  H     0.39177   0.92959   0.80861   0.00000  Uiso   1.00
H1676  H     0.63922   0.73390   0.91313   0.00000  Uiso   1.00
H1677  H     0.63055   0.68425   0.88401   0.00000  Uiso   1.00
H1678  H     0.61033   0.73217   0.85438   0.00000  Uiso   1.00
H1679  H     0.53508   0.92311   0.72262   0.00000  Uiso   1.00
H1680  H     0.60130   0.92971   0.70903   0.00000  Uiso   1.00
H1681  H     0.59136   0.92159   0.76632   0.00000  Uiso   1.00
H1682  H     0.41254   0.74161   0.90228   0.00000  Uiso   1.00
H1683  H     0.40306   0.73466   0.95985   0.00000  Uiso   1.00
H1684  H     0.34196   0.83529   0.88642   0.00000  Uiso   1.00
H1685  H     0.46892   0.74267   0.94603   0.00000  Uiso   1.00
H1686  H     0.59218   0.89798   0.97191   0.00000  Uiso   1.00
H1687  H     0.61908   0.85044   0.97900   0.00000  Uiso   1.00
H1688  H     0.41757   0.76318   0.69751   0.00000  Uiso   1.00
H1689  H     0.38190   0.80698   0.68739   0.00000  Uiso   1.00
H1690  H     0.35606   0.73026   0.75471   0.00000  Uiso   1.00
H1691  H     0.36768   0.69456   0.80087   0.00000  Uiso   1.00
H1692  H     0.39513   0.74702   0.80704   0.00000  Uiso   1.00
H1693  H     0.53641   0.95171   0.97647   0.00000  Uiso   1.00
H1694  H     0.47767   0.95027   0.93555   0.00000  Uiso   1.00
H1695  H     0.51192   0.99948   0.95318   0.00000  Uiso   1.00
H1696  H     0.35861   0.96357   0.76534   0.00000  Uiso   1.00
N1697  N     0.49999   0.83332   0.95240   0.00000  Uiso   1.00
N1698  N     0.50001   0.83334   0.71427   0.00000  Uiso   1.00
N1699  N     0.58618   0.86642   0.96363   0.00000  Uiso   1.00
N1700  N     0.41731   0.79524   0.70383   0.00000  Uiso   1.00
O1701  O     0.50000   0.77225   0.87154   0.00000  Uiso   1.00
O1702  O     0.54840   0.96054   0.91021   0.00000  Uiso   1.00
O1703  O     0.43771   0.95527   0.76167   0.00000  Uiso   1.00
O1704  O     0.56297   0.71151   0.90143   0.00000  Uiso   1.00
O1705  O     0.58279   0.86917   0.72512   0.00000  Uiso   1.00
O1706  O     0.41878   0.79523   0.94161   0.00000  Uiso   1.00
O1707  O     0.50000   0.89442   0.79513   0.00000  Uiso   1.00
O1708  O     0.50000   0.77226   0.79510   0.00000  Uiso   1.00
O1709  O     0.50000   0.89441   0.87157   0.00000  Uiso   1.00
O1710  O     0.42392   0.83333   0.86261   0.00000  Uiso   1.00
O1711  O     0.57608   0.83334   0.80405   0.00000  Uiso   1.00
O1712  O     0.42392   0.83334   0.78617   0.00000  Uiso   1.00
O1713  O     0.57608   0.83333   0.88050   0.00000  Uiso   1.00
O1714  O     0.43104   0.70733   0.76525   0.00000  Uiso   1.00
Zn1715 Zn    0.50000   0.83333   0.88437   0.00000  Uiso   1.00
Zn1716 Zn    0.50000   0.83334   0.78229   0.00000  Uiso   1.00
C1717  C     0.83302   0.75350   0.83299   0.00000  Uiso   1.00
C1718  C     0.86281   0.68933   0.86825   0.00000  Uiso   1.00
C1719  C     0.82950   0.95749   0.83456   0.00000  Uiso   1.00
C1720  C     0.83157   0.70941   0.83273   0.00000  Uiso   1.00
C1721  C     0.87367   0.85220   0.69621   0.00000  Uiso   1.00
C1722  C     0.79347   0.81380   0.97051   0.00000  Uiso   1.00
C1723  C     0.87438   0.85107   0.98157   0.00000  Uiso   1.00
C1724  C     0.79316   0.81439   0.68527   0.00000  Uiso   1.00
C1725  C     0.71919   0.72011   0.78317   0.00000  Uiso   1.00
C1726  C     0.85022   0.96597   0.94491   0.00000  Uiso   1.00
C1727  C     0.72276   0.93986   0.77270   0.00000  Uiso   1.00
C1728  C     0.83267   0.91328   0.83368   0.00000  Uiso   1.00
C1729  C     0.94603   0.71532   0.88710   0.00000  Uiso   1.00
C1730  C     0.90990   0.91257   0.73041   0.00000  Uiso   1.00
C1731  C     0.76027   0.75192   0.93786   0.00000  Uiso   1.00
C1732  C     0.73378   0.83342   0.82140   0.00000  Uiso   1.00
C1733  C     0.93289   0.83343   0.84528   0.00000  Uiso   1.00
C1734  C     0.67868   0.83286   0.81503   0.00000  Uiso   1.00
C1735  C     0.98800   0.83387   0.85166   0.00000  Uiso   1.00
C1736  C     0.79735   0.68728   0.79892   0.00000  Uiso   1.00
C1737  C     0.85725   0.98007   0.87173   0.00000  Uiso   1.00
C1738  C     0.79829   0.97748   0.79850   0.00000  Uiso   1.00
H1739  H     0.99143   0.83135   0.78028   0.00000  Uiso   1.00
H1740  H     0.71004   0.91229   0.75049   0.00000  Uiso   1.00
H1741  H     0.72510   0.92959   0.80861   0.00000  Uiso   1.00
H1742  H     0.97255   0.73390   0.91313   0.00000  Uiso   1.00
H1743  H     0.96389   0.68425   0.88401   0.00000  Uiso   1.00
H1744  H     0.94367   0.73217   0.85438   0.00000  Uiso   1.00
H1745  H     0.86841   0.92311   0.72262   0.00000  Uiso   1.00
H1746  H     0.93463   0.92971   0.70903   0.00000  Uiso   1.00
H1747  H     0.92470   0.92159   0.76632   0.00000  Uiso   1.00
H1748  H     0.74587   0.74161   0.90228   0.00000  Uiso   1.00
H1749  H     0.73640   0.73466   0.95985   0.00000  Uiso   1.00
H1750  H     0.67529   0.83529   0.88642   0.00000  Uiso   1.00
H1751  H     0.80226   0.74267   0.94603   0.00000  Uiso   1.00
H1752  H     0.92552   0.89798   0.97191   0.00000  Uiso   1.00
H1753  H     0.95241   0.85044   0.97900   0.00000  Uiso   1.00
H1754  H     0.75091   0.76318   0.69751   0.00000  Uiso   1.00
H1755  H     0.71523   0.80698   0.68739   0.00000  Uiso   1.00
H1756  H     0.68939   0.73026   0.75471   0.00000  Uiso   1.00
H1757  H     0.70101   0.69456   0.80087   0.00000  Uiso   1.00
H1758  H     0.72847   0.74702   0.80704   0.00000  Uiso   1.00
H1759  H     0.86974   0.95171   0.97647   0.00000  Uiso   1.00
H1760  H     0.81100   0.95027   0.93555   0.00000  Uiso   1.00
H1761  H     0.84525   0.99948   0.95318   0.00000  Uiso   1.00
H1762  H     0.69195   0.96357   0.76534   0.00000  Uiso   1.00
N1763  N     0.83332   0.83332   0.95240   0.00000  Uiso   1.00
N1764  N     0.83335   0.83334   0.71427   0.00000  Uiso   1.00
N1765  N     0.91951   0.86642   0.96363   0.00000  Uiso   1.00
N1766  N     0.75065   0.79524   0.70383   0.00000  Uiso   1.00
O1767  O     0.83333   0.77225   0.87154   0.00000  Uiso   1.00
O1768  O     0.88173   0.96054   0.91021   0.00000  Uiso   1.00
O1769  O     0.77105   0.95527   0.76167   0.00000  Uiso   1.00
O1770  O     0.89631   0.71151   0.90143   0.00000  Uiso   1.00
O1771  O     0.91612   0.86917   0.72512   0.00000  Uiso   1.00
O1772  O     0.75211   0.79523   0.94161   0.00000  Uiso   1.00
O1773  O     0.83334   0.89442   0.79513   0.00000  Uiso   1.00
O1774  O     0.83333   0.77226   0.79510   0.00000  Uiso   1.00
O1775  O     0.83334   0.89441   0.87157   0.00000  Uiso   1.00
O1776  O     0.75725   0.83333   0.86261   0.00000  Uiso   1.00
O1777  O     0.90942   0.83334   0.80405   0.00000  Uiso   1.00
O1778  O     0.75725   0.83334   0.78617   0.00000  Uiso   1.00
O1779  O     0.90942   0.83333   0.88050   0.00000  Uiso   1.00
O1780  O     0.76438   0.70733   0.76525   0.00000  Uiso   1.00
Zn1781 Zn    0.83333   0.83333   0.88437   0.00000  Uiso   1.00
Zn1782 Zn    0.83333   0.83334   0.78229   0.00000  Uiso   1.00
loop_
_geom_bond_atom_site_label_1
_geom_bond_atom_site_label_2
_geom_bond_distance
_geom_bond_site_symmetry_2
_ccdc_geom_bond_type
C1     C4      1.414   .     S
C1     O58     1.285   .     A
C1     O51     1.285   .     A
C2     C4      1.399   .     A
C2     O54     1.385   .     S
C2     C417    1.378   1_545 S
C3     C21     1.405   .     A
C3     C12     1.421   .     S
C3     C22     1.408   .     A
C4     C20     1.406   .     A
C5     O55     1.381   .     S
C5     N48     1.372   .     A
C5     C1195   1.428   1_554 S
C6     N47     1.372   .     A
C6     O56     1.381   .     S
C6     C602    1.430   .     S
C7     N49     1.430   .     S
C7     N47     1.370   .     A
C7     C599    1.428   .     S
C8     N48     1.368   .     A
C8     N50     1.429   .     S
C8     C1194   1.430   1_554 S
C9     O64     1.414   .     S
C9     H41     1.113   .     S
C9     H42     1.108   .     S
C9     H40     1.109   .     S
C10    O52     1.415   .     S
C10    H44     1.113   .     S
C10    H45     1.113   .     S
C10    H43     1.104   .     S
C11    O53     1.413   .     S
C11    H24     1.109   .     S
C11    H25     1.115   .     S
C11    H46     1.108   .     S
C12    O57     1.290   .     A
C12    O59     1.284   .     A
C13    H28     1.114   .     S
C13    H26     1.109   .     S
C13    O54     1.410   .     S
C13    H27     1.113   .     S
C14    H31     1.110   .     S
C14    O55     1.413   .     S
C14    H30     1.109   .     S
C14    H29     1.116   .     S
C15    O56     1.414   .     S
C15    H32     1.110   .     S
C15    H35     1.116   .     S
C15    H33     1.108   .     S
C16    O62     1.285   .     A
C16    O60     1.281   .     A
C16    C18     1.400   .     S
C17    O63     1.284   .     A
C17    C19     1.400   .     S
C17    O61     1.281   .     A
C18    C151    1.330   1_455 S
C18    H155    1.087   1_455 S
C19    C84     1.330   .     S
C19    H100    1.087   .     S
C20    O64     1.384   .     S
C20    C418    1.384   1_545 S
C21    O52     1.384   .     S
C21    C200    1.378   .     S
C22    O53     1.387   .     S
C22    C218    1.384   .     S
H23    C84     1.087   .     S
H34    C151    1.087   1_455 S
H36    N49     1.041   .     S
H37    N49     1.046   .     S
H38    N50     1.043   .     S
H39    N50     1.046   .     S
N47    Zn65    2.021   .     S
N48    Zn66    2.021   .     S
O51    Zn65    1.990   .     S
O57    Zn66    1.990   .     S
O58    Zn66    2.001   .     S
O59    Zn65    2.001   .     S
O60    Zn65    1.965   .     S
O61    Zn66    1.965   .     S
O62    Zn66    1.976   .     S
O63    Zn65    1.976   .     S
C67    C70     1.414   .     S
C67    O124    1.285   .     A
C67    O117    1.285   .     A
C68    C70     1.399   .     A
C68    O120    1.385   .     S
C68    C483    1.378   1_545 S
C69    C87     1.405   .     A
C69    C78     1.421   .     S
C69    C88     1.408   .     A
C70    C86     1.406   .     A
C71    O121    1.381   .     S
C71    N114    1.372   .     A
C71    C1261   1.428   1_554 S
C72    N113    1.372   .     A
C72    O122    1.381   .     S
C72    C668    1.430   .     S
C73    N115    1.430   .     S
C73    N113    1.370   .     A
C73    C665    1.428   .     S
C74    N114    1.368   .     A
C74    N116    1.429   .     S
C74    C1260   1.430   1_554 S
C75    O130    1.414   .     S
C75    H107    1.113   .     S
C75    H108    1.108   .     S
C75    H106    1.109   .     S
C76    O118    1.415   .     S
C76    H110    1.113   .     S
C76    H111    1.113   .     S
C76    H109    1.104   .     S
C77    O119    1.413   .     S
C77    H90     1.109   .     S
C77    H91     1.115   .     S
C77    H112    1.108   .     S
C78    O123    1.290   .     A
C78    O125    1.284   .     A
C79    H94     1.114   .     S
C79    H92     1.109   .     S
C79    O120    1.410   .     S
C79    H93     1.113   .     S
C80    H97     1.110   .     S
C80    O121    1.413   .     S
C80    H96     1.109   .     S
C80    H95     1.116   .     S
C81    O122    1.414   .     S
C81    H98     1.110   .     S
C81    H101    1.116   .     S
C81    H99     1.108   .     S
C82    O128    1.285   .     A
C82    O126    1.281   .     A
C82    C84     1.400   .     S
C83    O129    1.284   .     A
C83    C85     1.400   .     S
C83    O127    1.281   .     A
C85    C150    1.330   .     S
C85    H166    1.087   .     S
C86    O130    1.384   .     S
C86    C484    1.384   1_545 S
C87    O118    1.384   .     S
C87    C266    1.378   .     S
C88    O119    1.387   .     S
C88    C284    1.384   .     S
H89    C150    1.087   .     S
H102   N115    1.041   .     S
H103   N115    1.046   .     S
H104   N116    1.043   .     S
H105   N116    1.046   .     S
N113   Zn131   2.021   .     S
N114   Zn132   2.021   .     S
O117   Zn131   1.990   .     S
O123   Zn132   1.990   .     S
O124   Zn132   2.001   .     S
O125   Zn131   2.001   .     S
O126   Zn131   1.965   .     S
O127   Zn132   1.965   .     S
O128   Zn132   1.976   .     S
O129   Zn131   1.976   .     S
C133   C136    1.414   .     S
C133   O190    1.285   .     A
C133   O183    1.285   .     A
C134   C136    1.399   .     A
C134   O186    1.385   .     S
C134   C549    1.378   1_545 S
C135   C153    1.405   .     A
C135   C144    1.421   .     S
C135   C154    1.408   .     A
C136   C152    1.406   .     A
C137   O187    1.381   .     S
C137   N180    1.372   .     A
C137   C1327   1.428   1_554 S
C138   N179    1.372   .     A
C138   O188    1.381   .     S
C138   C734    1.430   .     S
C139   N181    1.430   .     S
C139   N179    1.370   .     A
C139   C731    1.428   .     S
C140   N180    1.368   .     A
C140   N182    1.429   .     S
C140   C1326   1.430   1_554 S
C141   O196    1.414   .     S
C141   H173    1.113   .     S
C141   H174    1.108   .     S
C141   H172    1.109   .     S
C142   O184    1.415   .     S
C142   H176    1.113   .     S
C142   H177    1.113   .     S
C142   H175    1.104   .     S
C143   O185    1.413   .     S
C143   H156    1.109   .     S
C143   H157    1.115   .     S
C143   H178    1.108   .     S
C144   O189    1.290   .     A
C144   O191    1.284   .     A
C145   H160    1.114   .     S
C145   H158    1.109   .     S
C145   O186    1.410   .     S
C145   H159    1.113   .     S
C146   H163    1.110   .     S
C146   O187    1.413   .     S
C146   H162    1.109   .     S
C146   H161    1.116   .     S
C147   O188    1.414   .     S
C147   H164    1.110   .     S
C147   H167    1.116   .     S
C147   H165    1.108   .     S
C148   O194    1.285   .     A
C148   O192    1.281   .     A
C148   C150    1.400   .     S
C149   O195    1.284   .     A
C149   C151    1.400   .     S
C149   O193    1.281   .     A
C151   C18     1.330   1_655 S
C151   H34     1.087   1_655 S
C152   O196    1.384   .     S
C152   C550    1.384   1_545 S
C153   O184    1.384   .     S
C153   C332    1.378   .     S
C154   O185    1.387   .     S
C154   C350    1.384   .     S
H155   C18     1.087   1_655 S
H168   N181    1.041   .     S
H169   N181    1.046   .     S
H170   N182    1.043   .     S
H171   N182    1.046   .     S
N179   Zn197   2.021   .     S
N180   Zn198   2.021   .     S
O183   Zn197   1.990   .     S
O189   Zn198   1.990   .     S
O190   Zn198   2.001   .     S
O191   Zn197   2.001   .     S
O192   Zn197   1.965   .     S
O193   Zn198   1.965   .     S
O194   Zn198   1.976   .     S
O195   Zn197   1.976   .     S
C199   C202    1.414   .     S
C199   O256    1.285   .     A
C199   O249    1.285   .     A
C200   C202    1.399   .     A
C200   O252    1.385   .     S
C201   C219    1.405   .     A
C201   C210    1.421   .     S
C201   C220    1.408   .     A
C202   C218    1.406   .     A
C203   O253    1.381   .     S
C203   N246    1.372   .     A
C203   C1393   1.428   1_554 S
C204   N245    1.372   .     A
C204   O254    1.381   .     S
C204   C800    1.430   .     S
C205   N247    1.430   .     S
C205   N245    1.370   .     A
C205   C797    1.428   .     S
C206   N246    1.368   .     A
C206   N248    1.429   .     S
C206   C1392   1.430   1_554 S
C207   O262    1.414   .     S
C207   H239    1.113   .     S
C207   H240    1.108   .     S
C207   H238    1.109   .     S
C208   O250    1.415   .     S
C208   H242    1.113   .     S
C208   H243    1.113   .     S
C208   H241    1.104   .     S
C209   O251    1.413   .     S
C209   H222    1.109   .     S
C209   H223    1.115   .     S
C209   H244    1.108   .     S
C210   O255    1.290   .     A
C210   O257    1.284   .     A
C211   H226    1.114   .     S
C211   H224    1.109   .     S
C211   O252    1.410   .     S
C211   H225    1.113   .     S
C212   H229    1.110   .     S
C212   O253    1.413   .     S
C212   H228    1.109   .     S
C212   H227    1.116   .     S
C213   O254    1.414   .     S
C213   H230    1.110   .     S
C213   H233    1.116   .     S
C213   H231    1.108   .     S
C214   O260    1.285   .     A
C214   O258    1.281   .     A
C214   C216    1.400   .     S
C215   O261    1.284   .     A
C215   C217    1.400   .     S
C215   O259    1.281   .     A
C216   C349    1.330   1_455 S
C216   H353    1.087   1_455 S
C217   C282    1.330   .     S
C217   H298    1.087   .     S
C218   O262    1.384   .     S
C219   O250    1.384   .     S
C219   C398    1.378   .     S
C220   O251    1.387   .     S
C220   C416    1.384   .     S
H221   C282    1.087   .     S
H232   C349    1.087   1_455 S
H234   N247    1.041   .     S
H235   N247    1.046   .     S
H236   N248    1.043   .     S
H237   N248    1.046   .     S
N245   Zn263   2.021   .     S
N246   Zn264   2.021   .     S
O249   Zn263   1.990   .     S
O255   Zn264   1.990   .     S
O256   Zn264   2.001   .     S
O257   Zn263   2.001   .     S
O258   Zn263   1.965   .     S
O259   Zn264   1.965   .     S
O260   Zn264   1.976   .     S
O261   Zn263   1.976   .     S
C265   C268    1.414   .     S
C265   O322    1.285   .     A
C265   O315    1.285   .     A
C266   C268    1.399   .     A
C266   O318    1.385   .     S
C267   C285    1.405   .     A
C267   C276    1.421   .     S
C267   C286    1.408   .     A
C268   C284    1.406   .     A
C269   O319    1.381   .     S
C269   N312    1.372   .     A
C269   C1459   1.428   1_554 S
C270   N311    1.372   .     A
C270   O320    1.381   .     S
C270   C866    1.430   .     S
C271   N313    1.430   .     S
C271   N311    1.370   .     A
C271   C863    1.428   .     S
C272   N312    1.368   .     A
C272   N314    1.429   .     S
C272   C1458   1.430   1_554 S
C273   O328    1.414   .     S
C273   H305    1.113   .     S
C273   H306    1.108   .     S
C273   H304    1.109   .     S
C274   O316    1.415   .     S
C274   H308    1.113   .     S
C274   H309    1.113   .     S
C274   H307    1.104   .     S
C275   O317    1.413   .     S
C275   H288    1.109   .     S
C275   H289    1.115   .     S
C275   H310    1.108   .     S
C276   O321    1.290   .     A
C276   O323    1.284   .     A
C277   H292    1.114   .     S
C277   H290    1.109   .     S
C277   O318    1.410   .     S
C277   H291    1.113   .     S
C278   H295    1.110   .     S
C278   O319    1.413   .     S
C278   H294    1.109   .     S
C278   H293    1.116   .     S
C279   O320    1.414   .     S
C279   H296    1.110   .     S
C279   H299    1.116   .     S
C279   H297    1.108   .     S
C280   O326    1.285   .     A
C280   O324    1.281   .     A
C280   C282    1.400   .     S
C281   O327    1.284   .     A
C281   C283    1.400   .     S
C281   O325    1.281   .     A
C283   C348    1.330   .     S
C283   H364    1.087   .     S
C284   O328    1.384   .     S
C285   O316    1.384   .     S
C285   C464    1.378   .     S
C286   O317    1.387   .     S
C286   C482    1.384   .     S
H287   C348    1.087   .     S
H300   N313    1.041   .     S
H301   N313    1.046   .     S
H302   N314    1.043   .     S
H303   N314    1.046   .     S
N311   Zn329   2.021   .     S
N312   Zn330   2.021   .     S
O315   Zn329   1.990   .     S
O321   Zn330   1.990   .     S
O322   Zn330   2.001   .     S
O323   Zn329   2.001   .     S
O324   Zn329   1.965   .     S
O325   Zn330   1.965   .     S
O326   Zn330   1.976   .     S
O327   Zn329   1.976   .     S
C331   C334    1.414   .     S
C331   O388    1.285   .     A
C331   O381    1.285   .     A
C332   C334    1.399   .     A
C332   O384    1.385   .     S
C333   C351    1.405   .     A
C333   C342    1.421   .     S
C333   C352    1.408   .     A
C334   C350    1.406   .     A
C335   O385    1.381   .     S
C335   N378    1.372   .     A
C335   C1525   1.428   1_554 S
C336   N377    1.372   .     A
C336   O386    1.381   .     S
C336   C932    1.430   .     S
C337   N379    1.430   .     S
C337   N377    1.370   .     A
C337   C929    1.428   .     S
C338   N378    1.368   .     A
C338   N380    1.429   .     S
C338   C1524   1.430   1_554 S
C339   O394    1.414   .     S
C339   H371    1.113   .     S
C339   H372    1.108   .     S
C339   H370    1.109   .     S
C340   O382    1.415   .     S
C340   H374    1.113   .     S
C340   H375    1.113   .     S
C340   H373    1.104   .     S
C341   O383    1.413   .     S
C341   H354    1.109   .     S
C341   H355    1.115   .     S
C341   H376    1.108   .     S
C342   O387    1.290   .     A
C342   O389    1.284   .     A
C343   H358    1.114   .     S
C343   H356    1.109   .     S
C343   O384    1.410   .     S
C343   H357    1.113   .     S
C344   H361    1.110   .     S
C344   O385    1.413   .     S
C344   H360    1.109   .     S
C344   H359    1.116   .     S
C345   O386    1.414   .     S
C345   H362    1.110   .     S
C345   H365    1.116   .     S
C345   H363    1.108   .     S
C346   O392    1.285   .     A
C346   O390    1.281   .     A
C346   C348    1.400   .     S
C347   O393    1.284   .     A
C347   C349    1.400   .     S
C347   O391    1.281   .     A
C349   C216    1.330   1_655 S
C349   H232    1.087   1_655 S
C350   O394    1.384   .     S
C351   O382    1.384   .     S
C351   C530    1.378   .     S
C352   O383    1.387   .     S
C352   C548    1.384   .     S
H353   C216    1.087   1_655 S
H366   N379    1.041   .     S
H367   N379    1.046   .     S
H368   N380    1.043   .     S
H369   N380    1.046   .     S
N377   Zn395   2.021   .     S
N378   Zn396   2.021   .     S
O381   Zn395   1.990   .     S
O387   Zn396   1.990   .     S
O388   Zn396   2.001   .     S
O389   Zn395   2.001   .     S
O390   Zn395   1.965   .     S
O391   Zn396   1.965   .     S
O392   Zn396   1.976   .     S
O393   Zn395   1.976   .     S
C397   C400    1.414   .     S
C397   O454    1.285   .     A
C397   O447    1.285   .     A
C398   C400    1.399   .     A
C398   O450    1.385   .     S
C399   C417    1.405   .     A
C399   C408    1.421   .     S
C399   C418    1.408   .     A
C400   C416    1.406   .     A
C401   O451    1.381   .     S
C401   N444    1.372   .     A
C401   C1591   1.428   1_554 S
C402   N443    1.372   .     A
C402   O452    1.381   .     S
C402   C998    1.430   .     S
C403   N445    1.430   .     S
C403   N443    1.370   .     A
C403   C995    1.428   .     S
C404   N444    1.368   .     A
C404   N446    1.429   .     S
C404   C1590   1.430   1_554 S
C405   O460    1.414   .     S
C405   H437    1.113   .     S
C405   H438    1.108   .     S
C405   H436    1.109   .     S
C406   O448    1.415   .     S
C406   H440    1.113   .     S
C406   H441    1.113   .     S
C406   H439    1.104   .     S
C407   O449    1.413   .     S
C407   H420    1.109   .     S
C407   H421    1.115   .     S
C407   H442    1.108   .     S
C408   O453    1.290   .     A
C408   O455    1.284   .     A
C409   H424    1.114   .     S
C409   H422    1.109   .     S
C409   O450    1.410   .     S
C409   H423    1.113   .     S
C410   H427    1.110   .     S
C410   O451    1.413   .     S
C410   H426    1.109   .     S
C410   H425    1.116   .     S
C411   O452    1.414   .     S
C411   H428    1.110   .     S
C411   H431    1.116   .     S
C411   H429    1.108   .     S
C412   O458    1.285   .     A
C412   O456    1.281   .     A
C412   C414    1.400   .     S
C413   O459    1.284   .     A
C413   C415    1.400   .     S
C413   O457    1.281   .     A
C414   C547    1.330   1_455 S
C414   H551    1.087   1_455 S
C415   C480    1.330   .     S
C415   H496    1.087   .     S
C416   O460    1.384   .     S
C417   O448    1.384   .     S
C417   C2      1.378   1_565 S
C418   O449    1.387   .     S
C418   C20     1.384   1_565 S
H419   C480    1.087   .     S
H430   C547    1.087   1_455 S
H432   N445    1.041   .     S
H433   N445    1.046   .     S
H434   N446    1.043   .     S
H435   N446    1.046   .     S
N443   Zn461   2.021   .     S
N444   Zn462   2.021   .     S
O447   Zn461   1.990   .     S
O453   Zn462   1.990   .     S
O454   Zn462   2.001   .     S
O455   Zn461   2.001   .     S
O456   Zn461   1.965   .     S
O457   Zn462   1.965   .     S
O458   Zn462   1.976   .     S
O459   Zn461   1.976   .     S
C463   C466    1.414   .     S
C463   O520    1.285   .     A
C463   O513    1.285   .     A
C464   C466    1.399   .     A
C464   O516    1.385   .     S
C465   C483    1.405   .     A
C465   C474    1.421   .     S
C465   C484    1.408   .     A
C466   C482    1.406   .     A
C467   O517    1.381   .     S
C467   N510    1.372   .     A
C467   C1657   1.428   1_554 S
C468   N509    1.372   .     A
C468   O518    1.381   .     S
C468   C1064   1.430   .     S
C469   N511    1.430   .     S
C469   N509    1.370   .     A
C469   C1061   1.428   .     S
C470   N510    1.368   .     A
C470   N512    1.429   .     S
C470   C1656   1.430   1_554 S
C471   O526    1.414   .     S
C471   H503    1.113   .     S
C471   H504    1.108   .     S
C471   H502    1.109   .     S
C472   O514    1.415   .     S
C472   H506    1.113   .     S
C472   H507    1.113   .     S
C472   H505    1.104   .     S
C473   O515    1.413   .     S
C473   H486    1.109   .     S
C473   H487    1.115   .     S
C473   H508    1.108   .     S
C474   O519    1.290   .     A
C474   O521    1.284   .     A
C475   H490    1.114   .     S
C475   H488    1.109   .     S
C475   O516    1.410   .     S
C475   H489    1.113   .     S
C476   H493    1.110   .     S
C476   O517    1.413   .     S
C476   H492    1.109   .     S
C476   H491    1.116   .     S
C477   O518    1.414   .     S
C477   H494    1.110   .     S
C477   H497    1.116   .     S
C477   H495    1.108   .     S
C478   O524    1.285   .     A
C478   O522    1.281   .     A
C478   C480    1.400   .     S
C479   O525    1.284   .     A
C479   C481    1.400   .     S
C479   O523    1.281   .     A
C481   C546    1.330   .     S
C481   H562    1.087   .     S
C482   O526    1.384   .     S
C483   O514    1.384   .     S
C483   C68     1.378   1_565 S
C484   O515    1.387   .     S
C484   C86     1.384   1_565 S
H485   C546    1.087   .     S
H498   N511    1.041   .     S
H499   N511    1.046   .     S
H500   N512    1.043   .     S
H501   N512    1.046   .     S
N509   Zn527   2.021   .     S
N510   Zn528   2.021   .     S
O513   Zn527   1.990   .     S
O519   Zn528   1.990   .     S
O520   Zn528   2.001   .     S
O521   Zn527   2.001   .     S
O522   Zn527   1.965   .     S
O523   Zn528   1.965   .     S
O524   Zn528   1.976   .     S
O525   Zn527   1.976   .     S
C529   C532    1.414   .     S
C529   O586    1.285   .     A
C529   O579    1.285   .     A
C530   C532    1.399   .     A
C530   O582    1.385   .     S
C531   C549    1.405   .     A
C531   C540    1.421   .     S
C531   C550    1.408   .     A
C532   C548    1.406   .     A
C533   O583    1.381   .     S
C533   N576    1.372   .     A
C533   C1723   1.428   1_554 S
C534   N575    1.372   .     A
C534   O584    1.381   .     S
C534   C1130   1.430   .     S
C535   N577    1.430   .     S
C535   N575    1.370   .     A
C535   C1127   1.428   .     S
C536   N576    1.368   .     A
C536   N578    1.429   .     S
C536   C1722   1.430   1_554 S
C537   O592    1.414   .     S
C537   H569    1.113   .     S
C537   H570    1.108   .     S
C537   H568    1.109   .     S
C538   O580    1.415   .     S
C538   H572    1.113   .     S
C538   H573    1.113   .     S
C538   H571    1.104   .     S
C539   O581    1.413   .     S
C539   H552    1.109   .     S
C539   H553    1.115   .     S
C539   H574    1.108   .     S
C540   O585    1.290   .     A
C540   O587    1.284   .     A
C541   H556    1.114   .     S
C541   H554    1.109   .     S
C541   O582    1.410   .     S
C541   H555    1.113   .     S
C542   H559    1.110   .     S
C542   O583    1.413   .     S
C542   H558    1.109   .     S
C542   H557    1.116   .     S
C543   O584    1.414   .     S
C543   H560    1.110   .     S
C543   H563    1.116   .     S
C543   H561    1.108   .     S
C544   O590    1.285   .     A
C544   O588    1.281   .     A
C544   C546    1.400   .     S
C545   O591    1.284   .     A
C545   C547    1.400   .     S
C545   O589    1.281   .     A
C547   C414    1.330   1_655 S
C547   H430    1.087   1_655 S
C548   O592    1.384   .     S
C549   O580    1.384   .     S
C549   C134    1.378   1_565 S
C550   O581    1.387   .     S
C550   C152    1.384   1_565 S
H551   C414    1.087   1_655 S
H564   N577    1.041   .     S
H565   N577    1.046   .     S
H566   N578    1.043   .     S
H567   N578    1.046   .     S
N575   Zn593   2.021   .     S
N576   Zn594   2.021   .     S
O579   Zn593   1.990   .     S
O585   Zn594   1.990   .     S
O586   Zn594   2.001   .     S
O587   Zn593   2.001   .     S
O588   Zn593   1.965   .     S
O589   Zn594   1.965   .     S
O590   Zn594   1.976   .     S
O591   Zn593   1.976   .     S
C595   C598    1.414   .     S
C595   O652    1.285   .     A
C595   O645    1.285   .     A
C596   C598    1.399   .     A
C596   O648    1.385   .     S
C596   C1011   1.378   1_545 S
C597   C615    1.405   .     A
C597   C606    1.421   .     S
C597   C616    1.408   .     A
C598   C614    1.406   .     A
C599   O649    1.381   .     S
C599   N642    1.372   .     A
C600   N641    1.372   .     A
C600   O650    1.381   .     S
C600   C1196   1.430   .     S
C601   N643    1.430   .     S
C601   N641    1.370   .     A
C601   C1193   1.428   .     S
C602   N642    1.368   .     A
C602   N644    1.429   .     S
C603   O658    1.414   .     S
C603   H635    1.113   .     S
C603   H636    1.108   .     S
C603   H634    1.109   .     S
C604   O646    1.415   .     S
C604   H638    1.113   .     S
C604   H639    1.113   .     S
C604   H637    1.104   .     S
C605   O647    1.413   .     S
C605   H618    1.109   .     S
C605   H619    1.115   .     S
C605   H640    1.108   .     S
C606   O651    1.290   .     A
C606   O653    1.284   .     A
C607   H622    1.114   .     S
C607   H620    1.109   .     S
C607   O648    1.410   .     S
C607   H621    1.113   .     S
C608   H625    1.110   .     S
C608   O649    1.413   .     S
C608   H624    1.109   .     S
C608   H623    1.116   .     S
C609   O650    1.414   .     S
C609   H626    1.110   .     S
C609   H629    1.116   .     S
C609   H627    1.108   .     S
C610   O656    1.285   .     A
C610   O654    1.281   .     A
C610   C612    1.400   .     S
C611   O657    1.284   .     A
C611   C613    1.400   .     S
C611   O655    1.281   .     A
C612   C745    1.330   1_455 S
C612   H749    1.087   1_455 S
C613   C678    1.330   .     S
C613   H694    1.087   .     S
C614   O658    1.384   .     S
C614   C1012   1.384   1_545 S
C615   O646    1.384   .     S
C615   C794    1.378   .     S
C616   O647    1.387   .     S
C616   C812    1.384   .     S
H617   C678    1.087   .     S
H628   C745    1.087   1_455 S
H630   N643    1.041   .     S
H631   N643    1.046   .     S
H632   N644    1.043   .     S
H633   N644    1.046   .     S
N641   Zn659   2.021   .     S
N642   Zn660   2.021   .     S
O645   Zn659   1.990   .     S
O651   Zn660   1.990   .     S
O652   Zn660   2.001   .     S
O653   Zn659   2.001   .     S
O654   Zn659   1.965   .     S
O655   Zn660   1.965   .     S
O656   Zn660   1.976   .     S
O657   Zn659   1.976   .     S
C661   C664    1.414   .     S
C661   O718    1.285   .     A
C661   O711    1.285   .     A
C662   C664    1.399   .     A
C662   O714    1.385   .     S
C662   C1077   1.378   1_545 S
C663   C681    1.405   .     A
C663   C672    1.421   .     S
C663   C682    1.408   .     A
C664   C680    1.406   .     A
C665   O715    1.381   .     S
C665   N708    1.372   .     A
C666   N707    1.372   .     A
C666   O716    1.381   .     S
C666   C1262   1.430   .     S
C667   N709    1.430   .     S
C667   N707    1.370   .     A
C667   C1259   1.428   .     S
C668   N708    1.368   .     A
C668   N710    1.429   .     S
C669   O724    1.414   .     S
C669   H701    1.113   .     S
C669   H702    1.108   .     S
C669   H700    1.109   .     S
C670   O712    1.415   .     S
C670   H704    1.113   .     S
C670   H705    1.113   .     S
C670   H703    1.104   .     S
C671   O713    1.413   .     S
C671   H684    1.109   .     S
C671   H685    1.115   .     S
C671   H706    1.108   .     S
C672   O717    1.290   .     A
C672   O719    1.284   .     A
C673   H688    1.114   .     S
C673   H686    1.109   .     S
C673   O714    1.410   .     S
C673   H687    1.113   .     S
C674   H691    1.110   .     S
C674   O715    1.413   .     S
C674   H690    1.109   .     S
C674   H689    1.116   .     S
C675   O716    1.414   .     S
C675   H692    1.110   .     S
C675   H695    1.116   .     S
C675   H693    1.108   .     S
C676   O722    1.285   .     A
C676   O720    1.281   .     A
C676   C678    1.400   .     S
C677   O723    1.284   .     A
C677   C679    1.400   .     S
C677   O721    1.281   .     A
C679   C744    1.330   .     S
C679   H760    1.087   .     S
C680   O724    1.384   .     S
C680   C1078   1.384   1_545 S
C681   O712    1.384   .     S
C681   C860    1.378   .     S
C682   O713    1.387   .     S
C682   C878    1.384   .     S
H683   C744    1.087   .     S
H696   N709    1.041   .     S
H697   N709    1.046   .     S
H698   N710    1.043   .     S
H699   N710    1.046   .     S
N707   Zn725   2.021   .     S
N708   Zn726   2.021   .     S
O711   Zn725   1.990   .     S
O717   Zn726   1.990   .     S
O718   Zn726   2.001   .     S
O719   Zn725   2.001   .     S
O720   Zn725   1.965   .     S
O721   Zn726   1.965   .     S
O722   Zn726   1.976   .     S
O723   Zn725   1.976   .     S
C727   C730    1.414   .     S
C727   O784    1.285   .     A
C727   O777    1.285   .     A
C728   C730    1.399   .     A
C728   O780    1.385   .     S
C728   C1143   1.378   1_545 S
C729   C747    1.405   .     A
C729   C738    1.421   .     S
C729   C748    1.408   .     A
C730   C746    1.406   .     A
C731   O781    1.381   .     S
C731   N774    1.372   .     A
C732   N773    1.372   .     A
C732   O782    1.381   .     S
C732   C1328   1.430   .     S
C733   N775    1.430   .     S
C733   N773    1.370   .     A
C733   C1325   1.428   .     S
C734   N774    1.368   .     A
C734   N776    1.429   .     S
C735   O790    1.414   .     S
C735   H767    1.113   .     S
C735   H768    1.108   .     S
C735   H766    1.109   .     S
C736   O778    1.415   .     S
C736   H770    1.113   .     S
C736   H771    1.113   .     S
C736   H769    1.104   .     S
C737   O779    1.413   .     S
C737   H750    1.109   .     S
C737   H751    1.115   .     S
C737   H772    1.108   .     S
C738   O783    1.290   .     A
C738   O785    1.284   .     A
C739   H754    1.114   .     S
C739   H752    1.109   .     S
C739   O780    1.410   .     S
C739   H753    1.113   .     S
C740   H757    1.110   .     S
C740   O781    1.413   .     S
C740   H756    1.109   .     S
C740   H755    1.116   .     S
C741   O782    1.414   .     S
C741   H758    1.110   .     S
C741   H761    1.116   .     S
C741   H759    1.108   .     S
C742   O788    1.285   .     A
C742   O786    1.281   .     A
C742   C744    1.400   .     S
C743   O789    1.284   .     A
C743   C745    1.400   .     S
C743   O787    1.281   .     A
C745   C612    1.330   1_655 S
C745   H628    1.087   1_655 S
C746   O790    1.384   .     S
C746   C1144   1.384   1_545 S
C747   O778    1.384   .     S
C747   C926    1.378   .     S
C748   O779    1.387   .     S
C748   C944    1.384   .     S
H749   C612    1.087   1_655 S
H762   N775    1.041   .     S
H763   N775    1.046   .     S
H764   N776    1.043   .     S
H765   N776    1.046   .     S
N773   Zn791   2.021   .     S
N774   Zn792   2.021   .     S
O777   Zn791   1.990   .     S
O783   Zn792   1.990   .     S
O784   Zn792   2.001   .     S
O785   Zn791   2.001   .     S
O786   Zn791   1.965   .     S
O787   Zn792   1.965   .     S
O788   Zn792   1.976   .     S
O789   Zn791   1.976   .     S
C793   C796    1.414   .     S
C793   O850    1.285   .     A
C793   O843    1.285   .     A
C794   C796    1.399   .     A
C794   O846    1.385   .     S
C795   C813    1.405   .     A
C795   C804    1.421   .     S
C795   C814    1.408   .     A
C796   C812    1.406   .     A
C797   O847    1.381   .     S
C797   N840    1.372   .     A
C798   N839    1.372   .     A
C798   O848    1.381   .     S
C798   C1394   1.430   .     S
C799   N841    1.430   .     S
C799   N839    1.370   .     A
C799   C1391   1.428   .     S
C800   N840    1.368   .     A
C800   N842    1.429   .     S
C801   O856    1.414   .     S
C801   H833    1.113   .     S
C801   H834    1.108   .     S
C801   H832    1.109   .     S
C802   O844    1.415   .     S
C802   H836    1.113   .     S
C802   H837    1.113   .     S
C802   H835    1.104   .     S
C803   O845    1.413   .     S
C803   H816    1.109   .     S
C803   H817    1.115   .     S
C803   H838    1.108   .     S
C804   O849    1.290   .     A
C804   O851    1.284   .     A
C805   H820    1.114   .     S
C805   H818    1.109   .     S
C805   O846    1.410   .     S
C805   H819    1.113   .     S
C806   H823    1.110   .     S
C806   O847    1.413   .     S
C806   H822    1.109   .     S
C806   H821    1.116   .     S
C807   O848    1.414   .     S
C807   H824    1.110   .     S
C807   H827    1.116   .     S
C807   H825    1.108   .     S
C808   O854    1.285   .     A
C808   O852    1.281   .     A
C808   C810    1.400   .     S
C809   O855    1.284   .     A
C809   C811    1.400   .     S
C809   O853    1.281   .     A
C810   C943    1.330   1_455 S
C810   H947    1.087   1_455 S
C811   C876    1.330   .     S
C811   H892    1.087   .     S
C812   O856    1.384   .     S
C813   O844    1.384   .     S
C813   C992    1.378   .     S
C814   O845    1.387   .     S
C814   C1010   1.384   .     S
H815   C876    1.087   .     S
H826   C943    1.087   1_455 S
H828   N841    1.041   .     S
H829   N841    1.046   .     S
H830   N842    1.043   .     S
H831   N842    1.046   .     S
N839   Zn857   2.021   .     S
N840   Zn858   2.021   .     S
O843   Zn857   1.990   .     S
O849   Zn858   1.990   .     S
O850   Zn858   2.001   .     S
O851   Zn857   2.001   .     S
O852   Zn857   1.965   .     S
O853   Zn858   1.965   .     S
O854   Zn858   1.976   .     S
O855   Zn857   1.976   .     S
C859   C862    1.414   .     S
C859   O916    1.285   .     A
C859   O909    1.285   .     A
C860   C862    1.399   .     A
C860   O912    1.385   .     S
C861   C879    1.405   .     A
C861   C870    1.421   .     S
C861   C880    1.408   .     A
C862   C878    1.406   .     A
C863   O913    1.381   .     S
C863   N906    1.372   .     A
C864   N905    1.372   .     A
C864   O914    1.381   .     S
C864   C1460   1.430   .     S
C865   N907    1.430   .     S
C865   N905    1.370   .     A
C865   C1457   1.428   .     S
C866   N906    1.368   .     A
C866   N908    1.429   .     S
C867   O922    1.414   .     S
C867   H899    1.113   .     S
C867   H900    1.108   .     S
C867   H898    1.109   .     S
C868   O910    1.415   .     S
C868   H902    1.113   .     S
C868   H903    1.113   .     S
C868   H901    1.104   .     S
C869   O911    1.413   .     S
C869   H882    1.109   .     S
C869   H883    1.115   .     S
C869   H904    1.108   .     S
C870   O915    1.290   .     A
C870   O917    1.284   .     A
C871   H886    1.114   .     S
C871   H884    1.109   .     S
C871   O912    1.410   .     S
C871   H885    1.113   .     S
C872   H889    1.110   .     S
C872   O913    1.413   .     S
C872   H888    1.109   .     S
C872   H887    1.116   .     S
C873   O914    1.414   .     S
C873   H890    1.110   .     S
C873   H893    1.116   .     S
C873   H891    1.108   .     S
C874   O920    1.285   .     A
C874   O918    1.281   .     A
C874   C876    1.400   .     S
C875   O921    1.284   .     A
C875   C877    1.400   .     S
C875   O919    1.281   .     A
C877   C942    1.330   .     S
C877   H958    1.087   .     S
C878   O922    1.384   .     S
C879   O910    1.384   .     S
C879   C1058   1.378   .     S
C880   O911    1.387   .     S
C880   C1076   1.384   .     S
H881   C942    1.087   .     S
H894   N907    1.041   .     S
H895   N907    1.046   .     S
H896   N908    1.043   .     S
H897   N908    1.046   .     S
N905   Zn923   2.021   .     S
N906   Zn924   2.021   .     S
O909   Zn923   1.990   .     S
O915   Zn924   1.990   .     S
O916   Zn924   2.001   .     S
O917   Zn923   2.001   .     S
O918   Zn923   1.965   .     S
O919   Zn924   1.965   .     S
O920   Zn924   1.976   .     S
O921   Zn923   1.976   .     S
C925   C928    1.414   .     S
C925   O982    1.285   .     A
C925   O975    1.285   .     A
C926   C928    1.399   .     A
C926   O978    1.385   .     S
C927   C945    1.405   .     A
C927   C936    1.421   .     S
C927   C946    1.408   .     A
C928   C944    1.406   .     A
C929   O979    1.381   .     S
C929   N972    1.372   .     A
C930   N971    1.372   .     A
C930   O980    1.381   .     S
C930   C1526   1.430   .     S
C931   N973    1.430   .     S
C931   N971    1.370   .     A
C931   C1523   1.428   .     S
C932   N972    1.368   .     A
C932   N974    1.429   .     S
C933   O988    1.414   .     S
C933   H965    1.113   .     S
C933   H966    1.108   .     S
C933   H964    1.109   .     S
C934   O976    1.415   .     S
C934   H968    1.113   .     S
C934   H969    1.113   .     S
C934   H967    1.104   .     S
C935   O977    1.413   .     S
C935   H948    1.109   .     S
C935   H949    1.115   .     S
C935   H970    1.108   .     S
C936   O981    1.290   .     A
C936   O983    1.284   .     A
C937   H952    1.114   .     S
C937   H950    1.109   .     S
C937   O978    1.410   .     S
C937   H951    1.113   .     S
C938   H955    1.110   .     S
C938   O979    1.413   .     S
C938   H954    1.109   .     S
C938   H953    1.116   .     S
C939   O980    1.414   .     S
C939   H956    1.110   .     S
C939   H959    1.116   .     S
C939   H957    1.108   .     S
C940   O986    1.285   .     A
C940   O984    1.281   .     A
C940   C942    1.400   .     S
C941   O987    1.284   .     A
C941   C943    1.400   .     S
C941   O985    1.281   .     A
C943   C810    1.330   1_655 S
C943   H826    1.087   1_655 S
C944   O988    1.384   .     S
C945   O976    1.384   .     S
C945   C1124   1.378   .     S
C946   O977    1.387   .     S
C946   C1142   1.384   .     S
H947   C810    1.087   1_655 S
H960   N973    1.041   .     S
H961   N973    1.046   .     S
H962   N974    1.043   .     S
H963   N974    1.046   .     S
N971   Zn989   2.021   .     S
N972   Zn990   2.021   .     S
O975   Zn989   1.990   .     S
O981   Zn990   1.990   .     S
O982   Zn990   2.001   .     S
O983   Zn989   2.001   .     S
O984   Zn989   1.965   .     S
O985   Zn990   1.965   .     S
O986   Zn990   1.976   .     S
O987   Zn989   1.976   .     S
C991   C994    1.414   .     S
C991   O1048   1.285   .     A
C991   O1041   1.285   .     A
C992   C994    1.399   .     A
C992   O1044   1.385   .     S
C993   C1011   1.405   .     A
C993   C1002   1.421   .     S
C993   C1012   1.408   .     A
C994   C1010   1.406   .     A
C995   O1045   1.381   .     S
C995   N1038   1.372   .     A
C996   N1037   1.372   .     A
C996   O1046   1.381   .     S
C996   C1592   1.430   .     S
C997   N1039   1.430   .     S
C997   N1037   1.370   .     A
C997   C1589   1.428   .     S
C998   N1038   1.368   .     A
C998   N1040   1.429   .     S
C999   O1054   1.414   .     S
C999   H1031   1.113   .     S
C999   H1032   1.108   .     S
C999   H1030   1.109   .     S
C1000  O1042   1.415   .     S
C1000  H1034   1.113   .     S
C1000  H1035   1.113   .     S
C1000  H1033   1.104   .     S
C1001  O1043   1.413   .     S
C1001  H1014   1.109   .     S
C1001  H1015   1.115   .     S
C1001  H1036   1.108   .     S
C1002  O1047   1.290   .     A
C1002  O1049   1.284   .     A
C1003  H1018   1.114   .     S
C1003  H1016   1.109   .     S
C1003  O1044   1.410   .     S
C1003  H1017   1.113   .     S
C1004  H1021   1.110   .     S
C1004  O1045   1.413   .     S
C1004  H1020   1.109   .     S
C1004  H1019   1.116   .     S
C1005  O1046   1.414   .     S
C1005  H1022   1.110   .     S
C1005  H1025   1.116   .     S
C1005  H1023   1.108   .     S
C1006  O1052   1.285   .     A
C1006  O1050   1.281   .     A
C1006  C1008   1.400   .     S
C1007  O1053   1.284   .     A
C1007  C1009   1.400   .     S
C1007  O1051   1.281   .     A
C1008  C1141   1.330   1_455 S
C1008  H1145   1.087   1_455 S
C1009  C1074   1.330   .     S
C1009  H1090   1.087   .     S
C1010  O1054   1.384   .     S
C1011  O1042   1.384   .     S
C1011  C596    1.378   1_565 S
C1012  O1043   1.387   .     S
C1012  C614    1.384   1_565 S
H1013  C1074   1.087   .     S
H1024  C1141   1.087   1_455 S
H1026  N1039   1.041   .     S
H1027  N1039   1.046   .     S
H1028  N1040   1.043   .     S
H1029  N1040   1.046   .     S
N1037  Zn1055  2.021   .     S
N1038  Zn1056  2.021   .     S
O1041  Zn1055  1.990   .     S
O1047  Zn1056  1.990   .     S
O1048  Zn1056  2.001   .     S
O1049  Zn1055  2.001   .     S
O1050  Zn1055  1.965   .     S
O1051  Zn1056  1.965   .     S
O1052  Zn1056  1.976   .     S
O1053  Zn1055  1.976   .     S
C1057  C1060   1.414   .     S
C1057  O1114   1.285   .     A
C1057  O1107   1.285   .     A
C1058  C1060   1.399   .     A
C1058  O1110   1.385   .     S
C1059  C1077   1.405   .     A
C1059  C1068   1.421   .     S
C1059  C1078   1.408   .     A
C1060  C1076   1.406   .     A
C1061  O1111   1.381   .     S
C1061  N1104   1.372   .     A
C1062  N1103   1.372   .     A
C1062  O1112   1.381   .     S
C1062  C1658   1.430   .     S
C1063  N1105   1.430   .     S
C1063  N1103   1.370   .     A
C1063  C1655   1.428   .     S
C1064  N1104   1.368   .     A
C1064  N1106   1.429   .     S
C1065  O1120   1.414   .     S
C1065  H1097   1.113   .     S
C1065  H1098   1.108   .     S
C1065  H1096   1.109   .     S
C1066  O1108   1.415   .     S
C1066  H1100   1.113   .     S
C1066  H1101   1.113   .     S
C1066  H1099   1.104   .     S
C1067  O1109   1.413   .     S
C1067  H1080   1.109   .     S
C1067  H1081   1.115   .     S
C1067  H1102   1.108   .     S
C1068  O1113   1.290   .     A
C1068  O1115   1.284   .     A
C1069  H1084   1.114   .     S
C1069  H1082   1.109   .     S
C1069  O1110   1.410   .     S
C1069  H1083   1.113   .     S
C1070  H1087   1.110   .     S
C1070  O1111   1.413   .     S
C1070  H1086   1.109   .     S
C1070  H1085   1.116   .     S
C1071  O1112   1.414   .     S
C1071  H1088   1.110   .     S
C1071  H1091   1.116   .     S
C1071  H1089   1.108   .     S
C1072  O1118   1.285   .     A
C1072  O1116   1.281   .     A
C1072  C1074   1.400   .     S
C1073  O1119   1.284   .     A
C1073  C1075   1.400   .     S
C1073  O1117   1.281   .     A
C1075  C1140   1.330   .     S
C1075  H1156   1.087   .     S
C1076  O1120   1.384   .     S
C1077  O1108   1.384   .     S
C1077  C662    1.378   1_565 S
C1078  O1109   1.387   .     S
C1078  C680    1.384   1_565 S
H1079  C1140   1.087   .     S
H1092  N1105   1.041   .     S
H1093  N1105   1.046   .     S
H1094  N1106   1.043   .     S
H1095  N1106   1.046   .     S
N1103  Zn1121  2.021   .     S
N1104  Zn1122  2.021   .     S
O1107  Zn1121  1.990   .     S
O1113  Zn1122  1.990   .     S
O1114  Zn1122  2.001   .     S
O1115  Zn1121  2.001   .     S
O1116  Zn1121  1.965   .     S
O1117  Zn1122  1.965   .     S
O1118  Zn1122  1.976   .     S
O1119  Zn1121  1.976   .     S
C1123  C1126   1.414   .     S
C1123  O1180   1.285   .     A
C1123  O1173   1.285   .     A
C1124  C1126   1.399   .     A
C1124  O1176   1.385   .     S
C1125  C1143   1.405   .     A
C1125  C1134   1.421   .     S
C1125  C1144   1.408   .     A
C1126  C1142   1.406   .     A
C1127  O1177   1.381   .     S
C1127  N1170   1.372   .     A
C1128  N1169   1.372   .     A
C1128  O1178   1.381   .     S
C1128  C1724   1.430   .     S
C1129  N1171   1.430   .     S
C1129  N1169   1.370   .     A
C1129  C1721   1.428   .     S
C1130  N1170   1.368   .     A
C1130  N1172   1.429   .     S
C1131  O1186   1.414   .     S
C1131  H1163   1.113   .     S
C1131  H1164   1.108   .     S
C1131  H1162   1.109   .     S
C1132  O1174   1.415   .     S
C1132  H1166   1.113   .     S
C1132  H1167   1.113   .     S
C1132  H1165   1.104   .     S
C1133  O1175   1.413   .     S
C1133  H1146   1.109   .     S
C1133  H1147   1.115   .     S
C1133  H1168   1.108   .     S
C1134  O1179   1.290   .     A
C1134  O1181   1.284   .     A
C1135  H1150   1.114   .     S
C1135  H1148   1.109   .     S
C1135  O1176   1.410   .     S
C1135  H1149   1.113   .     S
C1136  H1153   1.110   .     S
C1136  O1177   1.413   .     S
C1136  H1152   1.109   .     S
C1136  H1151   1.116   .     S
C1137  O1178   1.414   .     S
C1137  H1154   1.110   .     S
C1137  H1157   1.116   .     S
C1137  H1155   1.108   .     S
C1138  O1184   1.285   .     A
C1138  O1182   1.281   .     A
C1138  C1140   1.400   .     S
C1139  O1185   1.284   .     A
C1139  C1141   1.400   .     S
C1139  O1183   1.281   .     A
C1141  C1008   1.330   1_655 S
C1141  H1024   1.087   1_655 S
C1142  O1186   1.384   .     S
C1143  O1174   1.384   .     S
C1143  C728    1.378   1_565 S
C1144  O1175   1.387   .     S
C1144  C746    1.384   1_565 S
H1145  C1008   1.087   1_655 S
H1158  N1171   1.041   .     S
H1159  N1171   1.046   .     S
H1160  N1172   1.043   .     S
H1161  N1172   1.046   .     S
N1169  Zn1187  2.021   .     S
N1170  Zn1188  2.021   .     S
O1173  Zn1187  1.990   .     S
O1179  Zn1188  1.990   .     S
O1180  Zn1188  2.001   .     S
O1181  Zn1187  2.001   .     S
O1182  Zn1187  1.965   .     S
O1183  Zn1188  1.965   .     S
O1184  Zn1188  1.976   .     S
O1185  Zn1187  1.976   .     S
C1189  C1192   1.414   .     S
C1189  O1246   1.285   .     A
C1189  O1239   1.285   .     A
C1190  C1192   1.399   .     A
C1190  O1242   1.385   .     S
C1190  C1605   1.378   1_545 S
C1191  C1209   1.405   .     A
C1191  C1200   1.421   .     S
C1191  C1210   1.408   .     A
C1192  C1208   1.406   .     A
C1193  O1243   1.381   .     S
C1193  N1236   1.372   .     A
C1194  N1235   1.372   .     A
C1194  O1244   1.381   .     S
C1194  C8      1.430   1_556 S
C1195  N1237   1.430   .     S
C1195  N1235   1.370   .     A
C1195  C5      1.428   1_556 S
C1196  N1236   1.368   .     A
C1196  N1238   1.429   .     S
C1197  O1252   1.414   .     S
C1197  H1229   1.113   .     S
C1197  H1230   1.108   .     S
C1197  H1228   1.109   .     S
C1198  O1240   1.415   .     S
C1198  H1232   1.113   .     S
C1198  H1233   1.113   .     S
C1198  H1231   1.104   .     S
C1199  O1241   1.413   .     S
C1199  H1212   1.109   .     S
C1199  H1213   1.115   .     S
C1199  H1234   1.108   .     S
C1200  O1245   1.290   .     A
C1200  O1247   1.284   .     A
C1201  H1216   1.114   .     S
C1201  H1214   1.109   .     S
C1201  O1242   1.410   .     S
C1201  H1215   1.113   .     S
C1202  H1219   1.110   .     S
C1202  O1243   1.413   .     S
C1202  H1218   1.109   .     S
C1202  H1217   1.116   .     S
C1203  O1244   1.414   .     S
C1203  H1220   1.110   .     S
C1203  H1223   1.116   .     S
C1203  H1221   1.108   .     S
C1204  O1250   1.285   .     A
C1204  O1248   1.281   .     A
C1204  C1206   1.400   .     S
C1205  O1251   1.284   .     A
C1205  C1207   1.400   .     S
C1205  O1249   1.281   .     A
C1206  C1339   1.330   1_455 S
C1206  H1343   1.087   1_455 S
C1207  C1272   1.330   .     S
C1207  H1288   1.087   .     S
C1208  O1252   1.384   .     S
C1208  C1606   1.384   1_545 S
C1209  O1240   1.384   .     S
C1209  C1388   1.378   .     S
C1210  O1241   1.387   .     S
C1210  C1406   1.384   .     S
H1211  C1272   1.087   .     S
H1222  C1339   1.087   1_455 S
H1224  N1237   1.041   .     S
H1225  N1237   1.046   .     S
H1226  N1238   1.043   .     S
H1227  N1238   1.046   .     S
N1235  Zn1253  2.021   .     S
N1236  Zn1254  2.021   .     S
O1239  Zn1253  1.990   .     S
O1245  Zn1254  1.990   .     S
O1246  Zn1254  2.001   .     S
O1247  Zn1253  2.001   .     S
O1248  Zn1253  1.965   .     S
O1249  Zn1254  1.965   .     S
O1250  Zn1254  1.976   .     S
O1251  Zn1253  1.976   .     S
C1255  C1258   1.414   .     S
C1255  O1312   1.285   .     A
C1255  O1305   1.285   .     A
C1256  C1258   1.399   .     A
C1256  O1308   1.385   .     S
C1256  C1671   1.378   1_545 S
C1257  C1275   1.405   .     A
C1257  C1266   1.421   .     S
C1257  C1276   1.408   .     A
C1258  C1274   1.406   .     A
C1259  O1309   1.381   .     S
C1259  N1302   1.372   .     A
C1260  N1301   1.372   .     A
C1260  O1310   1.381   .     S
C1260  C74     1.430   1_556 S
C1261  N1303   1.430   .     S
C1261  N1301   1.370   .     A
C1261  C71     1.428   1_556 S
C1262  N1302   1.368   .     A
C1262  N1304   1.429   .     S
C1263  O1318   1.414   .     S
C1263  H1295   1.113   .     S
C1263  H1296   1.108   .     S
C1263  H1294   1.109   .     S
C1264  O1306   1.415   .     S
C1264  H1298   1.113   .     S
C1264  H1299   1.113   .     S
C1264  H1297   1.104   .     S
C1265  O1307   1.413   .     S
C1265  H1278   1.109   .     S
C1265  H1279   1.115   .     S
C1265  H1300   1.108   .     S
C1266  O1311   1.290   .     A
C1266  O1313   1.284   .     A
C1267  H1282   1.114   .     S
C1267  H1280   1.109   .     S
C1267  O1308   1.410   .     S
C1267  H1281   1.113   .     S
C1268  H1285   1.110   .     S
C1268  O1309   1.413   .     S
C1268  H1284   1.109   .     S
C1268  H1283   1.116   .     S
C1269  O1310   1.414   .     S
C1269  H1286   1.110   .     S
C1269  H1289   1.116   .     S
C1269  H1287   1.108   .     S
C1270  O1316   1.285   .     A
C1270  O1314   1.281   .     A
C1270  C1272   1.400   .     S
C1271  O1317   1.284   .     A
C1271  C1273   1.400   .     S
C1271  O1315   1.281   .     A
C1273  C1338   1.330   .     S
C1273  H1354   1.087   .     S
C1274  O1318   1.384   .     S
C1274  C1672   1.384   1_545 S
C1275  O1306   1.384   .     S
C1275  C1454   1.378   .     S
C1276  O1307   1.387   .     S
C1276  C1472   1.384   .     S
H1277  C1338   1.087   .     S
H1290  N1303   1.041   .     S
H1291  N1303   1.046   .     S
H1292  N1304   1.043   .     S
H1293  N1304   1.046   .     S
N1301  Zn1319  2.021   .     S
N1302  Zn1320  2.021   .     S
O1305  Zn1319  1.990   .     S
O1311  Zn1320  1.990   .     S
O1312  Zn1320  2.001   .     S
O1313  Zn1319  2.001   .     S
O1314  Zn1319  1.965   .     S
O1315  Zn1320  1.965   .     S
O1316  Zn1320  1.976   .     S
O1317  Zn1319  1.976   .     S
C1321  C1324   1.414   .     S
C1321  O1378   1.285   .     A
C1321  O1371   1.285   .     A
C1322  C1324   1.399   .     A
C1322  O1374   1.385   .     S
C1322  C1737   1.378   1_545 S
C1323  C1341   1.405   .     A
C1323  C1332   1.421   .     S
C1323  C1342   1.408   .     A
C1324  C1340   1.406   .     A
C1325  O1375   1.381   .     S
C1325  N1368   1.372   .     A
C1326  N1367   1.372   .     A
C1326  O1376   1.381   .     S
C1326  C140    1.430   1_556 S
C1327  N1369   1.430   .     S
C1327  N1367   1.370   .     A
C1327  C137    1.428   1_556 S
C1328  N1368   1.368   .     A
C1328  N1370   1.429   .     S
C1329  O1384   1.414   .     S
C1329  H1361   1.113   .     S
C1329  H1362   1.108   .     S
C1329  H1360   1.109   .     S
C1330  O1372   1.415   .     S
C1330  H1364   1.113   .     S
C1330  H1365   1.113   .     S
C1330  H1363   1.104   .     S
C1331  O1373   1.413   .     S
C1331  H1344   1.109   .     S
C1331  H1345   1.115   .     S
C1331  H1366   1.108   .     S
C1332  O1377   1.290   .     A
C1332  O1379   1.284   .     A
C1333  H1348   1.114   .     S
C1333  H1346   1.109   .     S
C1333  O1374   1.410   .     S
C1333  H1347   1.113   .     S
C1334  H1351   1.110   .     S
C1334  O1375   1.413   .     S
C1334  H1350   1.109   .     S
C1334  H1349   1.116   .     S
C1335  O1376   1.414   .     S
C1335  H1352   1.110   .     S
C1335  H1355   1.116   .     S
C1335  H1353   1.108   .     S
C1336  O1382   1.285   .     A
C1336  O1380   1.281   .     A
C1336  C1338   1.400   .     S
C1337  O1383   1.284   .     A
C1337  C1339   1.400   .     S
C1337  O1381   1.281   .     A
C1339  C1206   1.330   1_655 S
C1339  H1222   1.087   1_655 S
C1340  O1384   1.384   .     S
C1340  C1738   1.384   1_545 S
C1341  O1372   1.384   .     S
C1341  C1520   1.378   .     S
C1342  O1373   1.387   .     S
C1342  C1538   1.384   .     S
H1343  C1206   1.087   1_655 S
H1356  N1369   1.041   .     S
H1357  N1369   1.046   .     S
H1358  N1370   1.043   .     S
H1359  N1370   1.046   .     S
N1367  Zn1385  2.021   .     S
N1368  Zn1386  2.021   .     S
O1371  Zn1385  1.990   .     S
O1377  Zn1386  1.990   .     S
O1378  Zn1386  2.001   .     S
O1379  Zn1385  2.001   .     S
O1380  Zn1385  1.965   .     S
O1381  Zn1386  1.965   .     S
O1382  Zn1386  1.976   .     S
O1383  Zn1385  1.976   .     S
C1387  C1390   1.414   .     S
C1387  O1444   1.285   .     A
C1387  O1437   1.285   .     A
C1388  C1390   1.399   .     A
C1388  O1440   1.385   .     S
C1389  C1407   1.405   .     A
C1389  C1398   1.421   .     S
C1389  C1408   1.408   .     A
C1390  C1406   1.406   .     A
C1391  O1441   1.381   .     S
C1391  N1434   1.372   .     A
C1392  N1433   1.372   .     A
C1392  O1442   1.381   .     S
C1392  C206    1.430   1_556 S
C1393  N1435   1.430   .     S
C1393  N1433   1.370   .     A
C1393  C203    1.428   1_556 S
C1394  N1434   1.368   .     A
C1394  N1436   1.429   .     S
C1395  O1450   1.414   .     S
C1395  H1427   1.113   .     S
C1395  H1428   1.108   .     S
C1395  H1426   1.109   .     S
C1396  O1438   1.415   .     S
C1396  H1430   1.113   .     S
C1396  H1431   1.113   .     S
C1396  H1429   1.104   .     S
C1397  O1439   1.413   .     S
C1397  H1410   1.109   .     S
C1397  H1411   1.115   .     S
C1397  H1432   1.108   .     S
C1398  O1443   1.290   .     A
C1398  O1445   1.284   .     A
C1399  H1414   1.114   .     S
C1399  H1412   1.109   .     S
C1399  O1440   1.410   .     S
C1399  H1413   1.113   .     S
C1400  H1417   1.110   .     S
C1400  O1441   1.413   .     S
C1400  H1416   1.109   .     S
C1400  H1415   1.116   .     S
C1401  O1442   1.414   .     S
C1401  H1418   1.110   .     S
C1401  H1421   1.116   .     S
C1401  H1419   1.108   .     S
C1402  O1448   1.285   .     A
C1402  O1446   1.281   .     A
C1402  C1404   1.400   .     S
C1403  O1449   1.284   .     A
C1403  C1405   1.400   .     S
C1403  O1447   1.281   .     A
C1404  C1537   1.330   1_455 S
C1404  H1541   1.087   1_455 S
C1405  C1470   1.330   .     S
C1405  H1486   1.087   .     S
C1406  O1450   1.384   .     S
C1407  O1438   1.384   .     S
C1407  C1586   1.378   .     S
C1408  O1439   1.387   .     S
C1408  C1604   1.384   .     S
H1409  C1470   1.087   .     S
H1420  C1537   1.087   1_455 S
H1422  N1435   1.041   .     S
H1423  N1435   1.046   .     S
H1424  N1436   1.043   .     S
H1425  N1436   1.046   .     S
N1433  Zn1451  2.021   .     S
N1434  Zn1452  2.021   .     S
O1437  Zn1451  1.990   .     S
O1443  Zn1452  1.990   .     S
O1444  Zn1452  2.001   .     S
O1445  Zn1451  2.001   .     S
O1446  Zn1451  1.965   .     S
O1447  Zn1452  1.965   .     S
O1448  Zn1452  1.976   .     S
O1449  Zn1451  1.976   .     S
C1453  C1456   1.414   .     S
C1453  O1510   1.285   .     A
C1453  O1503   1.285   .     A
C1454  C1456   1.399   .     A
C1454  O1506   1.385   .     S
C1455  C1473   1.405   .     A
C1455  C1464   1.421   .     S
C1455  C1474   1.408   .     A
C1456  C1472   1.406   .     A
C1457  O1507   1.381   .     S
C1457  N1500   1.372   .     A
C1458  N1499   1.372   .     A
C1458  O1508   1.381   .     S
C1458  C272    1.430   1_556 S
C1459  N1501   1.430   .     S
C1459  N1499   1.370   .     A
C1459  C269    1.428   1_556 S
C1460  N1500   1.368   .     A
C1460  N1502   1.429   .     S
C1461  O1516   1.414   .     S
C1461  H1493   1.113   .     S
C1461  H1494   1.108   .     S
C1461  H1492   1.109   .     S
C1462  O1504   1.415   .     S
C1462  H1496   1.113   .     S
C1462  H1497   1.113   .     S
C1462  H1495   1.104   .     S
C1463  O1505   1.413   .     S
C1463  H1476   1.109   .     S
C1463  H1477   1.115   .     S
C1463  H1498   1.108   .     S
C1464  O1509   1.290   .     A
C1464  O1511   1.284   .     A
C1465  H1480   1.114   .     S
C1465  H1478   1.109   .     S
C1465  O1506   1.410   .     S
C1465  H1479   1.113   .     S
C1466  H1483   1.110   .     S
C1466  O1507   1.413   .     S
C1466  H1482   1.109   .     S
C1466  H1481   1.116   .     S
C1467  O1508   1.414   .     S
C1467  H1484   1.110   .     S
C1467  H1487   1.116   .     S
C1467  H1485   1.108   .     S
C1468  O1514   1.285   .     A
C1468  O1512   1.281   .     A
C1468  C1470   1.400   .     S
C1469  O1515   1.284   .     A
C1469  C1471   1.400   .     S
C1469  O1513   1.281   .     A
C1471  C1536   1.330   .     S
C1471  H1552   1.087   .     S
C1472  O1516   1.384   .     S
C1473  O1504   1.384   .     S
C1473  C1652   1.378   .     S
C1474  O1505   1.387   .     S
C1474  C1670   1.384   .     S
H1475  C1536   1.087   .     S
H1488  N1501   1.041   .     S
H1489  N1501   1.046   .     S
H1490  N1502   1.043   .     S
H1491  N1502   1.046   .     S
N1499  Zn1517  2.021   .     S
N1500  Zn1518  2.021   .     S
O1503  Zn1517  1.990   .     S
O1509  Zn1518  1.990   .     S
O1510  Zn1518  2.001   .     S
O1511  Zn1517  2.001   .     S
O1512  Zn1517  1.965   .     S
O1513  Zn1518  1.965   .     S
O1514  Zn1518  1.976   .     S
O1515  Zn1517  1.976   .     S
C1519  C1522   1.414   .     S
C1519  O1576   1.285   .     A
C1519  O1569   1.285   .     A
C1520  C1522   1.399   .     A
C1520  O1572   1.385   .     S
C1521  C1539   1.405   .     A
C1521  C1530   1.421   .     S
C1521  C1540   1.408   .     A
C1522  C1538   1.406   .     A
C1523  O1573   1.381   .     S
C1523  N1566   1.372   .     A
C1524  N1565   1.372   .     A
C1524  O1574   1.381   .     S
C1524  C338    1.430   1_556 S
C1525  N1567   1.430   .     S
C1525  N1565   1.370   .     A
C1525  C335    1.428   1_556 S
C1526  N1566   1.368   .     A
C1526  N1568   1.429   .     S
C1527  O1582   1.414   .     S
C1527  H1559   1.113   .     S
C1527  H1560   1.108   .     S
C1527  H1558   1.109   .     S
C1528  O1570   1.415   .     S
C1528  H1562   1.113   .     S
C1528  H1563   1.113   .     S
C1528  H1561   1.104   .     S
C1529  O1571   1.413   .     S
C1529  H1542   1.109   .     S
C1529  H1543   1.115   .     S
C1529  H1564   1.108   .     S
C1530  O1575   1.290   .     A
C1530  O1577   1.284   .     A
C1531  H1546   1.114   .     S
C1531  H1544   1.109   .     S
C1531  O1572   1.410   .     S
C1531  H1545   1.113   .     S
C1532  H1549   1.110   .     S
C1532  O1573   1.413   .     S
C1532  H1548   1.109   .     S
C1532  H1547   1.116   .     S
C1533  O1574   1.414   .     S
C1533  H1550   1.110   .     S
C1533  H1553   1.116   .     S
C1533  H1551   1.108   .     S
C1534  O1580   1.285   .     A
C1534  O1578   1.281   .     A
C1534  C1536   1.400   .     S
C1535  O1581   1.284   .     A
C1535  C1537   1.400   .     S
C1535  O1579   1.281   .     A
C1537  C1404   1.330   1_655 S
C1537  H1420   1.087   1_655 S
C1538  O1582   1.384   .     S
C1539  O1570   1.384   .     S
C1539  C1718   1.378   .     S
C1540  O1571   1.387   .     S
C1540  C1736   1.384   .     S
H1541  C1404   1.087   1_655 S
H1554  N1567   1.041   .     S
H1555  N1567   1.046   .     S
H1556  N1568   1.043   .     S
H1557  N1568   1.046   .     S
N1565  Zn1583  2.021   .     S
N1566  Zn1584  2.021   .     S
O1569  Zn1583  1.990   .     S
O1575  Zn1584  1.990   .     S
O1576  Zn1584  2.001   .     S
O1577  Zn1583  2.001   .     S
O1578  Zn1583  1.965   .     S
O1579  Zn1584  1.965   .     S
O1580  Zn1584  1.976   .     S
O1581  Zn1583  1.976   .     S
C1585  C1588   1.414   .     S
C1585  O1642   1.285   .     A
C1585  O1635   1.285   .     A
C1586  C1588   1.399   .     A
C1586  O1638   1.385   .     S
C1587  C1605   1.405   .     A
C1587  C1596   1.421   .     S
C1587  C1606   1.408   .     A
C1588  C1604   1.406   .     A
C1589  O1639   1.381   .     S
C1589  N1632   1.372   .     A
C1590  N1631   1.372   .     A
C1590  O1640   1.381   .     S
C1590  C404    1.430   1_556 S
C1591  N1633   1.430   .     S
C1591  N1631   1.370   .     A
C1591  C401    1.428   1_556 S
C1592  N1632   1.368   .     A
C1592  N1634   1.429   .     S
C1593  O1648   1.414   .     S
C1593  H1625   1.113   .     S
C1593  H1626   1.108   .     S
C1593  H1624   1.109   .     S
C1594  O1636   1.415   .     S
C1594  H1628   1.113   .     S
C1594  H1629   1.113   .     S
C1594  H1627   1.104   .     S
C1595  O1637   1.413   .     S
C1595  H1608   1.109   .     S
C1595  H1609   1.115   .     S
C1595  H1630   1.108   .     S
C1596  O1641   1.290   .     A
C1596  O1643   1.284   .     A
C1597  H1612   1.114   .     S
C1597  H1610   1.109   .     S
C1597  O1638   1.410   .     S
C1597  H1611   1.113   .     S
C1598  H1615   1.110   .     S
C1598  O1639   1.413   .     S
C1598  H1614   1.109   .     S
C1598  H1613   1.116   .     S
C1599  O1640   1.414   .     S
C1599  H1616   1.110   .     S
C1599  H1619   1.116   .     S
C1599  H1617   1.108   .     S
C1600  O1646   1.285   .     A
C1600  O1644   1.281   .     A
C1600  C1602   1.400   .     S
C1601  O1647   1.284   .     A
C1601  C1603   1.400   .     S
C1601  O1645   1.281   .     A
C1602  C1735   1.330   1_455 S
C1602  H1739   1.087   1_455 S
C1603  C1668   1.330   .     S
C1603  H1684   1.087   .     S
C1604  O1648   1.384   .     S
C1605  O1636   1.384   .     S
C1605  C1190   1.378   1_565 S
C1606  O1637   1.387   .     S
C1606  C1208   1.384   1_565 S
H1607  C1668   1.087   .     S
H1618  C1735   1.087   1_455 S
H1620  N1633   1.041   .     S
H1621  N1633   1.046   .     S
H1622  N1634   1.043   .     S
H1623  N1634   1.046   .     S
N1631  Zn1649  2.021   .     S
N1632  Zn1650  2.021   .     S
O1635  Zn1649  1.990   .     S
O1641  Zn1650  1.990   .     S
O1642  Zn1650  2.001   .     S
O1643  Zn1649  2.001   .     S
O1644  Zn1649  1.965   .     S
O1645  Zn1650  1.965   .     S
O1646  Zn1650  1.976   .     S
O1647  Zn1649  1.976   .     S
C1651  C1654   1.414   .     S
C1651  O1708   1.285   .     A
C1651  O1701   1.285   .     A
C1652  C1654   1.399   .     A
C1652  O1704   1.385   .     S
C1653  C1671   1.405   .     A
C1653  C1662   1.421   .     S
C1653  C1672   1.408   .     A
C1654  C1670   1.406   .     A
C1655  O1705   1.381   .     S
C1655  N1698   1.372   .     A
C1656  N1697   1.372   .     A
C1656  O1706   1.381   .     S
C1656  C470    1.430   1_556 S
C1657  N1699   1.430   .     S
C1657  N1697   1.370   .     A
C1657  C467    1.428   1_556 S
C1658  N1698   1.368   .     A
C1658  N1700   1.429   .     S
C1659  O1714   1.414   .     S
C1659  H1691   1.113   .     S
C1659  H1692   1.108   .     S
C1659  H1690   1.109   .     S
C1660  O1702   1.415   .     S
C1660  H1694   1.113   .     S
C1660  H1695   1.113   .     S
C1660  H1693   1.104   .     S
C1661  O1703   1.413   .     S
C1661  H1674   1.109   .     S
C1661  H1675   1.115   .     S
C1661  H1696   1.108   .     S
C1662  O1707   1.290   .     A
C1662  O1709   1.284   .     A
C1663  H1678   1.114   .     S
C1663  H1676   1.109   .     S
C1663  O1704   1.410   .     S
C1663  H1677   1.113   .     S
C1664  H1681   1.110   .     S
C1664  O1705   1.413   .     S
C1664  H1680   1.109   .     S
C1664  H1679   1.116   .     S
C1665  O1706   1.414   .     S
C1665  H1682   1.110   .     S
C1665  H1685   1.116   .     S
C1665  H1683   1.108   .     S
C1666  O1712   1.285   .     A
C1666  O1710   1.281   .     A
C1666  C1668   1.400   .     S
C1667  O1713   1.284   .     A
C1667  C1669   1.400   .     S
C1667  O1711   1.281   .     A
C1669  C1734   1.330   .     S
C1669  H1750   1.087   .     S
C1670  O1714   1.384   .     S
C1671  O1702   1.384   .     S
C1671  C1256   1.378   1_565 S
C1672  O1703   1.387   .     S
C1672  C1274   1.384   1_565 S
H1673  C1734   1.087   .     S
H1686  N1699   1.041   .     S
H1687  N1699   1.046   .     S
H1688  N1700   1.043   .     S
H1689  N1700   1.046   .     S
N1697  Zn1715  2.021   .     S
N1698  Zn1716  2.021   .     S
O1701  Zn1715  1.990   .     S
O1707  Zn1716  1.990   .     S
O1708  Zn1716  2.001   .     S
O1709  Zn1715  2.001   .     S
O1710  Zn1715  1.965   .     S
O1711  Zn1716  1.965   .     S
O1712  Zn1716  1.976   .     S
O1713  Zn1715  1.976   .     S
C1717  C1720   1.414   .     S
C1717  O1774   1.285   .     A
C1717  O1767   1.285   .     A
C1718  C1720   1.399   .     A
C1718  O1770   1.385   .     S
C1719  C1737   1.405   .     A
C1719  C1728   1.421   .     S
C1719  C1738   1.408   .     A
C1720  C1736   1.406   .     A
C1721  O1771   1.381   .     S
C1721  N1764   1.372   .     A
C1722  N1763   1.372   .     A
C1722  O1772   1.381   .     S
C1722  C536    1.430   1_556 S
C1723  N1765   1.430   .     S
C1723  N1763   1.370   .     A
C1723  C533    1.428   1_556 S
C1724  N1764   1.368   .     A
C1724  N1766   1.429   .     S
C1725  O1780   1.414   .     S
C1725  H1757   1.113   .     S
C1725  H1758   1.108   .     S
C1725  H1756   1.109   .     S
C1726  O1768   1.415   .     S
C1726  H1760   1.113   .     S
C1726  H1761   1.113   .     S
C1726  H1759   1.104   .     S
C1727  O1769   1.413   .     S
C1727  H1740   1.109   .     S
C1727  H1741   1.115   .     S
C1727  H1762   1.108   .     S
C1728  O1773   1.290   .     A
C1728  O1775   1.284   .     A
C1729  H1744   1.114   .     S
C1729  H1742   1.109   .     S
C1729  O1770   1.410   .     S
C1729  H1743   1.113   .     S
C1730  H1747   1.110   .     S
C1730  O1771   1.413   .     S
C1730  H1746   1.109   .     S
C1730  H1745   1.116   .     S
C1731  O1772   1.414   .     S
C1731  H1748   1.110   .     S
C1731  H1751   1.116   .     S
C1731  H1749   1.108   .     S
C1732  O1778   1.285   .     A
C1732  O1776   1.281   .     A
C1732  C1734   1.400   .     S
C1733  O1779   1.284   .     A
C1733  C1735   1.400   .     S
C1733  O1777   1.281   .     A
C1735  C1602   1.330   1_655 S
C1735  H1618   1.087   1_655 S
C1736  O1780   1.384   .     S
C1737  O1768   1.384   .     S
C1737  C1322   1.378   1_565 S
C1738  O1769   1.387   .     S
C1738  C1340   1.384   1_565 S
H1739  C1602   1.087   1_655 S
H1752  N1765   1.041   .     S
H1753  N1765   1.046   .     S
H1754  N1766   1.043   .     S
H1755  N1766   1.046   .     S
N1763  Zn1781  2.021   .     S
N1764  Zn1782  2.021   .     S
O1767  Zn1781  1.990   .     S
O1773  Zn1782  1.990   .     S
O1774  Zn1782  2.001   .     S
O1775  Zn1781  2.001   .     S
O1776  Zn1781  1.965   .     S
O1777  Zn1782  1.965   .     S
O1778  Zn1782  1.976   .     S
O1779  Zn1781  1.976   .     S
