data_str_m3_o1_o10_pcu_sym.91
_audit_creation_date              2020-01-03
_audit_creation_method            'Materials Studio'
_symmetry_space_group_name_H-M    'P1'
_symmetry_Int_Tables_number       1
_symmetry_cell_setting            triclinic
loop_
_symmetry_equiv_pos_as_xyz
  x,y,z
_cell_length_a                    25.9110
_cell_length_b                    31.8714
_cell_length_c                    29.6903
_cell_angle_alpha                 90.3880
_cell_angle_beta                  98.4575
_cell_angle_gamma                 90.7708
loop_
_atom_site_label
_atom_site_type_symbol
_atom_site_fract_x
_atom_site_fract_y
_atom_site_fract_z
_atom_site_U_iso_or_equiv
_atom_site_adp_type
_atom_site_occupancy
C1     C     0.16754   0.08682   0.16667   0.00000  Uiso   1.00
C2     C     0.20490   0.02160   0.19739   0.00000  Uiso   1.00
C3     C     0.16537   0.29063   0.16689   0.00000  Uiso   1.00
C4     C     0.16804   0.04268   0.16668   0.00000  Uiso   1.00
C5     C     0.19817   0.19374   0.02877   0.00000  Uiso   1.00
C6     C     0.13490   0.13950   0.30486   0.00000  Uiso   1.00
C7     C     0.19775   0.19433   0.31424   0.00000  Uiso   1.00
C8     C     0.13481   0.13961   0.01986   0.00000  Uiso   1.00
C9     C     0.04431   0.27654   0.12826   0.00000  Uiso   1.00
C10    C     0.23777   0.04544   0.27361   0.00000  Uiso   1.00
C11    C     0.16621   0.24651   0.16674   0.00000  Uiso   1.00
C12    C     0.06732   0.16631   0.15495   0.00000  Uiso   1.00
C13    C     0.26602   0.16690   0.17837   0.00000  Uiso   1.00
C14    C     0.01286   0.16037   0.14959   0.00000  Uiso   1.00
C15    C     0.32048   0.17294   0.18366   0.00000  Uiso   1.00
C16    C     0.13039   0.02160   0.13609   0.00000  Uiso   1.00
C17    C     0.20359   0.31171   0.19687   0.00000  Uiso   1.00
C18    C     0.12816   0.31171   0.13643   0.00000  Uiso   1.00
H19    H     0.10191   0.03878   0.11312   0.00000  Uiso   1.00
H20    H     0.01737   0.25679   0.10410   0.00000  Uiso   1.00
H21    H     0.28190   0.03359   0.22257   0.00000  Uiso   1.00
H22    H     0.24053   0.01354   0.28860   0.00000  Uiso   1.00
H23    H     0.19920   0.05878   0.27706   0.00000  Uiso   1.00
H24    H     0.26851   0.06589   0.29287   0.00000  Uiso   1.00
H25    H     0.26978   0.21722   0.05299   0.00000  Uiso   1.00
H26    H     0.22128   0.25277   0.04829   0.00000  Uiso   1.00
H27    H     0.10971   0.08074   0.28574   0.00000  Uiso   1.00
H28    H     0.06271   0.11760   0.27957   0.00000  Uiso   1.00
H29    H     0.20501   0.24757   0.27872   0.00000  Uiso   1.00
H30    H     0.23275   0.29460   0.21921   0.00000  Uiso   1.00
H31    H     0.25389   0.21196   0.27652   0.00000  Uiso   1.00
H32    H     0.11034   0.08081   0.03224   0.00000  Uiso   1.00
H33    H     0.06273   0.11731   0.02615   0.00000  Uiso   1.00
H34    H     0.32731   0.15291   0.08110   0.00000  Uiso   1.00
H35    H     0.00679   0.10773   0.11000   0.00000  Uiso   1.00
H36    H     0.00600   0.18089   0.25211   0.00000  Uiso   1.00
H37    H     0.32662   0.22588   0.22275   0.00000  Uiso   1.00
H38    H     0.07701   0.30459   0.07636   0.00000  Uiso   1.00
H39    H     0.02292   0.30440   0.13798   0.00000  Uiso   1.00
H40    H     0.05724   0.25774   0.15911   0.00000  Uiso   1.00
N41    N     0.16665   0.16666   0.28573   0.00000  Uiso   1.00
N42    N     0.10139   0.11162   0.04011   0.00000  Uiso   1.00
N43    N     0.16668   0.16668   0.04760   0.00000  Uiso   1.00
N44    N     0.32162   0.13667   0.11049   0.00000  Uiso   1.00
N45    N     0.01170   0.19688   0.22258   0.00000  Uiso   1.00
N46    N     0.08848   0.28964   0.10684   0.00000  Uiso   1.00
N47    N     0.24509   0.04373   0.22626   0.00000  Uiso   1.00
N48    N     0.23118   0.22208   0.05794   0.00000  Uiso   1.00
N49    N     0.10134   0.11155   0.27567   0.00000  Uiso   1.00
N50    N     0.22920   0.22569   0.29674   0.00000  Uiso   1.00
O51    O     0.16666   0.10558   0.20487   0.00000  Uiso   1.00
O52    O     0.16667   0.22775   0.12846   0.00000  Uiso   1.00
O53    O     0.16666   0.10559   0.12843   0.00000  Uiso   1.00
O54    O     0.16667   0.22774   0.20490   0.00000  Uiso   1.00
O55    O     0.09058   0.16666   0.19595   0.00000  Uiso   1.00
O56    O     0.24275   0.16667   0.13739   0.00000  Uiso   1.00
O57    O     0.09058   0.16667   0.11950   0.00000  Uiso   1.00
O58    O     0.24275   0.16666   0.21383   0.00000  Uiso   1.00
Zn59   Zn    0.16667   0.16666   0.21771   0.00000  Uiso   1.00
Zn60   Zn    0.16667   0.16667   0.11563   0.00000  Uiso   1.00
C61    C     0.50087   0.08682   0.16667   0.00000  Uiso   1.00
C62    C     0.53823   0.02160   0.19739   0.00000  Uiso   1.00
C63    C     0.49870   0.29063   0.16689   0.00000  Uiso   1.00
C64    C     0.50137   0.04268   0.16668   0.00000  Uiso   1.00
C65    C     0.53151   0.19374   0.02877   0.00000  Uiso   1.00
C66    C     0.46823   0.13950   0.30486   0.00000  Uiso   1.00
C67    C     0.53108   0.19433   0.31424   0.00000  Uiso   1.00
C68    C     0.46814   0.13961   0.01986   0.00000  Uiso   1.00
C69    C     0.37764   0.27654   0.12826   0.00000  Uiso   1.00
C70    C     0.57111   0.04544   0.27361   0.00000  Uiso   1.00
C71    C     0.49954   0.24651   0.16674   0.00000  Uiso   1.00
C72    C     0.40066   0.16631   0.15495   0.00000  Uiso   1.00
C73    C     0.59936   0.16690   0.17837   0.00000  Uiso   1.00
C74    C     0.34619   0.16037   0.14959   0.00000  Uiso   1.00
C75    C     0.65382   0.17294   0.18366   0.00000  Uiso   1.00
C76    C     0.46372   0.02160   0.13609   0.00000  Uiso   1.00
C77    C     0.53693   0.31171   0.19687   0.00000  Uiso   1.00
C78    C     0.46149   0.31171   0.13643   0.00000  Uiso   1.00
H79    H     0.43524   0.03878   0.11312   0.00000  Uiso   1.00
H80    H     0.35071   0.25679   0.10410   0.00000  Uiso   1.00
H81    H     0.61523   0.03359   0.22257   0.00000  Uiso   1.00
H82    H     0.57386   0.01354   0.28860   0.00000  Uiso   1.00
H83    H     0.53253   0.05878   0.27706   0.00000  Uiso   1.00
H84    H     0.60185   0.06589   0.29287   0.00000  Uiso   1.00
H85    H     0.60311   0.21722   0.05299   0.00000  Uiso   1.00
H86    H     0.55462   0.25277   0.04829   0.00000  Uiso   1.00
H87    H     0.44305   0.08074   0.28574   0.00000  Uiso   1.00
H88    H     0.39605   0.11760   0.27957   0.00000  Uiso   1.00
H89    H     0.53834   0.24757   0.27872   0.00000  Uiso   1.00
H90    H     0.56608   0.29460   0.21921   0.00000  Uiso   1.00
H91    H     0.58723   0.21196   0.27652   0.00000  Uiso   1.00
H92    H     0.44368   0.08081   0.03224   0.00000  Uiso   1.00
H93    H     0.39606   0.11731   0.02615   0.00000  Uiso   1.00
H94    H     0.66064   0.15291   0.08110   0.00000  Uiso   1.00
H95    H     0.34012   0.10773   0.11000   0.00000  Uiso   1.00
H96    H     0.33933   0.18089   0.25211   0.00000  Uiso   1.00
H97    H     0.65996   0.22588   0.22275   0.00000  Uiso   1.00
H98    H     0.41034   0.30459   0.07636   0.00000  Uiso   1.00
H99    H     0.35625   0.30440   0.13798   0.00000  Uiso   1.00
H100   H     0.39057   0.25774   0.15911   0.00000  Uiso   1.00
N101   N     0.49999   0.16666   0.28573   0.00000  Uiso   1.00
N102   N     0.43472   0.11162   0.04011   0.00000  Uiso   1.00
N103   N     0.50001   0.16668   0.04760   0.00000  Uiso   1.00
N104   N     0.65495   0.13667   0.11049   0.00000  Uiso   1.00
N105   N     0.34504   0.19688   0.22258   0.00000  Uiso   1.00
N106   N     0.42181   0.28964   0.10684   0.00000  Uiso   1.00
N107   N     0.57843   0.04373   0.22626   0.00000  Uiso   1.00
N108   N     0.56451   0.22208   0.05794   0.00000  Uiso   1.00
N109   N     0.43468   0.11155   0.27567   0.00000  Uiso   1.00
N110   N     0.56254   0.22569   0.29674   0.00000  Uiso   1.00
O111   O     0.50000   0.10558   0.20487   0.00000  Uiso   1.00
O112   O     0.50000   0.22775   0.12846   0.00000  Uiso   1.00
O113   O     0.50000   0.10559   0.12843   0.00000  Uiso   1.00
O114   O     0.50000   0.22774   0.20490   0.00000  Uiso   1.00
O115   O     0.42392   0.16666   0.19595   0.00000  Uiso   1.00
O116   O     0.57608   0.16667   0.13739   0.00000  Uiso   1.00
O117   O     0.42392   0.16667   0.11950   0.00000  Uiso   1.00
O118   O     0.57608   0.16666   0.21383   0.00000  Uiso   1.00
Zn119  Zn    0.50000   0.16666   0.21771   0.00000  Uiso   1.00
Zn120  Zn    0.50000   0.16667   0.11563   0.00000  Uiso   1.00
C121   C     0.83420   0.08682   0.16667   0.00000  Uiso   1.00
C122   C     0.87157   0.02160   0.19739   0.00000  Uiso   1.00
C123   C     0.83204   0.29063   0.16689   0.00000  Uiso   1.00
C124   C     0.83471   0.04268   0.16668   0.00000  Uiso   1.00
C125   C     0.86484   0.19374   0.02877   0.00000  Uiso   1.00
C126   C     0.80157   0.13950   0.30486   0.00000  Uiso   1.00
C127   C     0.86442   0.19433   0.31424   0.00000  Uiso   1.00
C128   C     0.80148   0.13961   0.01986   0.00000  Uiso   1.00
C129   C     0.71097   0.27654   0.12826   0.00000  Uiso   1.00
C130   C     0.90444   0.04544   0.27361   0.00000  Uiso   1.00
C131   C     0.83287   0.24651   0.16674   0.00000  Uiso   1.00
C132   C     0.73399   0.16631   0.15495   0.00000  Uiso   1.00
C133   C     0.93269   0.16690   0.17837   0.00000  Uiso   1.00
C134   C     0.67952   0.16037   0.14959   0.00000  Uiso   1.00
C135   C     0.98715   0.17294   0.18366   0.00000  Uiso   1.00
C136   C     0.79705   0.02160   0.13609   0.00000  Uiso   1.00
C137   C     0.87026   0.31171   0.19687   0.00000  Uiso   1.00
C138   C     0.79483   0.31171   0.13643   0.00000  Uiso   1.00
H139   H     0.76857   0.03878   0.11312   0.00000  Uiso   1.00
H140   H     0.68404   0.25679   0.10410   0.00000  Uiso   1.00
H141   H     0.94856   0.03359   0.22257   0.00000  Uiso   1.00
H142   H     0.90719   0.01354   0.28860   0.00000  Uiso   1.00
H143   H     0.86587   0.05878   0.27706   0.00000  Uiso   1.00
H144   H     0.93518   0.06589   0.29287   0.00000  Uiso   1.00
H145   H     0.93644   0.21722   0.05299   0.00000  Uiso   1.00
H146   H     0.88795   0.25277   0.04829   0.00000  Uiso   1.00
H147   H     0.77638   0.08074   0.28574   0.00000  Uiso   1.00
H148   H     0.72938   0.11760   0.27957   0.00000  Uiso   1.00
H149   H     0.87168   0.24757   0.27872   0.00000  Uiso   1.00
H150   H     0.89942   0.29460   0.21921   0.00000  Uiso   1.00
H151   H     0.92056   0.21196   0.27652   0.00000  Uiso   1.00
H152   H     0.77701   0.08081   0.03224   0.00000  Uiso   1.00
H153   H     0.72940   0.11731   0.02615   0.00000  Uiso   1.00
H154   H     0.99397   0.15291   0.08110   0.00000  Uiso   1.00
H155   H     0.67346   0.10773   0.11000   0.00000  Uiso   1.00
H156   H     0.67266   0.18089   0.25211   0.00000  Uiso   1.00
H157   H     0.99329   0.22588   0.22275   0.00000  Uiso   1.00
H158   H     0.74368   0.30459   0.07636   0.00000  Uiso   1.00
H159   H     0.68958   0.30440   0.13798   0.00000  Uiso   1.00
H160   H     0.72390   0.25774   0.15911   0.00000  Uiso   1.00
N161   N     0.83332   0.16666   0.28573   0.00000  Uiso   1.00
N162   N     0.76805   0.11162   0.04011   0.00000  Uiso   1.00
N163   N     0.83335   0.16668   0.04760   0.00000  Uiso   1.00
N164   N     0.98829   0.13667   0.11049   0.00000  Uiso   1.00
N165   N     0.67837   0.19688   0.22258   0.00000  Uiso   1.00
N166   N     0.75514   0.28964   0.10684   0.00000  Uiso   1.00
N167   N     0.91176   0.04373   0.22626   0.00000  Uiso   1.00
N168   N     0.89785   0.22208   0.05794   0.00000  Uiso   1.00
N169   N     0.76801   0.11155   0.27567   0.00000  Uiso   1.00
N170   N     0.89587   0.22569   0.29674   0.00000  Uiso   1.00
O171   O     0.83333   0.10558   0.20487   0.00000  Uiso   1.00
O172   O     0.83334   0.22775   0.12846   0.00000  Uiso   1.00
O173   O     0.83333   0.10559   0.12843   0.00000  Uiso   1.00
O174   O     0.83334   0.22774   0.20490   0.00000  Uiso   1.00
O175   O     0.75725   0.16666   0.19595   0.00000  Uiso   1.00
O176   O     0.90942   0.16667   0.13739   0.00000  Uiso   1.00
O177   O     0.75725   0.16667   0.11950   0.00000  Uiso   1.00
O178   O     0.90942   0.16666   0.21383   0.00000  Uiso   1.00
Zn179  Zn    0.83333   0.16666   0.21771   0.00000  Uiso   1.00
Zn180  Zn    0.83333   0.16667   0.11563   0.00000  Uiso   1.00
C181   C     0.16754   0.42015   0.16667   0.00000  Uiso   1.00
C182   C     0.20490   0.35493   0.19739   0.00000  Uiso   1.00
C183   C     0.16537   0.62396   0.16689   0.00000  Uiso   1.00
C184   C     0.16804   0.37601   0.16668   0.00000  Uiso   1.00
C185   C     0.19817   0.52707   0.02877   0.00000  Uiso   1.00
C186   C     0.13490   0.47284   0.30486   0.00000  Uiso   1.00
C187   C     0.19775   0.52767   0.31424   0.00000  Uiso   1.00
C188   C     0.13481   0.47295   0.01986   0.00000  Uiso   1.00
C189   C     0.04431   0.60987   0.12826   0.00000  Uiso   1.00
C190   C     0.23777   0.37878   0.27361   0.00000  Uiso   1.00
C191   C     0.16621   0.57985   0.16674   0.00000  Uiso   1.00
C192   C     0.06732   0.49964   0.15495   0.00000  Uiso   1.00
C193   C     0.26602   0.50024   0.17837   0.00000  Uiso   1.00
C194   C     0.01286   0.49370   0.14959   0.00000  Uiso   1.00
C195   C     0.32048   0.50627   0.18366   0.00000  Uiso   1.00
C196   C     0.13039   0.35493   0.13609   0.00000  Uiso   1.00
C197   C     0.20359   0.64504   0.19687   0.00000  Uiso   1.00
C198   C     0.12816   0.64504   0.13643   0.00000  Uiso   1.00
H199   H     0.10191   0.37211   0.11312   0.00000  Uiso   1.00
H200   H     0.01737   0.59012   0.10410   0.00000  Uiso   1.00
H201   H     0.28190   0.36692   0.22257   0.00000  Uiso   1.00
H202   H     0.24053   0.34687   0.28860   0.00000  Uiso   1.00
H203   H     0.19920   0.39211   0.27706   0.00000  Uiso   1.00
H204   H     0.26851   0.39922   0.29287   0.00000  Uiso   1.00
H205   H     0.26978   0.55055   0.05299   0.00000  Uiso   1.00
H206   H     0.22128   0.58610   0.04829   0.00000  Uiso   1.00
H207   H     0.10971   0.41407   0.28574   0.00000  Uiso   1.00
H208   H     0.06271   0.45094   0.27957   0.00000  Uiso   1.00
H209   H     0.20501   0.58090   0.27872   0.00000  Uiso   1.00
H210   H     0.23275   0.62794   0.21921   0.00000  Uiso   1.00
H211   H     0.25389   0.54529   0.27652   0.00000  Uiso   1.00
H212   H     0.11034   0.41414   0.03224   0.00000  Uiso   1.00
H213   H     0.06273   0.45064   0.02615   0.00000  Uiso   1.00
H214   H     0.32731   0.48625   0.08110   0.00000  Uiso   1.00
H215   H     0.00679   0.44107   0.11000   0.00000  Uiso   1.00
H216   H     0.00600   0.51422   0.25211   0.00000  Uiso   1.00
H217   H     0.32662   0.55921   0.22275   0.00000  Uiso   1.00
H218   H     0.07701   0.63792   0.07636   0.00000  Uiso   1.00
H219   H     0.02292   0.63773   0.13798   0.00000  Uiso   1.00
H220   H     0.05724   0.59107   0.15911   0.00000  Uiso   1.00
N221   N     0.16665   0.49999   0.28573   0.00000  Uiso   1.00
N222   N     0.10139   0.44495   0.04011   0.00000  Uiso   1.00
N223   N     0.16668   0.50001   0.04760   0.00000  Uiso   1.00
N224   N     0.32162   0.47000   0.11049   0.00000  Uiso   1.00
N225   N     0.01170   0.53022   0.22258   0.00000  Uiso   1.00
N226   N     0.08848   0.62298   0.10684   0.00000  Uiso   1.00
N227   N     0.24509   0.37706   0.22626   0.00000  Uiso   1.00
N228   N     0.23118   0.55542   0.05794   0.00000  Uiso   1.00
N229   N     0.10134   0.44488   0.27567   0.00000  Uiso   1.00
N230   N     0.22920   0.55902   0.29674   0.00000  Uiso   1.00
O231   O     0.16666   0.43892   0.20487   0.00000  Uiso   1.00
O232   O     0.16667   0.56108   0.12846   0.00000  Uiso   1.00
O233   O     0.16666   0.43893   0.12843   0.00000  Uiso   1.00
O234   O     0.16667   0.56107   0.20490   0.00000  Uiso   1.00
O235   O     0.09058   0.50000   0.19595   0.00000  Uiso   1.00
O236   O     0.24275   0.50000   0.13739   0.00000  Uiso   1.00
O237   O     0.09058   0.50000   0.11950   0.00000  Uiso   1.00
O238   O     0.24275   0.50000   0.21383   0.00000  Uiso   1.00
Zn239  Zn    0.16667   0.49999   0.21771   0.00000  Uiso   1.00
Zn240  Zn    0.16667   0.50001   0.11563   0.00000  Uiso   1.00
C241   C     0.50087   0.42015   0.16667   0.00000  Uiso   1.00
C242   C     0.53823   0.35493   0.19739   0.00000  Uiso   1.00
C243   C     0.49870   0.62396   0.16689   0.00000  Uiso   1.00
C244   C     0.50137   0.37601   0.16668   0.00000  Uiso   1.00
C245   C     0.53151   0.52707   0.02877   0.00000  Uiso   1.00
C246   C     0.46823   0.47284   0.30486   0.00000  Uiso   1.00
C247   C     0.53108   0.52767   0.31424   0.00000  Uiso   1.00
C248   C     0.46814   0.47295   0.01986   0.00000  Uiso   1.00
C249   C     0.37764   0.60987   0.12826   0.00000  Uiso   1.00
C250   C     0.57111   0.37878   0.27361   0.00000  Uiso   1.00
C251   C     0.49954   0.57985   0.16674   0.00000  Uiso   1.00
C252   C     0.40066   0.49964   0.15495   0.00000  Uiso   1.00
C253   C     0.59936   0.50024   0.17837   0.00000  Uiso   1.00
C254   C     0.34619   0.49370   0.14959   0.00000  Uiso   1.00
C255   C     0.65382   0.50627   0.18366   0.00000  Uiso   1.00
C256   C     0.46372   0.35493   0.13609   0.00000  Uiso   1.00
C257   C     0.53693   0.64504   0.19687   0.00000  Uiso   1.00
C258   C     0.46149   0.64504   0.13643   0.00000  Uiso   1.00
H259   H     0.43524   0.37211   0.11312   0.00000  Uiso   1.00
H260   H     0.35071   0.59012   0.10410   0.00000  Uiso   1.00
H261   H     0.61523   0.36692   0.22257   0.00000  Uiso   1.00
H262   H     0.57386   0.34687   0.28860   0.00000  Uiso   1.00
H263   H     0.53253   0.39211   0.27706   0.00000  Uiso   1.00
H264   H     0.60185   0.39922   0.29287   0.00000  Uiso   1.00
H265   H     0.60311   0.55055   0.05299   0.00000  Uiso   1.00
H266   H     0.55462   0.58610   0.04829   0.00000  Uiso   1.00
H267   H     0.44305   0.41407   0.28574   0.00000  Uiso   1.00
H268   H     0.39605   0.45094   0.27957   0.00000  Uiso   1.00
H269   H     0.53834   0.58090   0.27872   0.00000  Uiso   1.00
H270   H     0.56608   0.62794   0.21921   0.00000  Uiso   1.00
H271   H     0.58723   0.54529   0.27652   0.00000  Uiso   1.00
H272   H     0.44368   0.41414   0.03224   0.00000  Uiso   1.00
H273   H     0.39606   0.45064   0.02615   0.00000  Uiso   1.00
H274   H     0.66064   0.48625   0.08110   0.00000  Uiso   1.00
H275   H     0.34012   0.44107   0.11000   0.00000  Uiso   1.00
H276   H     0.33933   0.51422   0.25211   0.00000  Uiso   1.00
H277   H     0.65996   0.55921   0.22275   0.00000  Uiso   1.00
H278   H     0.41034   0.63792   0.07636   0.00000  Uiso   1.00
H279   H     0.35625   0.63773   0.13798   0.00000  Uiso   1.00
H280   H     0.39057   0.59107   0.15911   0.00000  Uiso   1.00
N281   N     0.49999   0.49999   0.28573   0.00000  Uiso   1.00
N282   N     0.43472   0.44495   0.04011   0.00000  Uiso   1.00
N283   N     0.50001   0.50001   0.04760   0.00000  Uiso   1.00
N284   N     0.65495   0.47000   0.11049   0.00000  Uiso   1.00
N285   N     0.34504   0.53022   0.22258   0.00000  Uiso   1.00
N286   N     0.42181   0.62298   0.10684   0.00000  Uiso   1.00
N287   N     0.57843   0.37706   0.22626   0.00000  Uiso   1.00
N288   N     0.56451   0.55542   0.05794   0.00000  Uiso   1.00
N289   N     0.43468   0.44488   0.27567   0.00000  Uiso   1.00
N290   N     0.56254   0.55902   0.29674   0.00000  Uiso   1.00
O291   O     0.50000   0.43892   0.20487   0.00000  Uiso   1.00
O292   O     0.50000   0.56108   0.12846   0.00000  Uiso   1.00
O293   O     0.50000   0.43893   0.12843   0.00000  Uiso   1.00
O294   O     0.50000   0.56107   0.20490   0.00000  Uiso   1.00
O295   O     0.42392   0.50000   0.19595   0.00000  Uiso   1.00
O296   O     0.57608   0.50000   0.13739   0.00000  Uiso   1.00
O297   O     0.42392   0.50000   0.11950   0.00000  Uiso   1.00
O298   O     0.57608   0.50000   0.21383   0.00000  Uiso   1.00
Zn299  Zn    0.50000   0.49999   0.21771   0.00000  Uiso   1.00
Zn300  Zn    0.50000   0.50001   0.11563   0.00000  Uiso   1.00
C301   C     0.83420   0.42015   0.16667   0.00000  Uiso   1.00
C302   C     0.87157   0.35493   0.19739   0.00000  Uiso   1.00
C303   C     0.83204   0.62396   0.16689   0.00000  Uiso   1.00
C304   C     0.83471   0.37601   0.16668   0.00000  Uiso   1.00
C305   C     0.86484   0.52707   0.02877   0.00000  Uiso   1.00
C306   C     0.80157   0.47284   0.30486   0.00000  Uiso   1.00
C307   C     0.86442   0.52767   0.31424   0.00000  Uiso   1.00
C308   C     0.80148   0.47295   0.01986   0.00000  Uiso   1.00
C309   C     0.71097   0.60987   0.12826   0.00000  Uiso   1.00
C310   C     0.90444   0.37878   0.27361   0.00000  Uiso   1.00
C311   C     0.83287   0.57985   0.16674   0.00000  Uiso   1.00
C312   C     0.73399   0.49964   0.15495   0.00000  Uiso   1.00
C313   C     0.93269   0.50024   0.17837   0.00000  Uiso   1.00
C314   C     0.67952   0.49370   0.14959   0.00000  Uiso   1.00
C315   C     0.98715   0.50627   0.18366   0.00000  Uiso   1.00
C316   C     0.79705   0.35493   0.13609   0.00000  Uiso   1.00
C317   C     0.87026   0.64504   0.19687   0.00000  Uiso   1.00
C318   C     0.79483   0.64504   0.13643   0.00000  Uiso   1.00
H319   H     0.76857   0.37211   0.11312   0.00000  Uiso   1.00
H320   H     0.68404   0.59012   0.10410   0.00000  Uiso   1.00
H321   H     0.94856   0.36692   0.22257   0.00000  Uiso   1.00
H322   H     0.90719   0.34687   0.28860   0.00000  Uiso   1.00
H323   H     0.86587   0.39211   0.27706   0.00000  Uiso   1.00
H324   H     0.93518   0.39922   0.29287   0.00000  Uiso   1.00
H325   H     0.93644   0.55055   0.05299   0.00000  Uiso   1.00
H326   H     0.88795   0.58610   0.04829   0.00000  Uiso   1.00
H327   H     0.77638   0.41407   0.28574   0.00000  Uiso   1.00
H328   H     0.72938   0.45094   0.27957   0.00000  Uiso   1.00
H329   H     0.87168   0.58090   0.27872   0.00000  Uiso   1.00
H330   H     0.89942   0.62794   0.21921   0.00000  Uiso   1.00
H331   H     0.92056   0.54529   0.27652   0.00000  Uiso   1.00
H332   H     0.77701   0.41414   0.03224   0.00000  Uiso   1.00
H333   H     0.72940   0.45064   0.02615   0.00000  Uiso   1.00
H334   H     0.99397   0.48625   0.08110   0.00000  Uiso   1.00
H335   H     0.67346   0.44107   0.11000   0.00000  Uiso   1.00
H336   H     0.67266   0.51422   0.25211   0.00000  Uiso   1.00
H337   H     0.99329   0.55921   0.22275   0.00000  Uiso   1.00
H338   H     0.74368   0.63792   0.07636   0.00000  Uiso   1.00
H339   H     0.68958   0.63773   0.13798   0.00000  Uiso   1.00
H340   H     0.72390   0.59107   0.15911   0.00000  Uiso   1.00
N341   N     0.83332   0.49999   0.28573   0.00000  Uiso   1.00
N342   N     0.76805   0.44495   0.04011   0.00000  Uiso   1.00
N343   N     0.83335   0.50001   0.04760   0.00000  Uiso   1.00
N344   N     0.98829   0.47000   0.11049   0.00000  Uiso   1.00
N345   N     0.67837   0.53022   0.22258   0.00000  Uiso   1.00
N346   N     0.75514   0.62298   0.10684   0.00000  Uiso   1.00
N347   N     0.91176   0.37706   0.22626   0.00000  Uiso   1.00
N348   N     0.89785   0.55542   0.05794   0.00000  Uiso   1.00
N349   N     0.76801   0.44488   0.27567   0.00000  Uiso   1.00
N350   N     0.89587   0.55902   0.29674   0.00000  Uiso   1.00
O351   O     0.83333   0.43892   0.20487   0.00000  Uiso   1.00
O352   O     0.83334   0.56108   0.12846   0.00000  Uiso   1.00
O353   O     0.83333   0.43893   0.12843   0.00000  Uiso   1.00
O354   O     0.83334   0.56107   0.20490   0.00000  Uiso   1.00
O355   O     0.75725   0.50000   0.19595   0.00000  Uiso   1.00
O356   O     0.90942   0.50000   0.13739   0.00000  Uiso   1.00
O357   O     0.75725   0.50000   0.11950   0.00000  Uiso   1.00
O358   O     0.90942   0.50000   0.21383   0.00000  Uiso   1.00
Zn359  Zn    0.83333   0.49999   0.21771   0.00000  Uiso   1.00
Zn360  Zn    0.83333   0.50001   0.11563   0.00000  Uiso   1.00
C361   C     0.16754   0.75348   0.16667   0.00000  Uiso   1.00
C362   C     0.20490   0.68827   0.19739   0.00000  Uiso   1.00
C363   C     0.16537   0.95730   0.16689   0.00000  Uiso   1.00
C364   C     0.16804   0.70935   0.16668   0.00000  Uiso   1.00
C365   C     0.19817   0.86041   0.02877   0.00000  Uiso   1.00
C366   C     0.13490   0.80617   0.30486   0.00000  Uiso   1.00
C367   C     0.19775   0.86100   0.31424   0.00000  Uiso   1.00
C368   C     0.13481   0.80628   0.01986   0.00000  Uiso   1.00
C369   C     0.04431   0.94320   0.12826   0.00000  Uiso   1.00
C370   C     0.23777   0.71211   0.27361   0.00000  Uiso   1.00
C371   C     0.16621   0.91318   0.16674   0.00000  Uiso   1.00
C372   C     0.06732   0.83297   0.15495   0.00000  Uiso   1.00
C373   C     0.26602   0.83357   0.17837   0.00000  Uiso   1.00
C374   C     0.01286   0.82703   0.14959   0.00000  Uiso   1.00
C375   C     0.32048   0.83961   0.18366   0.00000  Uiso   1.00
C376   C     0.13039   0.68826   0.13609   0.00000  Uiso   1.00
C377   C     0.20359   0.97838   0.19687   0.00000  Uiso   1.00
C378   C     0.12816   0.97838   0.13643   0.00000  Uiso   1.00
H379   H     0.10191   0.70545   0.11312   0.00000  Uiso   1.00
H380   H     0.01737   0.92345   0.10410   0.00000  Uiso   1.00
H381   H     0.28190   0.70026   0.22257   0.00000  Uiso   1.00
H382   H     0.24053   0.68020   0.28860   0.00000  Uiso   1.00
H383   H     0.19920   0.72545   0.27706   0.00000  Uiso   1.00
H384   H     0.26851   0.73255   0.29287   0.00000  Uiso   1.00
H385   H     0.26978   0.88389   0.05299   0.00000  Uiso   1.00
H386   H     0.22128   0.91943   0.04829   0.00000  Uiso   1.00
H387   H     0.10971   0.74740   0.28574   0.00000  Uiso   1.00
H388   H     0.06271   0.78427   0.27957   0.00000  Uiso   1.00
H389   H     0.20501   0.91424   0.27872   0.00000  Uiso   1.00
H390   H     0.23275   0.96127   0.21921   0.00000  Uiso   1.00
H391   H     0.25389   0.87863   0.27652   0.00000  Uiso   1.00
H392   H     0.11034   0.74747   0.03224   0.00000  Uiso   1.00
H393   H     0.06273   0.78398   0.02615   0.00000  Uiso   1.00
H394   H     0.32731   0.81958   0.08110   0.00000  Uiso   1.00
H395   H     0.00679   0.77440   0.11000   0.00000  Uiso   1.00
H396   H     0.00600   0.84755   0.25211   0.00000  Uiso   1.00
H397   H     0.32662   0.89254   0.22275   0.00000  Uiso   1.00
H398   H     0.07701   0.97126   0.07636   0.00000  Uiso   1.00
H399   H     0.02292   0.97107   0.13798   0.00000  Uiso   1.00
H400   H     0.05724   0.92440   0.15911   0.00000  Uiso   1.00
N401   N     0.16665   0.83332   0.28573   0.00000  Uiso   1.00
N402   N     0.10139   0.77828   0.04011   0.00000  Uiso   1.00
N403   N     0.16668   0.83334   0.04760   0.00000  Uiso   1.00
N404   N     0.32162   0.80333   0.11049   0.00000  Uiso   1.00
N405   N     0.01170   0.86355   0.22258   0.00000  Uiso   1.00
N406   N     0.08848   0.95631   0.10684   0.00000  Uiso   1.00
N407   N     0.24509   0.71039   0.22626   0.00000  Uiso   1.00
N408   N     0.23118   0.88875   0.05794   0.00000  Uiso   1.00
N409   N     0.10134   0.77821   0.27567   0.00000  Uiso   1.00
N410   N     0.22920   0.89235   0.29674   0.00000  Uiso   1.00
O411   O     0.16666   0.77225   0.20487   0.00000  Uiso   1.00
O412   O     0.16667   0.89442   0.12846   0.00000  Uiso   1.00
O413   O     0.16666   0.77226   0.12843   0.00000  Uiso   1.00
O414   O     0.16667   0.89441   0.20490   0.00000  Uiso   1.00
O415   O     0.09058   0.83333   0.19595   0.00000  Uiso   1.00
O416   O     0.24275   0.83334   0.13739   0.00000  Uiso   1.00
O417   O     0.09058   0.83334   0.11950   0.00000  Uiso   1.00
O418   O     0.24275   0.83333   0.21383   0.00000  Uiso   1.00
Zn419  Zn    0.16667   0.83333   0.21771   0.00000  Uiso   1.00
Zn420  Zn    0.16667   0.83334   0.11563   0.00000  Uiso   1.00
C421   C     0.50087   0.75348   0.16667   0.00000  Uiso   1.00
C422   C     0.53823   0.68827   0.19739   0.00000  Uiso   1.00
C423   C     0.49870   0.95730   0.16689   0.00000  Uiso   1.00
C424   C     0.50137   0.70935   0.16668   0.00000  Uiso   1.00
C425   C     0.53151   0.86041   0.02877   0.00000  Uiso   1.00
C426   C     0.46823   0.80617   0.30486   0.00000  Uiso   1.00
C427   C     0.53108   0.86100   0.31424   0.00000  Uiso   1.00
C428   C     0.46814   0.80628   0.01986   0.00000  Uiso   1.00
C429   C     0.37764   0.94320   0.12826   0.00000  Uiso   1.00
C430   C     0.57111   0.71211   0.27361   0.00000  Uiso   1.00
C431   C     0.49954   0.91318   0.16674   0.00000  Uiso   1.00
C432   C     0.40066   0.83297   0.15495   0.00000  Uiso   1.00
C433   C     0.59936   0.83357   0.17837   0.00000  Uiso   1.00
C434   C     0.34619   0.82703   0.14959   0.00000  Uiso   1.00
C435   C     0.65382   0.83961   0.18366   0.00000  Uiso   1.00
C436   C     0.46372   0.68826   0.13609   0.00000  Uiso   1.00
C437   C     0.53693   0.97838   0.19687   0.00000  Uiso   1.00
C438   C     0.46149   0.97838   0.13643   0.00000  Uiso   1.00
H439   H     0.43524   0.70545   0.11312   0.00000  Uiso   1.00
H440   H     0.35071   0.92345   0.10410   0.00000  Uiso   1.00
H441   H     0.61523   0.70026   0.22257   0.00000  Uiso   1.00
H442   H     0.57386   0.68020   0.28860   0.00000  Uiso   1.00
H443   H     0.53253   0.72545   0.27706   0.00000  Uiso   1.00
H444   H     0.60185   0.73255   0.29287   0.00000  Uiso   1.00
H445   H     0.60311   0.88389   0.05299   0.00000  Uiso   1.00
H446   H     0.55462   0.91943   0.04829   0.00000  Uiso   1.00
H447   H     0.44305   0.74740   0.28574   0.00000  Uiso   1.00
H448   H     0.39605   0.78427   0.27957   0.00000  Uiso   1.00
H449   H     0.53834   0.91424   0.27872   0.00000  Uiso   1.00
H450   H     0.56608   0.96127   0.21921   0.00000  Uiso   1.00
H451   H     0.58723   0.87863   0.27652   0.00000  Uiso   1.00
H452   H     0.44368   0.74747   0.03224   0.00000  Uiso   1.00
H453   H     0.39606   0.78398   0.02615   0.00000  Uiso   1.00
H454   H     0.66064   0.81958   0.08110   0.00000  Uiso   1.00
H455   H     0.34012   0.77440   0.11000   0.00000  Uiso   1.00
H456   H     0.33933   0.84755   0.25211   0.00000  Uiso   1.00
H457   H     0.65996   0.89254   0.22275   0.00000  Uiso   1.00
H458   H     0.41034   0.97126   0.07636   0.00000  Uiso   1.00
H459   H     0.35625   0.97107   0.13798   0.00000  Uiso   1.00
H460   H     0.39057   0.92440   0.15911   0.00000  Uiso   1.00
N461   N     0.49999   0.83332   0.28573   0.00000  Uiso   1.00
N462   N     0.43472   0.77828   0.04011   0.00000  Uiso   1.00
N463   N     0.50001   0.83334   0.04760   0.00000  Uiso   1.00
N464   N     0.65495   0.80333   0.11049   0.00000  Uiso   1.00
N465   N     0.34504   0.86355   0.22258   0.00000  Uiso   1.00
N466   N     0.42181   0.95631   0.10684   0.00000  Uiso   1.00
N467   N     0.57843   0.71039   0.22626   0.00000  Uiso   1.00
N468   N     0.56451   0.88875   0.05794   0.00000  Uiso   1.00
N469   N     0.43468   0.77821   0.27567   0.00000  Uiso   1.00
N470   N     0.56254   0.89235   0.29674   0.00000  Uiso   1.00
O471   O     0.50000   0.77225   0.20487   0.00000  Uiso   1.00
O472   O     0.50000   0.89442   0.12846   0.00000  Uiso   1.00
O473   O     0.50000   0.77226   0.12843   0.00000  Uiso   1.00
O474   O     0.50000   0.89441   0.20490   0.00000  Uiso   1.00
O475   O     0.42392   0.83333   0.19595   0.00000  Uiso   1.00
O476   O     0.57608   0.83334   0.13739   0.00000  Uiso   1.00
O477   O     0.42392   0.83334   0.11950   0.00000  Uiso   1.00
O478   O     0.57608   0.83333   0.21383   0.00000  Uiso   1.00
Zn479  Zn    0.50000   0.83333   0.21771   0.00000  Uiso   1.00
Zn480  Zn    0.50000   0.83334   0.11563   0.00000  Uiso   1.00
C481   C     0.83420   0.75348   0.16667   0.00000  Uiso   1.00
C482   C     0.87157   0.68827   0.19739   0.00000  Uiso   1.00
C483   C     0.83204   0.95730   0.16689   0.00000  Uiso   1.00
C484   C     0.83471   0.70935   0.16668   0.00000  Uiso   1.00
C485   C     0.86484   0.86041   0.02877   0.00000  Uiso   1.00
C486   C     0.80157   0.80617   0.30486   0.00000  Uiso   1.00
C487   C     0.86442   0.86100   0.31424   0.00000  Uiso   1.00
C488   C     0.80148   0.80628   0.01986   0.00000  Uiso   1.00
C489   C     0.71097   0.94320   0.12826   0.00000  Uiso   1.00
C490   C     0.90444   0.71211   0.27361   0.00000  Uiso   1.00
C491   C     0.83287   0.91318   0.16674   0.00000  Uiso   1.00
C492   C     0.73399   0.83297   0.15495   0.00000  Uiso   1.00
C493   C     0.93269   0.83357   0.17837   0.00000  Uiso   1.00
C494   C     0.67952   0.82703   0.14959   0.00000  Uiso   1.00
C495   C     0.98715   0.83961   0.18366   0.00000  Uiso   1.00
C496   C     0.79705   0.68826   0.13609   0.00000  Uiso   1.00
C497   C     0.87026   0.97838   0.19687   0.00000  Uiso   1.00
C498   C     0.79483   0.97838   0.13643   0.00000  Uiso   1.00
H499   H     0.76857   0.70545   0.11312   0.00000  Uiso   1.00
H500   H     0.68404   0.92345   0.10410   0.00000  Uiso   1.00
H501   H     0.94856   0.70026   0.22257   0.00000  Uiso   1.00
H502   H     0.90719   0.68020   0.28860   0.00000  Uiso   1.00
H503   H     0.86587   0.72545   0.27706   0.00000  Uiso   1.00
H504   H     0.93518   0.73255   0.29287   0.00000  Uiso   1.00
H505   H     0.93644   0.88389   0.05299   0.00000  Uiso   1.00
H506   H     0.88795   0.91943   0.04829   0.00000  Uiso   1.00
H507   H     0.77638   0.74740   0.28574   0.00000  Uiso   1.00
H508   H     0.72938   0.78427   0.27957   0.00000  Uiso   1.00
H509   H     0.87168   0.91424   0.27872   0.00000  Uiso   1.00
H510   H     0.89942   0.96127   0.21921   0.00000  Uiso   1.00
H511   H     0.92056   0.87863   0.27652   0.00000  Uiso   1.00
H512   H     0.77701   0.74747   0.03224   0.00000  Uiso   1.00
H513   H     0.72940   0.78398   0.02615   0.00000  Uiso   1.00
H514   H     0.99397   0.81958   0.08110   0.00000  Uiso   1.00
H515   H     0.67346   0.77440   0.11000   0.00000  Uiso   1.00
H516   H     0.67266   0.84755   0.25211   0.00000  Uiso   1.00
H517   H     0.99329   0.89254   0.22275   0.00000  Uiso   1.00
H518   H     0.74368   0.97126   0.07636   0.00000  Uiso   1.00
H519   H     0.68958   0.97107   0.13798   0.00000  Uiso   1.00
H520   H     0.72390   0.92440   0.15911   0.00000  Uiso   1.00
N521   N     0.83332   0.83332   0.28573   0.00000  Uiso   1.00
N522   N     0.76805   0.77828   0.04011   0.00000  Uiso   1.00
N523   N     0.83335   0.83334   0.04760   0.00000  Uiso   1.00
N524   N     0.98829   0.80333   0.11049   0.00000  Uiso   1.00
N525   N     0.67837   0.86355   0.22258   0.00000  Uiso   1.00
N526   N     0.75514   0.95631   0.10684   0.00000  Uiso   1.00
N527   N     0.91176   0.71039   0.22626   0.00000  Uiso   1.00
N528   N     0.89785   0.88875   0.05794   0.00000  Uiso   1.00
N529   N     0.76801   0.77821   0.27567   0.00000  Uiso   1.00
N530   N     0.89587   0.89235   0.29674   0.00000  Uiso   1.00
O531   O     0.83333   0.77225   0.20487   0.00000  Uiso   1.00
O532   O     0.83334   0.89442   0.12846   0.00000  Uiso   1.00
O533   O     0.83333   0.77226   0.12843   0.00000  Uiso   1.00
O534   O     0.83334   0.89441   0.20490   0.00000  Uiso   1.00
O535   O     0.75725   0.83333   0.19595   0.00000  Uiso   1.00
O536   O     0.90942   0.83334   0.13739   0.00000  Uiso   1.00
O537   O     0.75725   0.83334   0.11950   0.00000  Uiso   1.00
O538   O     0.90942   0.83333   0.21383   0.00000  Uiso   1.00
Zn539  Zn    0.83333   0.83333   0.21771   0.00000  Uiso   1.00
Zn540  Zn    0.83333   0.83334   0.11563   0.00000  Uiso   1.00
C541   C     0.16754   0.08682   0.50001   0.00000  Uiso   1.00
C542   C     0.20490   0.02160   0.53072   0.00000  Uiso   1.00
C543   C     0.16537   0.29063   0.50022   0.00000  Uiso   1.00
C544   C     0.16804   0.04268   0.50001   0.00000  Uiso   1.00
C545   C     0.19817   0.19374   0.36210   0.00000  Uiso   1.00
C546   C     0.13490   0.13950   0.63819   0.00000  Uiso   1.00
C547   C     0.19775   0.19433   0.64757   0.00000  Uiso   1.00
C548   C     0.13481   0.13961   0.35319   0.00000  Uiso   1.00
C549   C     0.04431   0.27654   0.46160   0.00000  Uiso   1.00
C550   C     0.23777   0.04544   0.60695   0.00000  Uiso   1.00
C551   C     0.16621   0.24651   0.50007   0.00000  Uiso   1.00
C552   C     0.06732   0.16631   0.48828   0.00000  Uiso   1.00
C553   C     0.26602   0.16690   0.51171   0.00000  Uiso   1.00
C554   C     0.01286   0.16037   0.48293   0.00000  Uiso   1.00
C555   C     0.32048   0.17294   0.51699   0.00000  Uiso   1.00
C556   C     0.13039   0.02160   0.46942   0.00000  Uiso   1.00
C557   C     0.20359   0.31171   0.53020   0.00000  Uiso   1.00
C558   C     0.12816   0.31171   0.46977   0.00000  Uiso   1.00
H559   H     0.10191   0.03878   0.44646   0.00000  Uiso   1.00
H560   H     0.01737   0.25679   0.43743   0.00000  Uiso   1.00
H561   H     0.28190   0.03359   0.55591   0.00000  Uiso   1.00
H562   H     0.24053   0.01354   0.62193   0.00000  Uiso   1.00
H563   H     0.19920   0.05878   0.61039   0.00000  Uiso   1.00
H564   H     0.26851   0.06589   0.62620   0.00000  Uiso   1.00
H565   H     0.26978   0.21722   0.38632   0.00000  Uiso   1.00
H566   H     0.22128   0.25277   0.38162   0.00000  Uiso   1.00
H567   H     0.10971   0.08074   0.61908   0.00000  Uiso   1.00
H568   H     0.06271   0.11760   0.61291   0.00000  Uiso   1.00
H569   H     0.20501   0.24757   0.61206   0.00000  Uiso   1.00
H570   H     0.23275   0.29460   0.55255   0.00000  Uiso   1.00
H571   H     0.25389   0.21196   0.60985   0.00000  Uiso   1.00
H572   H     0.11034   0.08081   0.36557   0.00000  Uiso   1.00
H573   H     0.06273   0.11731   0.35948   0.00000  Uiso   1.00
H574   H     0.32731   0.15291   0.41443   0.00000  Uiso   1.00
H575   H     0.00679   0.10773   0.44334   0.00000  Uiso   1.00
H576   H     0.00600   0.18089   0.58545   0.00000  Uiso   1.00
H577   H     0.32662   0.22588   0.55609   0.00000  Uiso   1.00
H578   H     0.07701   0.30459   0.40969   0.00000  Uiso   1.00
H579   H     0.02292   0.30440   0.47131   0.00000  Uiso   1.00
H580   H     0.05724   0.25774   0.49244   0.00000  Uiso   1.00
N581   N     0.16665   0.16666   0.61907   0.00000  Uiso   1.00
N582   N     0.10139   0.11162   0.37345   0.00000  Uiso   1.00
N583   N     0.16668   0.16668   0.38093   0.00000  Uiso   1.00
N584   N     0.32162   0.13667   0.44383   0.00000  Uiso   1.00
N585   N     0.01170   0.19688   0.55591   0.00000  Uiso   1.00
N586   N     0.08848   0.28964   0.44017   0.00000  Uiso   1.00
N587   N     0.24509   0.04373   0.55960   0.00000  Uiso   1.00
N588   N     0.23118   0.22208   0.39127   0.00000  Uiso   1.00
N589   N     0.10134   0.11155   0.60900   0.00000  Uiso   1.00
N590   N     0.22920   0.22569   0.63008   0.00000  Uiso   1.00
O591   O     0.16666   0.10558   0.53821   0.00000  Uiso   1.00
O592   O     0.16667   0.22775   0.46179   0.00000  Uiso   1.00
O593   O     0.16666   0.10559   0.46176   0.00000  Uiso   1.00
O594   O     0.16667   0.22774   0.53824   0.00000  Uiso   1.00
O595   O     0.09058   0.16666   0.52928   0.00000  Uiso   1.00
O596   O     0.24275   0.16667   0.47072   0.00000  Uiso   1.00
O597   O     0.09058   0.16667   0.45284   0.00000  Uiso   1.00
O598   O     0.24275   0.16666   0.54716   0.00000  Uiso   1.00
Zn599  Zn    0.16667   0.16666   0.55104   0.00000  Uiso   1.00
Zn600  Zn    0.16667   0.16667   0.44896   0.00000  Uiso   1.00
C601   C     0.50087   0.08682   0.50001   0.00000  Uiso   1.00
C602   C     0.53823   0.02160   0.53072   0.00000  Uiso   1.00
C603   C     0.49870   0.29063   0.50022   0.00000  Uiso   1.00
C604   C     0.50137   0.04268   0.50001   0.00000  Uiso   1.00
C605   C     0.53151   0.19374   0.36210   0.00000  Uiso   1.00
C606   C     0.46823   0.13950   0.63819   0.00000  Uiso   1.00
C607   C     0.53108   0.19433   0.64757   0.00000  Uiso   1.00
C608   C     0.46814   0.13961   0.35319   0.00000  Uiso   1.00
C609   C     0.37764   0.27654   0.46160   0.00000  Uiso   1.00
C610   C     0.57111   0.04544   0.60695   0.00000  Uiso   1.00
C611   C     0.49954   0.24651   0.50007   0.00000  Uiso   1.00
C612   C     0.40066   0.16631   0.48828   0.00000  Uiso   1.00
C613   C     0.59936   0.16690   0.51171   0.00000  Uiso   1.00
C614   C     0.34619   0.16037   0.48293   0.00000  Uiso   1.00
C615   C     0.65382   0.17294   0.51699   0.00000  Uiso   1.00
C616   C     0.46372   0.02160   0.46942   0.00000  Uiso   1.00
C617   C     0.53693   0.31171   0.53020   0.00000  Uiso   1.00
C618   C     0.46149   0.31171   0.46977   0.00000  Uiso   1.00
H619   H     0.43524   0.03878   0.44646   0.00000  Uiso   1.00
H620   H     0.35071   0.25679   0.43743   0.00000  Uiso   1.00
H621   H     0.61523   0.03359   0.55591   0.00000  Uiso   1.00
H622   H     0.57386   0.01354   0.62193   0.00000  Uiso   1.00
H623   H     0.53253   0.05878   0.61039   0.00000  Uiso   1.00
H624   H     0.60185   0.06589   0.62620   0.00000  Uiso   1.00
H625   H     0.60311   0.21722   0.38632   0.00000  Uiso   1.00
H626   H     0.55462   0.25277   0.38162   0.00000  Uiso   1.00
H627   H     0.44305   0.08074   0.61908   0.00000  Uiso   1.00
H628   H     0.39605   0.11760   0.61291   0.00000  Uiso   1.00
H629   H     0.53834   0.24757   0.61206   0.00000  Uiso   1.00
H630   H     0.56608   0.29460   0.55255   0.00000  Uiso   1.00
H631   H     0.58723   0.21196   0.60985   0.00000  Uiso   1.00
H632   H     0.44368   0.08081   0.36557   0.00000  Uiso   1.00
H633   H     0.39606   0.11731   0.35948   0.00000  Uiso   1.00
H634   H     0.66064   0.15291   0.41443   0.00000  Uiso   1.00
H635   H     0.34012   0.10773   0.44334   0.00000  Uiso   1.00
H636   H     0.33933   0.18089   0.58545   0.00000  Uiso   1.00
H637   H     0.65996   0.22588   0.55609   0.00000  Uiso   1.00
H638   H     0.41034   0.30459   0.40969   0.00000  Uiso   1.00
H639   H     0.35625   0.30440   0.47131   0.00000  Uiso   1.00
H640   H     0.39057   0.25774   0.49244   0.00000  Uiso   1.00
N641   N     0.49999   0.16666   0.61907   0.00000  Uiso   1.00
N642   N     0.43472   0.11162   0.37345   0.00000  Uiso   1.00
N643   N     0.50001   0.16668   0.38093   0.00000  Uiso   1.00
N644   N     0.65495   0.13667   0.44383   0.00000  Uiso   1.00
N645   N     0.34504   0.19688   0.55591   0.00000  Uiso   1.00
N646   N     0.42181   0.28964   0.44017   0.00000  Uiso   1.00
N647   N     0.57843   0.04373   0.55960   0.00000  Uiso   1.00
N648   N     0.56451   0.22208   0.39127   0.00000  Uiso   1.00
N649   N     0.43468   0.11155   0.60900   0.00000  Uiso   1.00
N650   N     0.56254   0.22569   0.63008   0.00000  Uiso   1.00
O651   O     0.50000   0.10558   0.53821   0.00000  Uiso   1.00
O652   O     0.50000   0.22775   0.46179   0.00000  Uiso   1.00
O653   O     0.50000   0.10559   0.46176   0.00000  Uiso   1.00
O654   O     0.50000   0.22774   0.53824   0.00000  Uiso   1.00
O655   O     0.42392   0.16666   0.52928   0.00000  Uiso   1.00
O656   O     0.57608   0.16667   0.47072   0.00000  Uiso   1.00
O657   O     0.42392   0.16667   0.45284   0.00000  Uiso   1.00
O658   O     0.57608   0.16666   0.54716   0.00000  Uiso   1.00
Zn659  Zn    0.50000   0.16666   0.55104   0.00000  Uiso   1.00
Zn660  Zn    0.50000   0.16667   0.44896   0.00000  Uiso   1.00
C661   C     0.83420   0.08682   0.50001   0.00000  Uiso   1.00
C662   C     0.87157   0.02160   0.53072   0.00000  Uiso   1.00
C663   C     0.83204   0.29063   0.50022   0.00000  Uiso   1.00
C664   C     0.83471   0.04268   0.50001   0.00000  Uiso   1.00
C665   C     0.86484   0.19374   0.36210   0.00000  Uiso   1.00
C666   C     0.80157   0.13950   0.63819   0.00000  Uiso   1.00
C667   C     0.86442   0.19433   0.64757   0.00000  Uiso   1.00
C668   C     0.80148   0.13961   0.35319   0.00000  Uiso   1.00
C669   C     0.71097   0.27654   0.46160   0.00000  Uiso   1.00
C670   C     0.90444   0.04544   0.60695   0.00000  Uiso   1.00
C671   C     0.83287   0.24651   0.50007   0.00000  Uiso   1.00
C672   C     0.73399   0.16631   0.48828   0.00000  Uiso   1.00
C673   C     0.93269   0.16690   0.51171   0.00000  Uiso   1.00
C674   C     0.67952   0.16037   0.48293   0.00000  Uiso   1.00
C675   C     0.98715   0.17294   0.51699   0.00000  Uiso   1.00
C676   C     0.79705   0.02160   0.46942   0.00000  Uiso   1.00
C677   C     0.87026   0.31171   0.53020   0.00000  Uiso   1.00
C678   C     0.79483   0.31171   0.46977   0.00000  Uiso   1.00
H679   H     0.76857   0.03878   0.44646   0.00000  Uiso   1.00
H680   H     0.68404   0.25679   0.43743   0.00000  Uiso   1.00
H681   H     0.94856   0.03359   0.55591   0.00000  Uiso   1.00
H682   H     0.90719   0.01354   0.62193   0.00000  Uiso   1.00
H683   H     0.86587   0.05878   0.61039   0.00000  Uiso   1.00
H684   H     0.93518   0.06589   0.62620   0.00000  Uiso   1.00
H685   H     0.93644   0.21722   0.38632   0.00000  Uiso   1.00
H686   H     0.88795   0.25277   0.38162   0.00000  Uiso   1.00
H687   H     0.77638   0.08074   0.61908   0.00000  Uiso   1.00
H688   H     0.72938   0.11760   0.61291   0.00000  Uiso   1.00
H689   H     0.87168   0.24757   0.61206   0.00000  Uiso   1.00
H690   H     0.89942   0.29460   0.55255   0.00000  Uiso   1.00
H691   H     0.92056   0.21196   0.60985   0.00000  Uiso   1.00
H692   H     0.77701   0.08081   0.36557   0.00000  Uiso   1.00
H693   H     0.72940   0.11731   0.35948   0.00000  Uiso   1.00
H694   H     0.99397   0.15291   0.41443   0.00000  Uiso   1.00
H695   H     0.67346   0.10773   0.44334   0.00000  Uiso   1.00
H696   H     0.67266   0.18089   0.58545   0.00000  Uiso   1.00
H697   H     0.99329   0.22588   0.55609   0.00000  Uiso   1.00
H698   H     0.74368   0.30459   0.40969   0.00000  Uiso   1.00
H699   H     0.68958   0.30440   0.47131   0.00000  Uiso   1.00
H700   H     0.72390   0.25774   0.49244   0.00000  Uiso   1.00
N701   N     0.83332   0.16666   0.61907   0.00000  Uiso   1.00
N702   N     0.76805   0.11162   0.37345   0.00000  Uiso   1.00
N703   N     0.83335   0.16668   0.38093   0.00000  Uiso   1.00
N704   N     0.98829   0.13667   0.44383   0.00000  Uiso   1.00
N705   N     0.67837   0.19688   0.55591   0.00000  Uiso   1.00
N706   N     0.75514   0.28964   0.44017   0.00000  Uiso   1.00
N707   N     0.91176   0.04373   0.55960   0.00000  Uiso   1.00
N708   N     0.89785   0.22208   0.39127   0.00000  Uiso   1.00
N709   N     0.76801   0.11155   0.60900   0.00000  Uiso   1.00
N710   N     0.89587   0.22569   0.63008   0.00000  Uiso   1.00
O711   O     0.83333   0.10558   0.53821   0.00000  Uiso   1.00
O712   O     0.83334   0.22775   0.46179   0.00000  Uiso   1.00
O713   O     0.83333   0.10559   0.46176   0.00000  Uiso   1.00
O714   O     0.83334   0.22774   0.53824   0.00000  Uiso   1.00
O715   O     0.75725   0.16666   0.52928   0.00000  Uiso   1.00
O716   O     0.90942   0.16667   0.47072   0.00000  Uiso   1.00
O717   O     0.75725   0.16667   0.45284   0.00000  Uiso   1.00
O718   O     0.90942   0.16666   0.54716   0.00000  Uiso   1.00
Zn719  Zn    0.83333   0.16666   0.55104   0.00000  Uiso   1.00
Zn720  Zn    0.83333   0.16667   0.44896   0.00000  Uiso   1.00
C721   C     0.16754   0.42015   0.50001   0.00000  Uiso   1.00
C722   C     0.20490   0.35493   0.53072   0.00000  Uiso   1.00
C723   C     0.16537   0.62396   0.50022   0.00000  Uiso   1.00
C724   C     0.16804   0.37601   0.50001   0.00000  Uiso   1.00
C725   C     0.19817   0.52707   0.36210   0.00000  Uiso   1.00
C726   C     0.13490   0.47284   0.63819   0.00000  Uiso   1.00
C727   C     0.19775   0.52767   0.64757   0.00000  Uiso   1.00
C728   C     0.13481   0.47295   0.35319   0.00000  Uiso   1.00
C729   C     0.04431   0.60987   0.46160   0.00000  Uiso   1.00
C730   C     0.23777   0.37878   0.60695   0.00000  Uiso   1.00
C731   C     0.16621   0.57985   0.50007   0.00000  Uiso   1.00
C732   C     0.06732   0.49964   0.48828   0.00000  Uiso   1.00
C733   C     0.26602   0.50024   0.51171   0.00000  Uiso   1.00
C734   C     0.01286   0.49370   0.48293   0.00000  Uiso   1.00
C735   C     0.32048   0.50627   0.51699   0.00000  Uiso   1.00
C736   C     0.13039   0.35493   0.46942   0.00000  Uiso   1.00
C737   C     0.20359   0.64504   0.53020   0.00000  Uiso   1.00
C738   C     0.12816   0.64504   0.46977   0.00000  Uiso   1.00
H739   H     0.10191   0.37211   0.44646   0.00000  Uiso   1.00
H740   H     0.01737   0.59012   0.43743   0.00000  Uiso   1.00
H741   H     0.28190   0.36692   0.55591   0.00000  Uiso   1.00
H742   H     0.24053   0.34687   0.62193   0.00000  Uiso   1.00
H743   H     0.19920   0.39211   0.61039   0.00000  Uiso   1.00
H744   H     0.26851   0.39922   0.62620   0.00000  Uiso   1.00
H745   H     0.26978   0.55055   0.38632   0.00000  Uiso   1.00
H746   H     0.22128   0.58610   0.38162   0.00000  Uiso   1.00
H747   H     0.10971   0.41407   0.61908   0.00000  Uiso   1.00
H748   H     0.06271   0.45094   0.61291   0.00000  Uiso   1.00
H749   H     0.20501   0.58090   0.61206   0.00000  Uiso   1.00
H750   H     0.23275   0.62794   0.55255   0.00000  Uiso   1.00
H751   H     0.25389   0.54529   0.60985   0.00000  Uiso   1.00
H752   H     0.11034   0.41414   0.36557   0.00000  Uiso   1.00
H753   H     0.06273   0.45064   0.35948   0.00000  Uiso   1.00
H754   H     0.32731   0.48625   0.41443   0.00000  Uiso   1.00
H755   H     0.00679   0.44107   0.44334   0.00000  Uiso   1.00
H756   H     0.00600   0.51422   0.58545   0.00000  Uiso   1.00
H757   H     0.32662   0.55921   0.55609   0.00000  Uiso   1.00
H758   H     0.07701   0.63792   0.40969   0.00000  Uiso   1.00
H759   H     0.02292   0.63773   0.47131   0.00000  Uiso   1.00
H760   H     0.05724   0.59107   0.49244   0.00000  Uiso   1.00
N761   N     0.16665   0.49999   0.61907   0.00000  Uiso   1.00
N762   N     0.10139   0.44495   0.37345   0.00000  Uiso   1.00
N763   N     0.16668   0.50001   0.38093   0.00000  Uiso   1.00
N764   N     0.32162   0.47000   0.44383   0.00000  Uiso   1.00
N765   N     0.01170   0.53022   0.55591   0.00000  Uiso   1.00
N766   N     0.08848   0.62298   0.44017   0.00000  Uiso   1.00
N767   N     0.24509   0.37706   0.55960   0.00000  Uiso   1.00
N768   N     0.23118   0.55542   0.39127   0.00000  Uiso   1.00
N769   N     0.10134   0.44488   0.60900   0.00000  Uiso   1.00
N770   N     0.22920   0.55902   0.63008   0.00000  Uiso   1.00
O771   O     0.16666   0.43892   0.53821   0.00000  Uiso   1.00
O772   O     0.16667   0.56108   0.46179   0.00000  Uiso   1.00
O773   O     0.16666   0.43893   0.46176   0.00000  Uiso   1.00
O774   O     0.16667   0.56107   0.53824   0.00000  Uiso   1.00
O775   O     0.09058   0.50000   0.52928   0.00000  Uiso   1.00
O776   O     0.24275   0.50000   0.47072   0.00000  Uiso   1.00
O777   O     0.09058   0.50000   0.45284   0.00000  Uiso   1.00
O778   O     0.24275   0.50000   0.54716   0.00000  Uiso   1.00
Zn779  Zn    0.16667   0.49999   0.55104   0.00000  Uiso   1.00
Zn780  Zn    0.16667   0.50001   0.44896   0.00000  Uiso   1.00
C781   C     0.50087   0.42015   0.50001   0.00000  Uiso   1.00
C782   C     0.53823   0.35493   0.53072   0.00000  Uiso   1.00
C783   C     0.49870   0.62396   0.50022   0.00000  Uiso   1.00
C784   C     0.50137   0.37601   0.50001   0.00000  Uiso   1.00
C785   C     0.53151   0.52707   0.36210   0.00000  Uiso   1.00
C786   C     0.46823   0.47284   0.63819   0.00000  Uiso   1.00
C787   C     0.53108   0.52767   0.64757   0.00000  Uiso   1.00
C788   C     0.46814   0.47295   0.35319   0.00000  Uiso   1.00
C789   C     0.37764   0.60987   0.46160   0.00000  Uiso   1.00
C790   C     0.57111   0.37878   0.60695   0.00000  Uiso   1.00
C791   C     0.49954   0.57985   0.50007   0.00000  Uiso   1.00
C792   C     0.40066   0.49964   0.48828   0.00000  Uiso   1.00
C793   C     0.59936   0.50024   0.51171   0.00000  Uiso   1.00
C794   C     0.34619   0.49370   0.48293   0.00000  Uiso   1.00
C795   C     0.65382   0.50627   0.51699   0.00000  Uiso   1.00
C796   C     0.46372   0.35493   0.46942   0.00000  Uiso   1.00
C797   C     0.53693   0.64504   0.53020   0.00000  Uiso   1.00
C798   C     0.46149   0.64504   0.46977   0.00000  Uiso   1.00
H799   H     0.43524   0.37211   0.44646   0.00000  Uiso   1.00
H800   H     0.35071   0.59012   0.43743   0.00000  Uiso   1.00
H801   H     0.61523   0.36692   0.55591   0.00000  Uiso   1.00
H802   H     0.57386   0.34687   0.62193   0.00000  Uiso   1.00
H803   H     0.53253   0.39211   0.61039   0.00000  Uiso   1.00
H804   H     0.60185   0.39922   0.62620   0.00000  Uiso   1.00
H805   H     0.60311   0.55055   0.38632   0.00000  Uiso   1.00
H806   H     0.55462   0.58610   0.38162   0.00000  Uiso   1.00
H807   H     0.44305   0.41407   0.61908   0.00000  Uiso   1.00
H808   H     0.39605   0.45094   0.61291   0.00000  Uiso   1.00
H809   H     0.53834   0.58090   0.61206   0.00000  Uiso   1.00
H810   H     0.56608   0.62794   0.55255   0.00000  Uiso   1.00
H811   H     0.58723   0.54529   0.60985   0.00000  Uiso   1.00
H812   H     0.44368   0.41414   0.36557   0.00000  Uiso   1.00
H813   H     0.39606   0.45064   0.35948   0.00000  Uiso   1.00
H814   H     0.66064   0.48625   0.41443   0.00000  Uiso   1.00
H815   H     0.34012   0.44107   0.44334   0.00000  Uiso   1.00
H816   H     0.33933   0.51422   0.58545   0.00000  Uiso   1.00
H817   H     0.65996   0.55921   0.55609   0.00000  Uiso   1.00
H818   H     0.41034   0.63792   0.40969   0.00000  Uiso   1.00
H819   H     0.35625   0.63773   0.47131   0.00000  Uiso   1.00
H820   H     0.39057   0.59107   0.49244   0.00000  Uiso   1.00
N821   N     0.49999   0.49999   0.61907   0.00000  Uiso   1.00
N822   N     0.43472   0.44495   0.37345   0.00000  Uiso   1.00
N823   N     0.50001   0.50001   0.38093   0.00000  Uiso   1.00
N824   N     0.65495   0.47000   0.44383   0.00000  Uiso   1.00
N825   N     0.34504   0.53022   0.55591   0.00000  Uiso   1.00
N826   N     0.42181   0.62298   0.44017   0.00000  Uiso   1.00
N827   N     0.57843   0.37706   0.55960   0.00000  Uiso   1.00
N828   N     0.56451   0.55542   0.39127   0.00000  Uiso   1.00
N829   N     0.43468   0.44488   0.60900   0.00000  Uiso   1.00
N830   N     0.56254   0.55902   0.63008   0.00000  Uiso   1.00
O831   O     0.50000   0.43892   0.53821   0.00000  Uiso   1.00
O832   O     0.50000   0.56108   0.46179   0.00000  Uiso   1.00
O833   O     0.50000   0.43893   0.46176   0.00000  Uiso   1.00
O834   O     0.50000   0.56107   0.53824   0.00000  Uiso   1.00
O835   O     0.42392   0.50000   0.52928   0.00000  Uiso   1.00
O836   O     0.57608   0.50000   0.47072   0.00000  Uiso   1.00
O837   O     0.42392   0.50000   0.45284   0.00000  Uiso   1.00
O838   O     0.57608   0.50000   0.54716   0.00000  Uiso   1.00
Zn839  Zn    0.50000   0.49999   0.55104   0.00000  Uiso   1.00
Zn840  Zn    0.50000   0.50001   0.44896   0.00000  Uiso   1.00
C841   C     0.83420   0.42015   0.50001   0.00000  Uiso   1.00
C842   C     0.87157   0.35493   0.53072   0.00000  Uiso   1.00
C843   C     0.83204   0.62396   0.50022   0.00000  Uiso   1.00
C844   C     0.83471   0.37601   0.50001   0.00000  Uiso   1.00
C845   C     0.86484   0.52707   0.36210   0.00000  Uiso   1.00
C846   C     0.80157   0.47284   0.63819   0.00000  Uiso   1.00
C847   C     0.86442   0.52767   0.64757   0.00000  Uiso   1.00
C848   C     0.80148   0.47295   0.35319   0.00000  Uiso   1.00
C849   C     0.71097   0.60987   0.46160   0.00000  Uiso   1.00
C850   C     0.90444   0.37878   0.60695   0.00000  Uiso   1.00
C851   C     0.83287   0.57985   0.50007   0.00000  Uiso   1.00
C852   C     0.73399   0.49964   0.48828   0.00000  Uiso   1.00
C853   C     0.93269   0.50024   0.51171   0.00000  Uiso   1.00
C854   C     0.67952   0.49370   0.48293   0.00000  Uiso   1.00
C855   C     0.98715   0.50627   0.51699   0.00000  Uiso   1.00
C856   C     0.79705   0.35493   0.46942   0.00000  Uiso   1.00
C857   C     0.87026   0.64504   0.53020   0.00000  Uiso   1.00
C858   C     0.79483   0.64504   0.46977   0.00000  Uiso   1.00
H859   H     0.76857   0.37211   0.44646   0.00000  Uiso   1.00
H860   H     0.68404   0.59012   0.43743   0.00000  Uiso   1.00
H861   H     0.94856   0.36692   0.55591   0.00000  Uiso   1.00
H862   H     0.90719   0.34687   0.62193   0.00000  Uiso   1.00
H863   H     0.86587   0.39211   0.61039   0.00000  Uiso   1.00
H864   H     0.93518   0.39922   0.62620   0.00000  Uiso   1.00
H865   H     0.93644   0.55055   0.38632   0.00000  Uiso   1.00
H866   H     0.88795   0.58610   0.38162   0.00000  Uiso   1.00
H867   H     0.77638   0.41407   0.61908   0.00000  Uiso   1.00
H868   H     0.72938   0.45094   0.61291   0.00000  Uiso   1.00
H869   H     0.87168   0.58090   0.61206   0.00000  Uiso   1.00
H870   H     0.89942   0.62794   0.55255   0.00000  Uiso   1.00
H871   H     0.92056   0.54529   0.60985   0.00000  Uiso   1.00
H872   H     0.77701   0.41414   0.36557   0.00000  Uiso   1.00
H873   H     0.72940   0.45064   0.35948   0.00000  Uiso   1.00
H874   H     0.99397   0.48625   0.41443   0.00000  Uiso   1.00
H875   H     0.67346   0.44107   0.44334   0.00000  Uiso   1.00
H876   H     0.67266   0.51422   0.58545   0.00000  Uiso   1.00
H877   H     0.99329   0.55921   0.55609   0.00000  Uiso   1.00
H878   H     0.74368   0.63792   0.40969   0.00000  Uiso   1.00
H879   H     0.68958   0.63773   0.47131   0.00000  Uiso   1.00
H880   H     0.72390   0.59107   0.49244   0.00000  Uiso   1.00
N881   N     0.83332   0.49999   0.61907   0.00000  Uiso   1.00
N882   N     0.76805   0.44495   0.37345   0.00000  Uiso   1.00
N883   N     0.83335   0.50001   0.38093   0.00000  Uiso   1.00
N884   N     0.98829   0.47000   0.44383   0.00000  Uiso   1.00
N885   N     0.67837   0.53022   0.55591   0.00000  Uiso   1.00
N886   N     0.75514   0.62298   0.44017   0.00000  Uiso   1.00
N887   N     0.91176   0.37706   0.55960   0.00000  Uiso   1.00
N888   N     0.89785   0.55542   0.39127   0.00000  Uiso   1.00
N889   N     0.76801   0.44488   0.60900   0.00000  Uiso   1.00
N890   N     0.89587   0.55902   0.63008   0.00000  Uiso   1.00
O891   O     0.83333   0.43892   0.53821   0.00000  Uiso   1.00
O892   O     0.83334   0.56108   0.46179   0.00000  Uiso   1.00
O893   O     0.83333   0.43893   0.46176   0.00000  Uiso   1.00
O894   O     0.83334   0.56107   0.53824   0.00000  Uiso   1.00
O895   O     0.75725   0.50000   0.52928   0.00000  Uiso   1.00
O896   O     0.90942   0.50000   0.47072   0.00000  Uiso   1.00
O897   O     0.75725   0.50000   0.45284   0.00000  Uiso   1.00
O898   O     0.90942   0.50000   0.54716   0.00000  Uiso   1.00
Zn899  Zn    0.83333   0.49999   0.55104   0.00000  Uiso   1.00
Zn900  Zn    0.83333   0.50001   0.44896   0.00000  Uiso   1.00
C901   C     0.16754   0.75348   0.50001   0.00000  Uiso   1.00
C902   C     0.20490   0.68827   0.53072   0.00000  Uiso   1.00
C903   C     0.16537   0.95730   0.50022   0.00000  Uiso   1.00
C904   C     0.16804   0.70935   0.50001   0.00000  Uiso   1.00
C905   C     0.19817   0.86041   0.36210   0.00000  Uiso   1.00
C906   C     0.13490   0.80617   0.63819   0.00000  Uiso   1.00
C907   C     0.19775   0.86100   0.64757   0.00000  Uiso   1.00
C908   C     0.13481   0.80628   0.35319   0.00000  Uiso   1.00
C909   C     0.04431   0.94320   0.46160   0.00000  Uiso   1.00
C910   C     0.23777   0.71211   0.60695   0.00000  Uiso   1.00
C911   C     0.16621   0.91318   0.50007   0.00000  Uiso   1.00
C912   C     0.06732   0.83297   0.48828   0.00000  Uiso   1.00
C913   C     0.26602   0.83357   0.51171   0.00000  Uiso   1.00
C914   C     0.01286   0.82703   0.48293   0.00000  Uiso   1.00
C915   C     0.32048   0.83961   0.51699   0.00000  Uiso   1.00
C916   C     0.13039   0.68826   0.46942   0.00000  Uiso   1.00
C917   C     0.20359   0.97838   0.53020   0.00000  Uiso   1.00
C918   C     0.12816   0.97838   0.46977   0.00000  Uiso   1.00
H919   H     0.10191   0.70545   0.44646   0.00000  Uiso   1.00
H920   H     0.01737   0.92345   0.43743   0.00000  Uiso   1.00
H921   H     0.28190   0.70026   0.55591   0.00000  Uiso   1.00
H922   H     0.24053   0.68020   0.62193   0.00000  Uiso   1.00
H923   H     0.19920   0.72545   0.61039   0.00000  Uiso   1.00
H924   H     0.26851   0.73255   0.62620   0.00000  Uiso   1.00
H925   H     0.26978   0.88389   0.38632   0.00000  Uiso   1.00
H926   H     0.22128   0.91943   0.38162   0.00000  Uiso   1.00
H927   H     0.10971   0.74740   0.61908   0.00000  Uiso   1.00
H928   H     0.06271   0.78427   0.61291   0.00000  Uiso   1.00
H929   H     0.20501   0.91424   0.61206   0.00000  Uiso   1.00
H930   H     0.23275   0.96127   0.55255   0.00000  Uiso   1.00
H931   H     0.25389   0.87863   0.60985   0.00000  Uiso   1.00
H932   H     0.11034   0.74747   0.36557   0.00000  Uiso   1.00
H933   H     0.06273   0.78398   0.35948   0.00000  Uiso   1.00
H934   H     0.32731   0.81958   0.41443   0.00000  Uiso   1.00
H935   H     0.00679   0.77440   0.44334   0.00000  Uiso   1.00
H936   H     0.00600   0.84755   0.58545   0.00000  Uiso   1.00
H937   H     0.32662   0.89254   0.55609   0.00000  Uiso   1.00
H938   H     0.07701   0.97126   0.40969   0.00000  Uiso   1.00
H939   H     0.02292   0.97107   0.47131   0.00000  Uiso   1.00
H940   H     0.05724   0.92440   0.49244   0.00000  Uiso   1.00
N941   N     0.16665   0.83332   0.61907   0.00000  Uiso   1.00
N942   N     0.10139   0.77828   0.37345   0.00000  Uiso   1.00
N943   N     0.16668   0.83334   0.38093   0.00000  Uiso   1.00
N944   N     0.32162   0.80333   0.44383   0.00000  Uiso   1.00
N945   N     0.01170   0.86355   0.55591   0.00000  Uiso   1.00
N946   N     0.08848   0.95631   0.44017   0.00000  Uiso   1.00
N947   N     0.24509   0.71039   0.55960   0.00000  Uiso   1.00
N948   N     0.23118   0.88875   0.39127   0.00000  Uiso   1.00
N949   N     0.10134   0.77821   0.60900   0.00000  Uiso   1.00
N950   N     0.22920   0.89235   0.63008   0.00000  Uiso   1.00
O951   O     0.16666   0.77225   0.53821   0.00000  Uiso   1.00
O952   O     0.16667   0.89442   0.46179   0.00000  Uiso   1.00
O953   O     0.16666   0.77226   0.46176   0.00000  Uiso   1.00
O954   O     0.16667   0.89441   0.53824   0.00000  Uiso   1.00
O955   O     0.09058   0.83333   0.52928   0.00000  Uiso   1.00
O956   O     0.24275   0.83334   0.47072   0.00000  Uiso   1.00
O957   O     0.09058   0.83334   0.45284   0.00000  Uiso   1.00
O958   O     0.24275   0.83333   0.54716   0.00000  Uiso   1.00
Zn959  Zn    0.16667   0.83333   0.55104   0.00000  Uiso   1.00
Zn960  Zn    0.16667   0.83334   0.44896   0.00000  Uiso   1.00
C961   C     0.50087   0.75348   0.50001   0.00000  Uiso   1.00
C962   C     0.53823   0.68827   0.53072   0.00000  Uiso   1.00
C963   C     0.49870   0.95730   0.50022   0.00000  Uiso   1.00
C964   C     0.50137   0.70935   0.50001   0.00000  Uiso   1.00
C965   C     0.53151   0.86041   0.36210   0.00000  Uiso   1.00
C966   C     0.46823   0.80617   0.63819   0.00000  Uiso   1.00
C967   C     0.53108   0.86100   0.64757   0.00000  Uiso   1.00
C968   C     0.46814   0.80628   0.35319   0.00000  Uiso   1.00
C969   C     0.37764   0.94320   0.46160   0.00000  Uiso   1.00
C970   C     0.57111   0.71211   0.60695   0.00000  Uiso   1.00
C971   C     0.49954   0.91318   0.50007   0.00000  Uiso   1.00
C972   C     0.40066   0.83297   0.48828   0.00000  Uiso   1.00
C973   C     0.59936   0.83357   0.51171   0.00000  Uiso   1.00
C974   C     0.34619   0.82703   0.48293   0.00000  Uiso   1.00
C975   C     0.65382   0.83961   0.51699   0.00000  Uiso   1.00
C976   C     0.46372   0.68826   0.46942   0.00000  Uiso   1.00
C977   C     0.53693   0.97838   0.53020   0.00000  Uiso   1.00
C978   C     0.46149   0.97838   0.46977   0.00000  Uiso   1.00
H979   H     0.43524   0.70545   0.44646   0.00000  Uiso   1.00
H980   H     0.35071   0.92345   0.43743   0.00000  Uiso   1.00
H981   H     0.61523   0.70026   0.55591   0.00000  Uiso   1.00
H982   H     0.57386   0.68020   0.62193   0.00000  Uiso   1.00
H983   H     0.53253   0.72545   0.61039   0.00000  Uiso   1.00
H984   H     0.60185   0.73255   0.62620   0.00000  Uiso   1.00
H985   H     0.60311   0.88389   0.38632   0.00000  Uiso   1.00
H986   H     0.55462   0.91943   0.38162   0.00000  Uiso   1.00
H987   H     0.44305   0.74740   0.61908   0.00000  Uiso   1.00
H988   H     0.39605   0.78427   0.61291   0.00000  Uiso   1.00
H989   H     0.53834   0.91424   0.61206   0.00000  Uiso   1.00
H990   H     0.56608   0.96127   0.55255   0.00000  Uiso   1.00
H991   H     0.58723   0.87863   0.60985   0.00000  Uiso   1.00
H992   H     0.44368   0.74747   0.36557   0.00000  Uiso   1.00
H993   H     0.39606   0.78398   0.35948   0.00000  Uiso   1.00
H994   H     0.66064   0.81958   0.41443   0.00000  Uiso   1.00
H995   H     0.34012   0.77440   0.44334   0.00000  Uiso   1.00
H996   H     0.33933   0.84755   0.58545   0.00000  Uiso   1.00
H997   H     0.65996   0.89254   0.55609   0.00000  Uiso   1.00
H998   H     0.41034   0.97126   0.40969   0.00000  Uiso   1.00
H999   H     0.35625   0.97107   0.47131   0.00000  Uiso   1.00
H1000  H     0.39057   0.92440   0.49244   0.00000  Uiso   1.00
N1001  N     0.49999   0.83332   0.61907   0.00000  Uiso   1.00
N1002  N     0.43472   0.77828   0.37345   0.00000  Uiso   1.00
N1003  N     0.50001   0.83334   0.38093   0.00000  Uiso   1.00
N1004  N     0.65495   0.80333   0.44383   0.00000  Uiso   1.00
N1005  N     0.34504   0.86355   0.55591   0.00000  Uiso   1.00
N1006  N     0.42181   0.95631   0.44017   0.00000  Uiso   1.00
N1007  N     0.57843   0.71039   0.55960   0.00000  Uiso   1.00
N1008  N     0.56451   0.88875   0.39127   0.00000  Uiso   1.00
N1009  N     0.43468   0.77821   0.60900   0.00000  Uiso   1.00
N1010  N     0.56254   0.89235   0.63008   0.00000  Uiso   1.00
O1011  O     0.50000   0.77225   0.53821   0.00000  Uiso   1.00
O1012  O     0.50000   0.89442   0.46179   0.00000  Uiso   1.00
O1013  O     0.50000   0.77226   0.46176   0.00000  Uiso   1.00
O1014  O     0.50000   0.89441   0.53824   0.00000  Uiso   1.00
O1015  O     0.42392   0.83333   0.52928   0.00000  Uiso   1.00
O1016  O     0.57608   0.83334   0.47072   0.00000  Uiso   1.00
O1017  O     0.42392   0.83334   0.45284   0.00000  Uiso   1.00
O1018  O     0.57608   0.83333   0.54716   0.00000  Uiso   1.00
Zn1019 Zn    0.50000   0.83333   0.55104   0.00000  Uiso   1.00
Zn1020 Zn    0.50000   0.83334   0.44896   0.00000  Uiso   1.00
C1021  C     0.83420   0.75348   0.50001   0.00000  Uiso   1.00
C1022  C     0.87157   0.68827   0.53072   0.00000  Uiso   1.00
C1023  C     0.83204   0.95730   0.50022   0.00000  Uiso   1.00
C1024  C     0.83471   0.70935   0.50001   0.00000  Uiso   1.00
C1025  C     0.86484   0.86041   0.36210   0.00000  Uiso   1.00
C1026  C     0.80157   0.80617   0.63819   0.00000  Uiso   1.00
C1027  C     0.86442   0.86100   0.64757   0.00000  Uiso   1.00
C1028  C     0.80148   0.80628   0.35319   0.00000  Uiso   1.00
C1029  C     0.71097   0.94320   0.46160   0.00000  Uiso   1.00
C1030  C     0.90444   0.71211   0.60695   0.00000  Uiso   1.00
C1031  C     0.83287   0.91318   0.50007   0.00000  Uiso   1.00
C1032  C     0.73399   0.83297   0.48828   0.00000  Uiso   1.00
C1033  C     0.93269   0.83357   0.51171   0.00000  Uiso   1.00
C1034  C     0.67952   0.82703   0.48293   0.00000  Uiso   1.00
C1035  C     0.98715   0.83961   0.51699   0.00000  Uiso   1.00
C1036  C     0.79705   0.68826   0.46942   0.00000  Uiso   1.00
C1037  C     0.87026   0.97838   0.53020   0.00000  Uiso   1.00
C1038  C     0.79483   0.97838   0.46977   0.00000  Uiso   1.00
H1039  H     0.76857   0.70545   0.44646   0.00000  Uiso   1.00
H1040  H     0.68404   0.92345   0.43743   0.00000  Uiso   1.00
H1041  H     0.94856   0.70026   0.55591   0.00000  Uiso   1.00
H1042  H     0.90719   0.68020   0.62193   0.00000  Uiso   1.00
H1043  H     0.86587   0.72545   0.61039   0.00000  Uiso   1.00
H1044  H     0.93518   0.73255   0.62620   0.00000  Uiso   1.00
H1045  H     0.93644   0.88389   0.38632   0.00000  Uiso   1.00
H1046  H     0.88795   0.91943   0.38162   0.00000  Uiso   1.00
H1047  H     0.77638   0.74740   0.61908   0.00000  Uiso   1.00
H1048  H     0.72938   0.78427   0.61291   0.00000  Uiso   1.00
H1049  H     0.87168   0.91424   0.61206   0.00000  Uiso   1.00
H1050  H     0.89942   0.96127   0.55255   0.00000  Uiso   1.00
H1051  H     0.92056   0.87863   0.60985   0.00000  Uiso   1.00
H1052  H     0.77701   0.74747   0.36557   0.00000  Uiso   1.00
H1053  H     0.72940   0.78398   0.35948   0.00000  Uiso   1.00
H1054  H     0.99397   0.81958   0.41443   0.00000  Uiso   1.00
H1055  H     0.67346   0.77440   0.44334   0.00000  Uiso   1.00
H1056  H     0.67266   0.84755   0.58545   0.00000  Uiso   1.00
H1057  H     0.99329   0.89254   0.55609   0.00000  Uiso   1.00
H1058  H     0.74368   0.97126   0.40969   0.00000  Uiso   1.00
H1059  H     0.68958   0.97107   0.47131   0.00000  Uiso   1.00
H1060  H     0.72390   0.92440   0.49244   0.00000  Uiso   1.00
N1061  N     0.83332   0.83332   0.61907   0.00000  Uiso   1.00
N1062  N     0.76805   0.77828   0.37345   0.00000  Uiso   1.00
N1063  N     0.83335   0.83334   0.38093   0.00000  Uiso   1.00
N1064  N     0.98829   0.80333   0.44383   0.00000  Uiso   1.00
N1065  N     0.67837   0.86355   0.55591   0.00000  Uiso   1.00
N1066  N     0.75514   0.95631   0.44017   0.00000  Uiso   1.00
N1067  N     0.91176   0.71039   0.55960   0.00000  Uiso   1.00
N1068  N     0.89785   0.88875   0.39127   0.00000  Uiso   1.00
N1069  N     0.76801   0.77821   0.60900   0.00000  Uiso   1.00
N1070  N     0.89587   0.89235   0.63008   0.00000  Uiso   1.00
O1071  O     0.83333   0.77225   0.53821   0.00000  Uiso   1.00
O1072  O     0.83334   0.89442   0.46179   0.00000  Uiso   1.00
O1073  O     0.83333   0.77226   0.46176   0.00000  Uiso   1.00
O1074  O     0.83334   0.89441   0.53824   0.00000  Uiso   1.00
O1075  O     0.75725   0.83333   0.52928   0.00000  Uiso   1.00
O1076  O     0.90942   0.83334   0.47072   0.00000  Uiso   1.00
O1077  O     0.75725   0.83334   0.45284   0.00000  Uiso   1.00
O1078  O     0.90942   0.83333   0.54716   0.00000  Uiso   1.00
Zn1079 Zn    0.83333   0.83333   0.55104   0.00000  Uiso   1.00
Zn1080 Zn    0.83333   0.83334   0.44896   0.00000  Uiso   1.00
C1081  C     0.16754   0.08682   0.83334   0.00000  Uiso   1.00
C1082  C     0.20490   0.02160   0.86405   0.00000  Uiso   1.00
C1083  C     0.16537   0.29063   0.83356   0.00000  Uiso   1.00
C1084  C     0.16804   0.04268   0.83334   0.00000  Uiso   1.00
C1085  C     0.19817   0.19374   0.69544   0.00000  Uiso   1.00
C1086  C     0.13490   0.13950   0.97153   0.00000  Uiso   1.00
C1087  C     0.19775   0.19433   0.98090   0.00000  Uiso   1.00
C1088  C     0.13481   0.13961   0.68653   0.00000  Uiso   1.00
C1089  C     0.04431   0.27654   0.79493   0.00000  Uiso   1.00
C1090  C     0.23777   0.04544   0.94028   0.00000  Uiso   1.00
C1091  C     0.16621   0.24651   0.83340   0.00000  Uiso   1.00
C1092  C     0.06732   0.16631   0.82162   0.00000  Uiso   1.00
C1093  C     0.26602   0.16690   0.84504   0.00000  Uiso   1.00
C1094  C     0.01286   0.16037   0.81626   0.00000  Uiso   1.00
C1095  C     0.32048   0.17294   0.85032   0.00000  Uiso   1.00
C1096  C     0.13039   0.02160   0.80276   0.00000  Uiso   1.00
C1097  C     0.20359   0.31171   0.86354   0.00000  Uiso   1.00
C1098  C     0.12816   0.31171   0.80310   0.00000  Uiso   1.00
H1099  H     0.10191   0.03878   0.77979   0.00000  Uiso   1.00
H1100  H     0.01737   0.25679   0.77076   0.00000  Uiso   1.00
H1101  H     0.28190   0.03359   0.88924   0.00000  Uiso   1.00
H1102  H     0.24053   0.01354   0.95526   0.00000  Uiso   1.00
H1103  H     0.19920   0.05878   0.94373   0.00000  Uiso   1.00
H1104  H     0.26851   0.06589   0.95954   0.00000  Uiso   1.00
H1105  H     0.26978   0.21722   0.71966   0.00000  Uiso   1.00
H1106  H     0.22128   0.25277   0.71495   0.00000  Uiso   1.00
H1107  H     0.10971   0.08074   0.95241   0.00000  Uiso   1.00
H1108  H     0.06271   0.11760   0.94624   0.00000  Uiso   1.00
H1109  H     0.20501   0.24757   0.94539   0.00000  Uiso   1.00
H1110  H     0.23275   0.29460   0.88588   0.00000  Uiso   1.00
H1111  H     0.25389   0.21196   0.94319   0.00000  Uiso   1.00
H1112  H     0.11034   0.08081   0.69891   0.00000  Uiso   1.00
H1113  H     0.06273   0.11731   0.69281   0.00000  Uiso   1.00
H1114  H     0.32731   0.15291   0.74777   0.00000  Uiso   1.00
H1115  H     0.00679   0.10773   0.77667   0.00000  Uiso   1.00
H1116  H     0.00600   0.18089   0.91878   0.00000  Uiso   1.00
H1117  H     0.32662   0.22588   0.88942   0.00000  Uiso   1.00
H1118  H     0.07701   0.30459   0.74302   0.00000  Uiso   1.00
H1119  H     0.02292   0.30440   0.80464   0.00000  Uiso   1.00
H1120  H     0.05724   0.25774   0.82577   0.00000  Uiso   1.00
N1121  N     0.16665   0.16666   0.95240   0.00000  Uiso   1.00
N1122  N     0.10139   0.11162   0.70678   0.00000  Uiso   1.00
N1123  N     0.16668   0.16668   0.71427   0.00000  Uiso   1.00
N1124  N     0.32162   0.13667   0.77716   0.00000  Uiso   1.00
N1125  N     0.01170   0.19688   0.88924   0.00000  Uiso   1.00
N1126  N     0.08848   0.28964   0.77350   0.00000  Uiso   1.00
N1127  N     0.24509   0.04373   0.89293   0.00000  Uiso   1.00
N1128  N     0.23118   0.22208   0.72460   0.00000  Uiso   1.00
N1129  N     0.10134   0.11155   0.94234   0.00000  Uiso   1.00
N1130  N     0.22920   0.22569   0.96341   0.00000  Uiso   1.00
O1131  O     0.16666   0.10558   0.87154   0.00000  Uiso   1.00
O1132  O     0.16667   0.22775   0.79513   0.00000  Uiso   1.00
O1133  O     0.16666   0.10559   0.79510   0.00000  Uiso   1.00
O1134  O     0.16667   0.22774   0.87157   0.00000  Uiso   1.00
O1135  O     0.09058   0.16666   0.86261   0.00000  Uiso   1.00
O1136  O     0.24275   0.16667   0.80405   0.00000  Uiso   1.00
O1137  O     0.09058   0.16667   0.78617   0.00000  Uiso   1.00
O1138  O     0.24275   0.16666   0.88050   0.00000  Uiso   1.00
Zn1139 Zn    0.16667   0.16666   0.88437   0.00000  Uiso   1.00
Zn1140 Zn    0.16667   0.16667   0.78229   0.00000  Uiso   1.00
C1141  C     0.50087   0.08682   0.83334   0.00000  Uiso   1.00
C1142  C     0.53823   0.02160   0.86405   0.00000  Uiso   1.00
C1143  C     0.49870   0.29063   0.83356   0.00000  Uiso   1.00
C1144  C     0.50137   0.04268   0.83334   0.00000  Uiso   1.00
C1145  C     0.53151   0.19374   0.69544   0.00000  Uiso   1.00
C1146  C     0.46823   0.13950   0.97153   0.00000  Uiso   1.00
C1147  C     0.53108   0.19433   0.98090   0.00000  Uiso   1.00
C1148  C     0.46814   0.13961   0.68653   0.00000  Uiso   1.00
C1149  C     0.37764   0.27654   0.79493   0.00000  Uiso   1.00
C1150  C     0.57111   0.04544   0.94028   0.00000  Uiso   1.00
C1151  C     0.49954   0.24651   0.83340   0.00000  Uiso   1.00
C1152  C     0.40066   0.16631   0.82162   0.00000  Uiso   1.00
C1153  C     0.59936   0.16690   0.84504   0.00000  Uiso   1.00
C1154  C     0.34619   0.16037   0.81626   0.00000  Uiso   1.00
C1155  C     0.65382   0.17294   0.85032   0.00000  Uiso   1.00
C1156  C     0.46372   0.02160   0.80276   0.00000  Uiso   1.00
C1157  C     0.53693   0.31171   0.86354   0.00000  Uiso   1.00
C1158  C     0.46149   0.31171   0.80310   0.00000  Uiso   1.00
H1159  H     0.43524   0.03878   0.77979   0.00000  Uiso   1.00
H1160  H     0.35071   0.25679   0.77076   0.00000  Uiso   1.00
H1161  H     0.61523   0.03359   0.88924   0.00000  Uiso   1.00
H1162  H     0.57386   0.01354   0.95526   0.00000  Uiso   1.00
H1163  H     0.53253   0.05878   0.94373   0.00000  Uiso   1.00
H1164  H     0.60185   0.06589   0.95954   0.00000  Uiso   1.00
H1165  H     0.60311   0.21722   0.71966   0.00000  Uiso   1.00
H1166  H     0.55462   0.25277   0.71495   0.00000  Uiso   1.00
H1167  H     0.44305   0.08074   0.95241   0.00000  Uiso   1.00
H1168  H     0.39605   0.11760   0.94624   0.00000  Uiso   1.00
H1169  H     0.53834   0.24757   0.94539   0.00000  Uiso   1.00
H1170  H     0.56608   0.29460   0.88588   0.00000  Uiso   1.00
H1171  H     0.58723   0.21196   0.94319   0.00000  Uiso   1.00
H1172  H     0.44368   0.08081   0.69891   0.00000  Uiso   1.00
H1173  H     0.39606   0.11731   0.69281   0.00000  Uiso   1.00
H1174  H     0.66064   0.15291   0.74777   0.00000  Uiso   1.00
H1175  H     0.34012   0.10773   0.77667   0.00000  Uiso   1.00
H1176  H     0.33933   0.18089   0.91878   0.00000  Uiso   1.00
H1177  H     0.65996   0.22588   0.88942   0.00000  Uiso   1.00
H1178  H     0.41034   0.30459   0.74302   0.00000  Uiso   1.00
H1179  H     0.35625   0.30440   0.80464   0.00000  Uiso   1.00
H1180  H     0.39057   0.25774   0.82577   0.00000  Uiso   1.00
N1181  N     0.49999   0.16666   0.95240   0.00000  Uiso   1.00
N1182  N     0.43472   0.11162   0.70678   0.00000  Uiso   1.00
N1183  N     0.50001   0.16668   0.71427   0.00000  Uiso   1.00
N1184  N     0.65495   0.13667   0.77716   0.00000  Uiso   1.00
N1185  N     0.34504   0.19688   0.88924   0.00000  Uiso   1.00
N1186  N     0.42181   0.28964   0.77350   0.00000  Uiso   1.00
N1187  N     0.57843   0.04373   0.89293   0.00000  Uiso   1.00
N1188  N     0.56451   0.22208   0.72460   0.00000  Uiso   1.00
N1189  N     0.43468   0.11155   0.94234   0.00000  Uiso   1.00
N1190  N     0.56254   0.22569   0.96341   0.00000  Uiso   1.00
O1191  O     0.50000   0.10558   0.87154   0.00000  Uiso   1.00
O1192  O     0.50000   0.22775   0.79513   0.00000  Uiso   1.00
O1193  O     0.50000   0.10559   0.79510   0.00000  Uiso   1.00
O1194  O     0.50000   0.22774   0.87157   0.00000  Uiso   1.00
O1195  O     0.42392   0.16666   0.86261   0.00000  Uiso   1.00
O1196  O     0.57608   0.16667   0.80405   0.00000  Uiso   1.00
O1197  O     0.42392   0.16667   0.78617   0.00000  Uiso   1.00
O1198  O     0.57608   0.16666   0.88050   0.00000  Uiso   1.00
Zn1199 Zn    0.50000   0.16666   0.88437   0.00000  Uiso   1.00
Zn1200 Zn    0.50000   0.16667   0.78229   0.00000  Uiso   1.00
C1201  C     0.83420   0.08682   0.83334   0.00000  Uiso   1.00
C1202  C     0.87157   0.02160   0.86405   0.00000  Uiso   1.00
C1203  C     0.83204   0.29063   0.83356   0.00000  Uiso   1.00
C1204  C     0.83471   0.04268   0.83334   0.00000  Uiso   1.00
C1205  C     0.86484   0.19374   0.69544   0.00000  Uiso   1.00
C1206  C     0.80157   0.13950   0.97153   0.00000  Uiso   1.00
C1207  C     0.86442   0.19433   0.98090   0.00000  Uiso   1.00
C1208  C     0.80148   0.13961   0.68653   0.00000  Uiso   1.00
C1209  C     0.71097   0.27654   0.79493   0.00000  Uiso   1.00
C1210  C     0.90444   0.04544   0.94028   0.00000  Uiso   1.00
C1211  C     0.83287   0.24651   0.83340   0.00000  Uiso   1.00
C1212  C     0.73399   0.16631   0.82162   0.00000  Uiso   1.00
C1213  C     0.93269   0.16690   0.84504   0.00000  Uiso   1.00
C1214  C     0.67952   0.16037   0.81626   0.00000  Uiso   1.00
C1215  C     0.98715   0.17294   0.85032   0.00000  Uiso   1.00
C1216  C     0.79705   0.02160   0.80276   0.00000  Uiso   1.00
C1217  C     0.87026   0.31171   0.86354   0.00000  Uiso   1.00
C1218  C     0.79483   0.31171   0.80310   0.00000  Uiso   1.00
H1219  H     0.76857   0.03878   0.77979   0.00000  Uiso   1.00
H1220  H     0.68404   0.25679   0.77076   0.00000  Uiso   1.00
H1221  H     0.94856   0.03359   0.88924   0.00000  Uiso   1.00
H1222  H     0.90719   0.01354   0.95526   0.00000  Uiso   1.00
H1223  H     0.86587   0.05878   0.94373   0.00000  Uiso   1.00
H1224  H     0.93518   0.06589   0.95954   0.00000  Uiso   1.00
H1225  H     0.93644   0.21722   0.71966   0.00000  Uiso   1.00
H1226  H     0.88795   0.25277   0.71495   0.00000  Uiso   1.00
H1227  H     0.77638   0.08074   0.95241   0.00000  Uiso   1.00
H1228  H     0.72938   0.11760   0.94624   0.00000  Uiso   1.00
H1229  H     0.87168   0.24757   0.94539   0.00000  Uiso   1.00
H1230  H     0.89942   0.29460   0.88588   0.00000  Uiso   1.00
H1231  H     0.92056   0.21196   0.94319   0.00000  Uiso   1.00
H1232  H     0.77701   0.08081   0.69891   0.00000  Uiso   1.00
H1233  H     0.72940   0.11731   0.69281   0.00000  Uiso   1.00
H1234  H     0.99397   0.15291   0.74777   0.00000  Uiso   1.00
H1235  H     0.67346   0.10773   0.77667   0.00000  Uiso   1.00
H1236  H     0.67266   0.18089   0.91878   0.00000  Uiso   1.00
H1237  H     0.99329   0.22588   0.88942   0.00000  Uiso   1.00
H1238  H     0.74368   0.30459   0.74302   0.00000  Uiso   1.00
H1239  H     0.68958   0.30440   0.80464   0.00000  Uiso   1.00
H1240  H     0.72390   0.25774   0.82577   0.00000  Uiso   1.00
N1241  N     0.83332   0.16666   0.95240   0.00000  Uiso   1.00
N1242  N     0.76805   0.11162   0.70678   0.00000  Uiso   1.00
N1243  N     0.83335   0.16668   0.71427   0.00000  Uiso   1.00
N1244  N     0.98829   0.13667   0.77716   0.00000  Uiso   1.00
N1245  N     0.67837   0.19688   0.88924   0.00000  Uiso   1.00
N1246  N     0.75514   0.28964   0.77350   0.00000  Uiso   1.00
N1247  N     0.91176   0.04373   0.89293   0.00000  Uiso   1.00
N1248  N     0.89785   0.22208   0.72460   0.00000  Uiso   1.00
N1249  N     0.76801   0.11155   0.94234   0.00000  Uiso   1.00
N1250  N     0.89587   0.22569   0.96341   0.00000  Uiso   1.00
O1251  O     0.83333   0.10558   0.87154   0.00000  Uiso   1.00
O1252  O     0.83334   0.22775   0.79513   0.00000  Uiso   1.00
O1253  O     0.83333   0.10559   0.79510   0.00000  Uiso   1.00
O1254  O     0.83334   0.22774   0.87157   0.00000  Uiso   1.00
O1255  O     0.75725   0.16666   0.86261   0.00000  Uiso   1.00
O1256  O     0.90942   0.16667   0.80405   0.00000  Uiso   1.00
O1257  O     0.75725   0.16667   0.78617   0.00000  Uiso   1.00
O1258  O     0.90942   0.16666   0.88050   0.00000  Uiso   1.00
Zn1259 Zn    0.83333   0.16666   0.88437   0.00000  Uiso   1.00
Zn1260 Zn    0.83333   0.16667   0.78229   0.00000  Uiso   1.00
C1261  C     0.16754   0.42015   0.83334   0.00000  Uiso   1.00
C1262  C     0.20490   0.35493   0.86405   0.00000  Uiso   1.00
C1263  C     0.16537   0.62396   0.83356   0.00000  Uiso   1.00
C1264  C     0.16804   0.37601   0.83334   0.00000  Uiso   1.00
C1265  C     0.19817   0.52707   0.69544   0.00000  Uiso   1.00
C1266  C     0.13490   0.47284   0.97153   0.00000  Uiso   1.00
C1267  C     0.19775   0.52767   0.98090   0.00000  Uiso   1.00
C1268  C     0.13481   0.47295   0.68653   0.00000  Uiso   1.00
C1269  C     0.04431   0.60987   0.79493   0.00000  Uiso   1.00
C1270  C     0.23777   0.37878   0.94028   0.00000  Uiso   1.00
C1271  C     0.16621   0.57985   0.83340   0.00000  Uiso   1.00
C1272  C     0.06732   0.49964   0.82162   0.00000  Uiso   1.00
C1273  C     0.26602   0.50024   0.84504   0.00000  Uiso   1.00
C1274  C     0.01286   0.49370   0.81626   0.00000  Uiso   1.00
C1275  C     0.32048   0.50627   0.85032   0.00000  Uiso   1.00
C1276  C     0.13039   0.35493   0.80276   0.00000  Uiso   1.00
C1277  C     0.20359   0.64504   0.86354   0.00000  Uiso   1.00
C1278  C     0.12816   0.64504   0.80310   0.00000  Uiso   1.00
H1279  H     0.10191   0.37211   0.77979   0.00000  Uiso   1.00
H1280  H     0.01737   0.59012   0.77076   0.00000  Uiso   1.00
H1281  H     0.28190   0.36692   0.88924   0.00000  Uiso   1.00
H1282  H     0.24053   0.34687   0.95526   0.00000  Uiso   1.00
H1283  H     0.19920   0.39211   0.94373   0.00000  Uiso   1.00
H1284  H     0.26851   0.39922   0.95954   0.00000  Uiso   1.00
H1285  H     0.26978   0.55055   0.71966   0.00000  Uiso   1.00
H1286  H     0.22128   0.58610   0.71495   0.00000  Uiso   1.00
H1287  H     0.10971   0.41407   0.95241   0.00000  Uiso   1.00
H1288  H     0.06271   0.45094   0.94624   0.00000  Uiso   1.00
H1289  H     0.20501   0.58090   0.94539   0.00000  Uiso   1.00
H1290  H     0.23275   0.62794   0.88588   0.00000  Uiso   1.00
H1291  H     0.25389   0.54529   0.94319   0.00000  Uiso   1.00
H1292  H     0.11034   0.41414   0.69891   0.00000  Uiso   1.00
H1293  H     0.06273   0.45064   0.69281   0.00000  Uiso   1.00
H1294  H     0.32731   0.48625   0.74777   0.00000  Uiso   1.00
H1295  H     0.00679   0.44107   0.77667   0.00000  Uiso   1.00
H1296  H     0.00600   0.51422   0.91878   0.00000  Uiso   1.00
H1297  H     0.32662   0.55921   0.88942   0.00000  Uiso   1.00
H1298  H     0.07701   0.63792   0.74302   0.00000  Uiso   1.00
H1299  H     0.02292   0.63773   0.80464   0.00000  Uiso   1.00
H1300  H     0.05724   0.59107   0.82577   0.00000  Uiso   1.00
N1301  N     0.16665   0.49999   0.95240   0.00000  Uiso   1.00
N1302  N     0.10139   0.44495   0.70678   0.00000  Uiso   1.00
N1303  N     0.16668   0.50001   0.71427   0.00000  Uiso   1.00
N1304  N     0.32162   0.47000   0.77716   0.00000  Uiso   1.00
N1305  N     0.01170   0.53022   0.88924   0.00000  Uiso   1.00
N1306  N     0.08848   0.62298   0.77350   0.00000  Uiso   1.00
N1307  N     0.24509   0.37706   0.89293   0.00000  Uiso   1.00
N1308  N     0.23118   0.55542   0.72460   0.00000  Uiso   1.00
N1309  N     0.10134   0.44488   0.94234   0.00000  Uiso   1.00
N1310  N     0.22920   0.55902   0.96341   0.00000  Uiso   1.00
O1311  O     0.16666   0.43892   0.87154   0.00000  Uiso   1.00
O1312  O     0.16667   0.56108   0.79513   0.00000  Uiso   1.00
O1313  O     0.16666   0.43893   0.79510   0.00000  Uiso   1.00
O1314  O     0.16667   0.56107   0.87157   0.00000  Uiso   1.00
O1315  O     0.09058   0.50000   0.86261   0.00000  Uiso   1.00
O1316  O     0.24275   0.50000   0.80405   0.00000  Uiso   1.00
O1317  O     0.09058   0.50000   0.78617   0.00000  Uiso   1.00
O1318  O     0.24275   0.50000   0.88050   0.00000  Uiso   1.00
Zn1319 Zn    0.16667   0.49999   0.88437   0.00000  Uiso   1.00
Zn1320 Zn    0.16667   0.50001   0.78229   0.00000  Uiso   1.00
C1321  C     0.50087   0.42015   0.83334   0.00000  Uiso   1.00
C1322  C     0.53823   0.35493   0.86405   0.00000  Uiso   1.00
C1323  C     0.49870   0.62396   0.83356   0.00000  Uiso   1.00
C1324  C     0.50137   0.37601   0.83334   0.00000  Uiso   1.00
C1325  C     0.53151   0.52707   0.69544   0.00000  Uiso   1.00
C1326  C     0.46823   0.47284   0.97153   0.00000  Uiso   1.00
C1327  C     0.53108   0.52767   0.98090   0.00000  Uiso   1.00
C1328  C     0.46814   0.47295   0.68653   0.00000  Uiso   1.00
C1329  C     0.37764   0.60987   0.79493   0.00000  Uiso   1.00
C1330  C     0.57111   0.37878   0.94028   0.00000  Uiso   1.00
C1331  C     0.49954   0.57985   0.83340   0.00000  Uiso   1.00
C1332  C     0.40066   0.49964   0.82162   0.00000  Uiso   1.00
C1333  C     0.59936   0.50024   0.84504   0.00000  Uiso   1.00
C1334  C     0.34619   0.49370   0.81626   0.00000  Uiso   1.00
C1335  C     0.65382   0.50627   0.85032   0.00000  Uiso   1.00
C1336  C     0.46372   0.35493   0.80276   0.00000  Uiso   1.00
C1337  C     0.53693   0.64504   0.86354   0.00000  Uiso   1.00
C1338  C     0.46149   0.64504   0.80310   0.00000  Uiso   1.00
H1339  H     0.43524   0.37211   0.77979   0.00000  Uiso   1.00
H1340  H     0.35071   0.59012   0.77076   0.00000  Uiso   1.00
H1341  H     0.61523   0.36692   0.88924   0.00000  Uiso   1.00
H1342  H     0.57386   0.34687   0.95526   0.00000  Uiso   1.00
H1343  H     0.53253   0.39211   0.94373   0.00000  Uiso   1.00
H1344  H     0.60185   0.39922   0.95954   0.00000  Uiso   1.00
H1345  H     0.60311   0.55055   0.71966   0.00000  Uiso   1.00
H1346  H     0.55462   0.58610   0.71495   0.00000  Uiso   1.00
H1347  H     0.44305   0.41407   0.95241   0.00000  Uiso   1.00
H1348  H     0.39605   0.45094   0.94624   0.00000  Uiso   1.00
H1349  H     0.53834   0.58090   0.94539   0.00000  Uiso   1.00
H1350  H     0.56608   0.62794   0.88588   0.00000  Uiso   1.00
H1351  H     0.58723   0.54529   0.94319   0.00000  Uiso   1.00
H1352  H     0.44368   0.41414   0.69891   0.00000  Uiso   1.00
H1353  H     0.39606   0.45064   0.69281   0.00000  Uiso   1.00
H1354  H     0.66064   0.48625   0.74777   0.00000  Uiso   1.00
H1355  H     0.34012   0.44107   0.77667   0.00000  Uiso   1.00
H1356  H     0.33933   0.51422   0.91878   0.00000  Uiso   1.00
H1357  H     0.65996   0.55921   0.88942   0.00000  Uiso   1.00
H1358  H     0.41034   0.63792   0.74302   0.00000  Uiso   1.00
H1359  H     0.35625   0.63773   0.80464   0.00000  Uiso   1.00
H1360  H     0.39057   0.59107   0.82577   0.00000  Uiso   1.00
N1361  N     0.49999   0.49999   0.95240   0.00000  Uiso   1.00
N1362  N     0.43472   0.44495   0.70678   0.00000  Uiso   1.00
N1363  N     0.50001   0.50001   0.71427   0.00000  Uiso   1.00
N1364  N     0.65495   0.47000   0.77716   0.00000  Uiso   1.00
N1365  N     0.34504   0.53022   0.88924   0.00000  Uiso   1.00
N1366  N     0.42181   0.62298   0.77350   0.00000  Uiso   1.00
N1367  N     0.57843   0.37706   0.89293   0.00000  Uiso   1.00
N1368  N     0.56451   0.55542   0.72460   0.00000  Uiso   1.00
N1369  N     0.43468   0.44488   0.94234   0.00000  Uiso   1.00
N1370  N     0.56254   0.55902   0.96341   0.00000  Uiso   1.00
O1371  O     0.50000   0.43892   0.87154   0.00000  Uiso   1.00
O1372  O     0.50000   0.56108   0.79513   0.00000  Uiso   1.00
O1373  O     0.50000   0.43893   0.79510   0.00000  Uiso   1.00
O1374  O     0.50000   0.56107   0.87157   0.00000  Uiso   1.00
O1375  O     0.42392   0.50000   0.86261   0.00000  Uiso   1.00
O1376  O     0.57608   0.50000   0.80405   0.00000  Uiso   1.00
O1377  O     0.42392   0.50000   0.78617   0.00000  Uiso   1.00
O1378  O     0.57608   0.50000   0.88050   0.00000  Uiso   1.00
Zn1379 Zn    0.50000   0.49999   0.88437   0.00000  Uiso   1.00
Zn1380 Zn    0.50000   0.50001   0.78229   0.00000  Uiso   1.00
C1381  C     0.83420   0.42015   0.83334   0.00000  Uiso   1.00
C1382  C     0.87157   0.35493   0.86405   0.00000  Uiso   1.00
C1383  C     0.83204   0.62396   0.83356   0.00000  Uiso   1.00
C1384  C     0.83471   0.37601   0.83334   0.00000  Uiso   1.00
C1385  C     0.86484   0.52707   0.69544   0.00000  Uiso   1.00
C1386  C     0.80157   0.47284   0.97153   0.00000  Uiso   1.00
C1387  C     0.86442   0.52767   0.98090   0.00000  Uiso   1.00
C1388  C     0.80148   0.47295   0.68653   0.00000  Uiso   1.00
C1389  C     0.71097   0.60987   0.79493   0.00000  Uiso   1.00
C1390  C     0.90444   0.37878   0.94028   0.00000  Uiso   1.00
C1391  C     0.83287   0.57985   0.83340   0.00000  Uiso   1.00
C1392  C     0.73399   0.49964   0.82162   0.00000  Uiso   1.00
C1393  C     0.93269   0.50024   0.84504   0.00000  Uiso   1.00
C1394  C     0.67952   0.49370   0.81626   0.00000  Uiso   1.00
C1395  C     0.98715   0.50627   0.85032   0.00000  Uiso   1.00
C1396  C     0.79705   0.35493   0.80276   0.00000  Uiso   1.00
C1397  C     0.87026   0.64504   0.86354   0.00000  Uiso   1.00
C1398  C     0.79483   0.64504   0.80310   0.00000  Uiso   1.00
H1399  H     0.76857   0.37211   0.77979   0.00000  Uiso   1.00
H1400  H     0.68404   0.59012   0.77076   0.00000  Uiso   1.00
H1401  H     0.94856   0.36692   0.88924   0.00000  Uiso   1.00
H1402  H     0.90719   0.34687   0.95526   0.00000  Uiso   1.00
H1403  H     0.86587   0.39211   0.94373   0.00000  Uiso   1.00
H1404  H     0.93518   0.39922   0.95954   0.00000  Uiso   1.00
H1405  H     0.93644   0.55055   0.71966   0.00000  Uiso   1.00
H1406  H     0.88795   0.58610   0.71495   0.00000  Uiso   1.00
H1407  H     0.77638   0.41407   0.95241   0.00000  Uiso   1.00
H1408  H     0.72938   0.45094   0.94624   0.00000  Uiso   1.00
H1409  H     0.87168   0.58090   0.94539   0.00000  Uiso   1.00
H1410  H     0.89942   0.62794   0.88588   0.00000  Uiso   1.00
H1411  H     0.92056   0.54529   0.94319   0.00000  Uiso   1.00
H1412  H     0.77701   0.41414   0.69891   0.00000  Uiso   1.00
H1413  H     0.72940   0.45064   0.69281   0.00000  Uiso   1.00
H1414  H     0.99397   0.48625   0.74777   0.00000  Uiso   1.00
H1415  H     0.67346   0.44107   0.77667   0.00000  Uiso   1.00
H1416  H     0.67266   0.51422   0.91878   0.00000  Uiso   1.00
H1417  H     0.99329   0.55921   0.88942   0.00000  Uiso   1.00
H1418  H     0.74368   0.63792   0.74302   0.00000  Uiso   1.00
H1419  H     0.68958   0.63773   0.80464   0.00000  Uiso   1.00
H1420  H     0.72390   0.59107   0.82577   0.00000  Uiso   1.00
N1421  N     0.83332   0.49999   0.95240   0.00000  Uiso   1.00
N1422  N     0.76805   0.44495   0.70678   0.00000  Uiso   1.00
N1423  N     0.83335   0.50001   0.71427   0.00000  Uiso   1.00
N1424  N     0.98829   0.47000   0.77716   0.00000  Uiso   1.00
N1425  N     0.67837   0.53022   0.88924   0.00000  Uiso   1.00
N1426  N     0.75514   0.62298   0.77350   0.00000  Uiso   1.00
N1427  N     0.91176   0.37706   0.89293   0.00000  Uiso   1.00
N1428  N     0.89785   0.55542   0.72460   0.00000  Uiso   1.00
N1429  N     0.76801   0.44488   0.94234   0.00000  Uiso   1.00
N1430  N     0.89587   0.55902   0.96341   0.00000  Uiso   1.00
O1431  O     0.83333   0.43892   0.87154   0.00000  Uiso   1.00
O1432  O     0.83334   0.56108   0.79513   0.00000  Uiso   1.00
O1433  O     0.83333   0.43893   0.79510   0.00000  Uiso   1.00
O1434  O     0.83334   0.56107   0.87157   0.00000  Uiso   1.00
O1435  O     0.75725   0.50000   0.86261   0.00000  Uiso   1.00
O1436  O     0.90942   0.50000   0.80405   0.00000  Uiso   1.00
O1437  O     0.75725   0.50000   0.78617   0.00000  Uiso   1.00
O1438  O     0.90942   0.50000   0.88050   0.00000  Uiso   1.00
Zn1439 Zn    0.83333   0.49999   0.88437   0.00000  Uiso   1.00
Zn1440 Zn    0.83333   0.50001   0.78229   0.00000  Uiso   1.00
C1441  C     0.16754   0.75348   0.83334   0.00000  Uiso   1.00
C1442  C     0.20490   0.68827   0.86405   0.00000  Uiso   1.00
C1443  C     0.16537   0.95730   0.83356   0.00000  Uiso   1.00
C1444  C     0.16804   0.70935   0.83334   0.00000  Uiso   1.00
C1445  C     0.19817   0.86041   0.69544   0.00000  Uiso   1.00
C1446  C     0.13490   0.80617   0.97153   0.00000  Uiso   1.00
C1447  C     0.19775   0.86100   0.98090   0.00000  Uiso   1.00
C1448  C     0.13481   0.80628   0.68653   0.00000  Uiso   1.00
C1449  C     0.04431   0.94320   0.79493   0.00000  Uiso   1.00
C1450  C     0.23777   0.71211   0.94028   0.00000  Uiso   1.00
C1451  C     0.16621   0.91318   0.83340   0.00000  Uiso   1.00
C1452  C     0.06732   0.83297   0.82162   0.00000  Uiso   1.00
C1453  C     0.26602   0.83357   0.84504   0.00000  Uiso   1.00
C1454  C     0.01286   0.82703   0.81626   0.00000  Uiso   1.00
C1455  C     0.32048   0.83961   0.85032   0.00000  Uiso   1.00
C1456  C     0.13039   0.68826   0.80276   0.00000  Uiso   1.00
C1457  C     0.20359   0.97838   0.86354   0.00000  Uiso   1.00
C1458  C     0.12816   0.97838   0.80310   0.00000  Uiso   1.00
H1459  H     0.10191   0.70545   0.77979   0.00000  Uiso   1.00
H1460  H     0.01737   0.92345   0.77076   0.00000  Uiso   1.00
H1461  H     0.28190   0.70026   0.88924   0.00000  Uiso   1.00
H1462  H     0.24053   0.68020   0.95526   0.00000  Uiso   1.00
H1463  H     0.19920   0.72545   0.94373   0.00000  Uiso   1.00
H1464  H     0.26851   0.73255   0.95954   0.00000  Uiso   1.00
H1465  H     0.26978   0.88389   0.71966   0.00000  Uiso   1.00
H1466  H     0.22128   0.91943   0.71495   0.00000  Uiso   1.00
H1467  H     0.10971   0.74740   0.95241   0.00000  Uiso   1.00
H1468  H     0.06271   0.78427   0.94624   0.00000  Uiso   1.00
H1469  H     0.20501   0.91424   0.94539   0.00000  Uiso   1.00
H1470  H     0.23275   0.96127   0.88588   0.00000  Uiso   1.00
H1471  H     0.25389   0.87863   0.94319   0.00000  Uiso   1.00
H1472  H     0.11034   0.74747   0.69891   0.00000  Uiso   1.00
H1473  H     0.06273   0.78398   0.69281   0.00000  Uiso   1.00
H1474  H     0.32731   0.81958   0.74777   0.00000  Uiso   1.00
H1475  H     0.00679   0.77440   0.77667   0.00000  Uiso   1.00
H1476  H     0.00600   0.84755   0.91878   0.00000  Uiso   1.00
H1477  H     0.32662   0.89254   0.88942   0.00000  Uiso   1.00
H1478  H     0.07701   0.97126   0.74302   0.00000  Uiso   1.00
H1479  H     0.02292   0.97107   0.80464   0.00000  Uiso   1.00
H1480  H     0.05724   0.92440   0.82577   0.00000  Uiso   1.00
N1481  N     0.16665   0.83332   0.95240   0.00000  Uiso   1.00
N1482  N     0.10139   0.77828   0.70678   0.00000  Uiso   1.00
N1483  N     0.16668   0.83334   0.71427   0.00000  Uiso   1.00
N1484  N     0.32162   0.80333   0.77716   0.00000  Uiso   1.00
N1485  N     0.01170   0.86355   0.88924   0.00000  Uiso   1.00
N1486  N     0.08848   0.95631   0.77350   0.00000  Uiso   1.00
N1487  N     0.24509   0.71039   0.89293   0.00000  Uiso   1.00
N1488  N     0.23118   0.88875   0.72460   0.00000  Uiso   1.00
N1489  N     0.10134   0.77821   0.94234   0.00000  Uiso   1.00
N1490  N     0.22920   0.89235   0.96341   0.00000  Uiso   1.00
O1491  O     0.16666   0.77225   0.87154   0.00000  Uiso   1.00
O1492  O     0.16667   0.89442   0.79513   0.00000  Uiso   1.00
O1493  O     0.16666   0.77226   0.79510   0.00000  Uiso   1.00
O1494  O     0.16667   0.89441   0.87157   0.00000  Uiso   1.00
O1495  O     0.09058   0.83333   0.86261   0.00000  Uiso   1.00
O1496  O     0.24275   0.83334   0.80405   0.00000  Uiso   1.00
O1497  O     0.09058   0.83334   0.78617   0.00000  Uiso   1.00
O1498  O     0.24275   0.83333   0.88050   0.00000  Uiso   1.00
Zn1499 Zn    0.16667   0.83333   0.88437   0.00000  Uiso   1.00
Zn1500 Zn    0.16667   0.83334   0.78229   0.00000  Uiso   1.00
C1501  C     0.50087   0.75348   0.83334   0.00000  Uiso   1.00
C1502  C     0.53823   0.68827   0.86405   0.00000  Uiso   1.00
C1503  C     0.49870   0.95730   0.83356   0.00000  Uiso   1.00
C1504  C     0.50137   0.70935   0.83334   0.00000  Uiso   1.00
C1505  C     0.53151   0.86041   0.69544   0.00000  Uiso   1.00
C1506  C     0.46823   0.80617   0.97153   0.00000  Uiso   1.00
C1507  C     0.53108   0.86100   0.98090   0.00000  Uiso   1.00
C1508  C     0.46814   0.80628   0.68653   0.00000  Uiso   1.00
C1509  C     0.37764   0.94320   0.79493   0.00000  Uiso   1.00
C1510  C     0.57111   0.71211   0.94028   0.00000  Uiso   1.00
C1511  C     0.49954   0.91318   0.83340   0.00000  Uiso   1.00
C1512  C     0.40066   0.83297   0.82162   0.00000  Uiso   1.00
C1513  C     0.59936   0.83357   0.84504   0.00000  Uiso   1.00
C1514  C     0.34619   0.82703   0.81626   0.00000  Uiso   1.00
C1515  C     0.65382   0.83961   0.85032   0.00000  Uiso   1.00
C1516  C     0.46372   0.68826   0.80276   0.00000  Uiso   1.00
C1517  C     0.53693   0.97838   0.86354   0.00000  Uiso   1.00
C1518  C     0.46149   0.97838   0.80310   0.00000  Uiso   1.00
H1519  H     0.43524   0.70545   0.77979   0.00000  Uiso   1.00
H1520  H     0.35071   0.92345   0.77076   0.00000  Uiso   1.00
H1521  H     0.61523   0.70026   0.88924   0.00000  Uiso   1.00
H1522  H     0.57386   0.68020   0.95526   0.00000  Uiso   1.00
H1523  H     0.53253   0.72545   0.94373   0.00000  Uiso   1.00
H1524  H     0.60185   0.73255   0.95954   0.00000  Uiso   1.00
H1525  H     0.60311   0.88389   0.71966   0.00000  Uiso   1.00
H1526  H     0.55462   0.91943   0.71495   0.00000  Uiso   1.00
H1527  H     0.44305   0.74740   0.95241   0.00000  Uiso   1.00
H1528  H     0.39605   0.78427   0.94624   0.00000  Uiso   1.00
H1529  H     0.53834   0.91424   0.94539   0.00000  Uiso   1.00
H1530  H     0.56608   0.96127   0.88588   0.00000  Uiso   1.00
H1531  H     0.58723   0.87863   0.94319   0.00000  Uiso   1.00
H1532  H     0.44368   0.74747   0.69891   0.00000  Uiso   1.00
H1533  H     0.39606   0.78398   0.69281   0.00000  Uiso   1.00
H1534  H     0.66064   0.81958   0.74777   0.00000  Uiso   1.00
H1535  H     0.34012   0.77440   0.77667   0.00000  Uiso   1.00
H1536  H     0.33933   0.84755   0.91878   0.00000  Uiso   1.00
H1537  H     0.65996   0.89254   0.88942   0.00000  Uiso   1.00
H1538  H     0.41034   0.97126   0.74302   0.00000  Uiso   1.00
H1539  H     0.35625   0.97107   0.80464   0.00000  Uiso   1.00
H1540  H     0.39057   0.92440   0.82577   0.00000  Uiso   1.00
N1541  N     0.49999   0.83332   0.95240   0.00000  Uiso   1.00
N1542  N     0.43472   0.77828   0.70678   0.00000  Uiso   1.00
N1543  N     0.50001   0.83334   0.71427   0.00000  Uiso   1.00
N1544  N     0.65495   0.80333   0.77716   0.00000  Uiso   1.00
N1545  N     0.34504   0.86355   0.88924   0.00000  Uiso   1.00
N1546  N     0.42181   0.95631   0.77350   0.00000  Uiso   1.00
N1547  N     0.57843   0.71039   0.89293   0.00000  Uiso   1.00
N1548  N     0.56451   0.88875   0.72460   0.00000  Uiso   1.00
N1549  N     0.43468   0.77821   0.94234   0.00000  Uiso   1.00
N1550  N     0.56254   0.89235   0.96341   0.00000  Uiso   1.00
O1551  O     0.50000   0.77225   0.87154   0.00000  Uiso   1.00
O1552  O     0.50000   0.89442   0.79513   0.00000  Uiso   1.00
O1553  O     0.50000   0.77226   0.79510   0.00000  Uiso   1.00
O1554  O     0.50000   0.89441   0.87157   0.00000  Uiso   1.00
O1555  O     0.42392   0.83333   0.86261   0.00000  Uiso   1.00
O1556  O     0.57608   0.83334   0.80405   0.00000  Uiso   1.00
O1557  O     0.42392   0.83334   0.78617   0.00000  Uiso   1.00
O1558  O     0.57608   0.83333   0.88050   0.00000  Uiso   1.00
Zn1559 Zn    0.50000   0.83333   0.88437   0.00000  Uiso   1.00
Zn1560 Zn    0.50000   0.83334   0.78229   0.00000  Uiso   1.00
C1561  C     0.83420   0.75348   0.83334   0.00000  Uiso   1.00
C1562  C     0.87157   0.68827   0.86405   0.00000  Uiso   1.00
C1563  C     0.83204   0.95730   0.83356   0.00000  Uiso   1.00
C1564  C     0.83471   0.70935   0.83334   0.00000  Uiso   1.00
C1565  C     0.86484   0.86041   0.69544   0.00000  Uiso   1.00
C1566  C     0.80157   0.80617   0.97153   0.00000  Uiso   1.00
C1567  C     0.86442   0.86100   0.98090   0.00000  Uiso   1.00
C1568  C     0.80148   0.80628   0.68653   0.00000  Uiso   1.00
C1569  C     0.71097   0.94320   0.79493   0.00000  Uiso   1.00
C1570  C     0.90444   0.71211   0.94028   0.00000  Uiso   1.00
C1571  C     0.83287   0.91318   0.83340   0.00000  Uiso   1.00
C1572  C     0.73399   0.83297   0.82162   0.00000  Uiso   1.00
C1573  C     0.93269   0.83357   0.84504   0.00000  Uiso   1.00
C1574  C     0.67952   0.82703   0.81626   0.00000  Uiso   1.00
C1575  C     0.98715   0.83961   0.85032   0.00000  Uiso   1.00
C1576  C     0.79705   0.68826   0.80276   0.00000  Uiso   1.00
C1577  C     0.87026   0.97838   0.86354   0.00000  Uiso   1.00
C1578  C     0.79483   0.97838   0.80310   0.00000  Uiso   1.00
H1579  H     0.76857   0.70545   0.77979   0.00000  Uiso   1.00
H1580  H     0.68404   0.92345   0.77076   0.00000  Uiso   1.00
H1581  H     0.94856   0.70026   0.88924   0.00000  Uiso   1.00
H1582  H     0.90719   0.68020   0.95526   0.00000  Uiso   1.00
H1583  H     0.86587   0.72545   0.94373   0.00000  Uiso   1.00
H1584  H     0.93518   0.73255   0.95954   0.00000  Uiso   1.00
H1585  H     0.93644   0.88389   0.71966   0.00000  Uiso   1.00
H1586  H     0.88795   0.91943   0.71495   0.00000  Uiso   1.00
H1587  H     0.77638   0.74740   0.95241   0.00000  Uiso   1.00
H1588  H     0.72938   0.78427   0.94624   0.00000  Uiso   1.00
H1589  H     0.87168   0.91424   0.94539   0.00000  Uiso   1.00
H1590  H     0.89942   0.96127   0.88588   0.00000  Uiso   1.00
H1591  H     0.92056   0.87863   0.94319   0.00000  Uiso   1.00
H1592  H     0.77701   0.74747   0.69891   0.00000  Uiso   1.00
H1593  H     0.72940   0.78398   0.69281   0.00000  Uiso   1.00
H1594  H     0.99397   0.81958   0.74777   0.00000  Uiso   1.00
H1595  H     0.67346   0.77440   0.77667   0.00000  Uiso   1.00
H1596  H     0.67266   0.84755   0.91878   0.00000  Uiso   1.00
H1597  H     0.99329   0.89254   0.88942   0.00000  Uiso   1.00
H1598  H     0.74368   0.97126   0.74302   0.00000  Uiso   1.00
H1599  H     0.68958   0.97107   0.80464   0.00000  Uiso   1.00
H1600  H     0.72390   0.92440   0.82577   0.00000  Uiso   1.00
N1601  N     0.83332   0.83332   0.95240   0.00000  Uiso   1.00
N1602  N     0.76805   0.77828   0.70678   0.00000  Uiso   1.00
N1603  N     0.83335   0.83334   0.71427   0.00000  Uiso   1.00
N1604  N     0.98829   0.80333   0.77716   0.00000  Uiso   1.00
N1605  N     0.67837   0.86355   0.88924   0.00000  Uiso   1.00
N1606  N     0.75514   0.95631   0.77350   0.00000  Uiso   1.00
N1607  N     0.91176   0.71039   0.89293   0.00000  Uiso   1.00
N1608  N     0.89785   0.88875   0.72460   0.00000  Uiso   1.00
N1609  N     0.76801   0.77821   0.94234   0.00000  Uiso   1.00
N1610  N     0.89587   0.89235   0.96341   0.00000  Uiso   1.00
O1611  O     0.83333   0.77225   0.87154   0.00000  Uiso   1.00
O1612  O     0.83334   0.89442   0.79513   0.00000  Uiso   1.00
O1613  O     0.83333   0.77226   0.79510   0.00000  Uiso   1.00
O1614  O     0.83334   0.89441   0.87157   0.00000  Uiso   1.00
O1615  O     0.75725   0.83333   0.86261   0.00000  Uiso   1.00
O1616  O     0.90942   0.83334   0.80405   0.00000  Uiso   1.00
O1617  O     0.75725   0.83334   0.78617   0.00000  Uiso   1.00
O1618  O     0.90942   0.83333   0.88050   0.00000  Uiso   1.00
Zn1619 Zn    0.83333   0.83333   0.88437   0.00000  Uiso   1.00
Zn1620 Zn    0.83333   0.83334   0.78229   0.00000  Uiso   1.00
loop_
_geom_bond_atom_site_label_1
_geom_bond_atom_site_label_2
_geom_bond_distance
_geom_bond_site_symmetry_2
_ccdc_geom_bond_type
C1     C4      1.407   .     S
C1     O51     1.282   .     A
C1     O53     1.285   .     A
C2     C4      1.402   .     A
C2     N47     1.424   .     S
C2     C377    1.377   1_545 S
C3     C17     1.393   .     A
C3     C11     1.406   .     S
C3     C18     1.403   .     A
C4     C16     1.393   .     A
C5     N43     1.358   .     A
C5     N48     1.431   .     S
C5     C1087   1.420   1_554 S
C6     N49     1.431   .     S
C6     N41     1.369   .     A
C6     C548    1.435   .     S
C7     N41     1.383   .     A
C7     N50     1.429   .     S
C7     C545    1.420   .     S
C8     N43     1.369   .     A
C8     N42     1.431   .     S
C8     C1086   1.435   1_554 S
C9     H20     1.110   .     S
C9     H39     1.112   .     S
C9     N46     1.447   .     S
C9     H40     1.110   .     S
C10    H22     1.112   .     S
C10    H23     1.110   .     S
C10    N47     1.447   .     S
C10    H24     1.110   .     S
C11    O54     1.284   .     A
C11    O52     1.282   .     A
C12    C14     1.407   .     S
C12    O55     1.276   .     A
C12    O57     1.287   .     A
C13    O56     1.276   .     A
C13    C15     1.407   .     S
C13    O58     1.288   .     A
C14    C135    1.352   1_455 S
C14    N164    1.443   1_455 S
C15    C74     1.352   .     S
C15    N105    1.443   .     S
C16    H19     1.085   .     S
C16    C378    1.378   1_545 S
C17    H30     1.085   .     S
C17    C182    1.377   .     S
C18    N46     1.425   .     S
C18    C196    1.378   .     S
H21    N47     1.032   .     S
H25    N48     1.045   .     S
H26    N48     1.045   .     S
H27    N49     1.045   .     S
H28    N49     1.045   .     S
H29    N50     1.041   .     S
H31    N50     1.038   .     S
H32    N42     1.045   .     S
H33    N42     1.045   .     S
H34    N44     1.046   .     S
H35    N164    1.046   1_455 S
H36    N45     1.046   .     S
H37    N105    1.046   .     S
H38    N46     1.032   .     S
N41    Zn59    2.020   .     S
N43    Zn60    2.020   .     S
N44    H95     1.046   .     S
N44    C74     1.443   .     S
N45    H157    1.046   1_455 S
N45    C135    1.443   1_455 S
O51    Zn59    1.981   .     S
O52    Zn60    1.981   .     S
O53    Zn60    1.986   .     S
O54    Zn59    1.986   .     S
O55    Zn59    1.982   .     S
O56    Zn60    1.982   .     S
O57    Zn60    1.992   .     S
O58    Zn59    1.992   .     S
C61    C64     1.407   .     S
C61    O111    1.282   .     A
C61    O113    1.285   .     A
C62    C64     1.402   .     A
C62    N107    1.424   .     S
C62    C437    1.377   1_545 S
C63    C77     1.393   .     A
C63    C71     1.406   .     S
C63    C78     1.403   .     A
C64    C76     1.393   .     A
C65    N103    1.358   .     A
C65    N108    1.431   .     S
C65    C1147   1.420   1_554 S
C66    N109    1.431   .     S
C66    N101    1.369   .     A
C66    C608    1.435   .     S
C67    N101    1.383   .     A
C67    N110    1.429   .     S
C67    C605    1.420   .     S
C68    N103    1.369   .     A
C68    N102    1.431   .     S
C68    C1146   1.435   1_554 S
C69    H80     1.110   .     S
C69    H99     1.112   .     S
C69    N106    1.447   .     S
C69    H100    1.110   .     S
C70    H82     1.112   .     S
C70    H83     1.110   .     S
C70    N107    1.447   .     S
C70    H84     1.110   .     S
C71    O114    1.284   .     A
C71    O112    1.282   .     A
C72    C74     1.407   .     S
C72    O115    1.276   .     A
C72    O117    1.287   .     A
C73    O116    1.276   .     A
C73    C75     1.407   .     S
C73    O118    1.288   .     A
C75    C134    1.352   .     S
C75    N165    1.443   .     S
C76    H79     1.085   .     S
C76    C438    1.378   1_545 S
C77    H90     1.085   .     S
C77    C242    1.377   .     S
C78    N106    1.425   .     S
C78    C256    1.378   .     S
H81    N107    1.032   .     S
H85    N108    1.045   .     S
H86    N108    1.045   .     S
H87    N109    1.045   .     S
H88    N109    1.045   .     S
H89    N110    1.041   .     S
H91    N110    1.038   .     S
H92    N102    1.045   .     S
H93    N102    1.045   .     S
H94    N104    1.046   .     S
H96    N105    1.046   .     S
H97    N165    1.046   .     S
H98    N106    1.032   .     S
N101   Zn119   2.020   .     S
N103   Zn120   2.020   .     S
N104   H155    1.046   .     S
N104   C134    1.443   .     S
O111   Zn119   1.981   .     S
O112   Zn120   1.981   .     S
O113   Zn120   1.986   .     S
O114   Zn119   1.986   .     S
O115   Zn119   1.982   .     S
O116   Zn120   1.982   .     S
O117   Zn120   1.992   .     S
O118   Zn119   1.992   .     S
C121   C124    1.407   .     S
C121   O171    1.282   .     A
C121   O173    1.285   .     A
C122   C124    1.402   .     A
C122   N167    1.424   .     S
C122   C497    1.377   1_545 S
C123   C137    1.393   .     A
C123   C131    1.406   .     S
C123   C138    1.403   .     A
C124   C136    1.393   .     A
C125   N163    1.358   .     A
C125   N168    1.431   .     S
C125   C1207   1.420   1_554 S
C126   N169    1.431   .     S
C126   N161    1.369   .     A
C126   C668    1.435   .     S
C127   N161    1.383   .     A
C127   N170    1.429   .     S
C127   C665    1.420   .     S
C128   N163    1.369   .     A
C128   N162    1.431   .     S
C128   C1206   1.435   1_554 S
C129   H140    1.110   .     S
C129   H159    1.112   .     S
C129   N166    1.447   .     S
C129   H160    1.110   .     S
C130   H142    1.112   .     S
C130   H143    1.110   .     S
C130   N167    1.447   .     S
C130   H144    1.110   .     S
C131   O174    1.284   .     A
C131   O172    1.282   .     A
C132   C134    1.407   .     S
C132   O175    1.276   .     A
C132   O177    1.287   .     A
C133   O176    1.276   .     A
C133   C135    1.407   .     S
C133   O178    1.288   .     A
C135   C14     1.352   1_655 S
C135   N45     1.443   1_655 S
C136   H139    1.085   .     S
C136   C498    1.378   1_545 S
C137   H150    1.085   .     S
C137   C302    1.377   .     S
C138   N166    1.425   .     S
C138   C316    1.378   .     S
H141   N167    1.032   .     S
H145   N168    1.045   .     S
H146   N168    1.045   .     S
H147   N169    1.045   .     S
H148   N169    1.045   .     S
H149   N170    1.041   .     S
H151   N170    1.038   .     S
H152   N162    1.045   .     S
H153   N162    1.045   .     S
H154   N164    1.046   .     S
H156   N165    1.046   .     S
H157   N45     1.046   1_655 S
H158   N166    1.032   .     S
N161   Zn179   2.020   .     S
N163   Zn180   2.020   .     S
N164   H35     1.046   1_655 S
N164   C14     1.443   1_655 S
O171   Zn179   1.981   .     S
O172   Zn180   1.981   .     S
O173   Zn180   1.986   .     S
O174   Zn179   1.986   .     S
O175   Zn179   1.982   .     S
O176   Zn180   1.982   .     S
O177   Zn180   1.992   .     S
O178   Zn179   1.992   .     S
C181   C184    1.407   .     S
C181   O231    1.282   .     A
C181   O233    1.285   .     A
C182   C184    1.402   .     A
C182   N227    1.424   .     S
C183   C197    1.393   .     A
C183   C191    1.406   .     S
C183   C198    1.403   .     A
C184   C196    1.393   .     A
C185   N223    1.358   .     A
C185   N228    1.431   .     S
C185   C1267   1.420   1_554 S
C186   N229    1.431   .     S
C186   N221    1.369   .     A
C186   C728    1.435   .     S
C187   N221    1.383   .     A
C187   N230    1.429   .     S
C187   C725    1.420   .     S
C188   N223    1.369   .     A
C188   N222    1.431   .     S
C188   C1266   1.435   1_554 S
C189   H200    1.110   .     S
C189   H219    1.112   .     S
C189   N226    1.447   .     S
C189   H220    1.110   .     S
C190   H202    1.112   .     S
C190   H203    1.110   .     S
C190   N227    1.447   .     S
C190   H204    1.110   .     S
C191   O234    1.284   .     A
C191   O232    1.282   .     A
C192   C194    1.407   .     S
C192   O235    1.276   .     A
C192   O237    1.287   .     A
C193   O236    1.276   .     A
C193   C195    1.407   .     S
C193   O238    1.288   .     A
C194   C315    1.352   1_455 S
C194   N344    1.443   1_455 S
C195   C254    1.352   .     S
C195   N285    1.443   .     S
C196   H199    1.085   .     S
C197   H210    1.085   .     S
C197   C362    1.377   .     S
C198   N226    1.425   .     S
C198   C376    1.378   .     S
H201   N227    1.032   .     S
H205   N228    1.045   .     S
H206   N228    1.045   .     S
H207   N229    1.045   .     S
H208   N229    1.045   .     S
H209   N230    1.041   .     S
H211   N230    1.038   .     S
H212   N222    1.045   .     S
H213   N222    1.045   .     S
H214   N224    1.046   .     S
H215   N344    1.046   1_455 S
H216   N225    1.046   .     S
H217   N285    1.046   .     S
H218   N226    1.032   .     S
N221   Zn239   2.020   .     S
N223   Zn240   2.020   .     S
N224   H275    1.046   .     S
N224   C254    1.443   .     S
N225   H337    1.046   1_455 S
N225   C315    1.443   1_455 S
O231   Zn239   1.981   .     S
O232   Zn240   1.981   .     S
O233   Zn240   1.986   .     S
O234   Zn239   1.986   .     S
O235   Zn239   1.982   .     S
O236   Zn240   1.982   .     S
O237   Zn240   1.992   .     S
O238   Zn239   1.992   .     S
C241   C244    1.407   .     S
C241   O291    1.282   .     A
C241   O293    1.285   .     A
C242   C244    1.402   .     A
C242   N287    1.424   .     S
C243   C257    1.393   .     A
C243   C251    1.406   .     S
C243   C258    1.403   .     A
C244   C256    1.393   .     A
C245   N283    1.358   .     A
C245   N288    1.431   .     S
C245   C1327   1.420   1_554 S
C246   N289    1.431   .     S
C246   N281    1.369   .     A
C246   C788    1.435   .     S
C247   N281    1.383   .     A
C247   N290    1.429   .     S
C247   C785    1.420   .     S
C248   N283    1.369   .     A
C248   N282    1.431   .     S
C248   C1326   1.435   1_554 S
C249   H260    1.110   .     S
C249   H279    1.112   .     S
C249   N286    1.447   .     S
C249   H280    1.110   .     S
C250   H262    1.112   .     S
C250   H263    1.110   .     S
C250   N287    1.447   .     S
C250   H264    1.110   .     S
C251   O294    1.284   .     A
C251   O292    1.282   .     A
C252   C254    1.407   .     S
C252   O295    1.276   .     A
C252   O297    1.287   .     A
C253   O296    1.276   .     A
C253   C255    1.407   .     S
C253   O298    1.288   .     A
C255   C314    1.352   .     S
C255   N345    1.443   .     S
C256   H259    1.085   .     S
C257   H270    1.085   .     S
C257   C422    1.377   .     S
C258   N286    1.425   .     S
C258   C436    1.378   .     S
H261   N287    1.032   .     S
H265   N288    1.045   .     S
H266   N288    1.045   .     S
H267   N289    1.045   .     S
H268   N289    1.045   .     S
H269   N290    1.041   .     S
H271   N290    1.038   .     S
H272   N282    1.045   .     S
H273   N282    1.045   .     S
H274   N284    1.046   .     S
H276   N285    1.046   .     S
H277   N345    1.046   .     S
H278   N286    1.032   .     S
N281   Zn299   2.020   .     S
N283   Zn300   2.020   .     S
N284   H335    1.046   .     S
N284   C314    1.443   .     S
O291   Zn299   1.981   .     S
O292   Zn300   1.981   .     S
O293   Zn300   1.986   .     S
O294   Zn299   1.986   .     S
O295   Zn299   1.982   .     S
O296   Zn300   1.982   .     S
O297   Zn300   1.992   .     S
O298   Zn299   1.992   .     S
C301   C304    1.407   .     S
C301   O351    1.282   .     A
C301   O353    1.285   .     A
C302   C304    1.402   .     A
C302   N347    1.424   .     S
C303   C317    1.393   .     A
C303   C311    1.406   .     S
C303   C318    1.403   .     A
C304   C316    1.393   .     A
C305   N343    1.358   .     A
C305   N348    1.431   .     S
C305   C1387   1.420   1_554 S
C306   N349    1.431   .     S
C306   N341    1.369   .     A
C306   C848    1.435   .     S
C307   N341    1.383   .     A
C307   N350    1.429   .     S
C307   C845    1.420   .     S
C308   N343    1.369   .     A
C308   N342    1.431   .     S
C308   C1386   1.435   1_554 S
C309   H320    1.110   .     S
C309   H339    1.112   .     S
C309   N346    1.447   .     S
C309   H340    1.110   .     S
C310   H322    1.112   .     S
C310   H323    1.110   .     S
C310   N347    1.447   .     S
C310   H324    1.110   .     S
C311   O354    1.284   .     A
C311   O352    1.282   .     A
C312   C314    1.407   .     S
C312   O355    1.276   .     A
C312   O357    1.287   .     A
C313   O356    1.276   .     A
C313   C315    1.407   .     S
C313   O358    1.288   .     A
C315   C194    1.352   1_655 S
C315   N225    1.443   1_655 S
C316   H319    1.085   .     S
C317   H330    1.085   .     S
C317   C482    1.377   .     S
C318   N346    1.425   .     S
C318   C496    1.378   .     S
H321   N347    1.032   .     S
H325   N348    1.045   .     S
H326   N348    1.045   .     S
H327   N349    1.045   .     S
H328   N349    1.045   .     S
H329   N350    1.041   .     S
H331   N350    1.038   .     S
H332   N342    1.045   .     S
H333   N342    1.045   .     S
H334   N344    1.046   .     S
H336   N345    1.046   .     S
H337   N225    1.046   1_655 S
H338   N346    1.032   .     S
N341   Zn359   2.020   .     S
N343   Zn360   2.020   .     S
N344   H215    1.046   1_655 S
N344   C194    1.443   1_655 S
O351   Zn359   1.981   .     S
O352   Zn360   1.981   .     S
O353   Zn360   1.986   .     S
O354   Zn359   1.986   .     S
O355   Zn359   1.982   .     S
O356   Zn360   1.982   .     S
O357   Zn360   1.992   .     S
O358   Zn359   1.992   .     S
C361   C364    1.407   .     S
C361   O411    1.282   .     A
C361   O413    1.285   .     A
C362   C364    1.402   .     A
C362   N407    1.424   .     S
C363   C377    1.393   .     A
C363   C371    1.406   .     S
C363   C378    1.403   .     A
C364   C376    1.393   .     A
C365   N403    1.358   .     A
C365   N408    1.431   .     S
C365   C1447   1.420   1_554 S
C366   N409    1.431   .     S
C366   N401    1.369   .     A
C366   C908    1.435   .     S
C367   N401    1.383   .     A
C367   N410    1.429   .     S
C367   C905    1.420   .     S
C368   N403    1.369   .     A
C368   N402    1.431   .     S
C368   C1446   1.435   1_554 S
C369   H380    1.110   .     S
C369   H399    1.112   .     S
C369   N406    1.447   .     S
C369   H400    1.110   .     S
C370   H382    1.112   .     S
C370   H383    1.110   .     S
C370   N407    1.447   .     S
C370   H384    1.110   .     S
C371   O414    1.284   .     A
C371   O412    1.282   .     A
C372   C374    1.407   .     S
C372   O415    1.276   .     A
C372   O417    1.287   .     A
C373   O416    1.276   .     A
C373   C375    1.407   .     S
C373   O418    1.288   .     A
C374   C495    1.352   1_455 S
C374   N524    1.443   1_455 S
C375   C434    1.352   .     S
C375   N465    1.443   .     S
C376   H379    1.085   .     S
C377   H390    1.085   .     S
C377   C2      1.377   1_565 S
C378   N406    1.425   .     S
C378   C16     1.378   1_565 S
H381   N407    1.032   .     S
H385   N408    1.045   .     S
H386   N408    1.045   .     S
H387   N409    1.045   .     S
H388   N409    1.045   .     S
H389   N410    1.041   .     S
H391   N410    1.038   .     S
H392   N402    1.045   .     S
H393   N402    1.045   .     S
H394   N404    1.046   .     S
H395   N524    1.046   1_455 S
H396   N405    1.046   .     S
H397   N465    1.046   .     S
H398   N406    1.032   .     S
N401   Zn419   2.020   .     S
N403   Zn420   2.020   .     S
N404   H455    1.046   .     S
N404   C434    1.443   .     S
N405   H517    1.046   1_455 S
N405   C495    1.443   1_455 S
O411   Zn419   1.981   .     S
O412   Zn420   1.981   .     S
O413   Zn420   1.986   .     S
O414   Zn419   1.986   .     S
O415   Zn419   1.982   .     S
O416   Zn420   1.982   .     S
O417   Zn420   1.992   .     S
O418   Zn419   1.992   .     S
C421   C424    1.407   .     S
C421   O471    1.282   .     A
C421   O473    1.285   .     A
C422   C424    1.402   .     A
C422   N467    1.424   .     S
C423   C437    1.393   .     A
C423   C431    1.406   .     S
C423   C438    1.403   .     A
C424   C436    1.393   .     A
C425   N463    1.358   .     A
C425   N468    1.431   .     S
C425   C1507   1.420   1_554 S
C426   N469    1.431   .     S
C426   N461    1.369   .     A
C426   C968    1.435   .     S
C427   N461    1.383   .     A
C427   N470    1.429   .     S
C427   C965    1.420   .     S
C428   N463    1.369   .     A
C428   N462    1.431   .     S
C428   C1506   1.435   1_554 S
C429   H440    1.110   .     S
C429   H459    1.112   .     S
C429   N466    1.447   .     S
C429   H460    1.110   .     S
C430   H442    1.112   .     S
C430   H443    1.110   .     S
C430   N467    1.447   .     S
C430   H444    1.110   .     S
C431   O474    1.284   .     A
C431   O472    1.282   .     A
C432   C434    1.407   .     S
C432   O475    1.276   .     A
C432   O477    1.287   .     A
C433   O476    1.276   .     A
C433   C435    1.407   .     S
C433   O478    1.288   .     A
C435   C494    1.352   .     S
C435   N525    1.443   .     S
C436   H439    1.085   .     S
C437   H450    1.085   .     S
C437   C62     1.377   1_565 S
C438   N466    1.425   .     S
C438   C76     1.378   1_565 S
H441   N467    1.032   .     S
H445   N468    1.045   .     S
H446   N468    1.045   .     S
H447   N469    1.045   .     S
H448   N469    1.045   .     S
H449   N470    1.041   .     S
H451   N470    1.038   .     S
H452   N462    1.045   .     S
H453   N462    1.045   .     S
H454   N464    1.046   .     S
H456   N465    1.046   .     S
H457   N525    1.046   .     S
H458   N466    1.032   .     S
N461   Zn479   2.020   .     S
N463   Zn480   2.020   .     S
N464   H515    1.046   .     S
N464   C494    1.443   .     S
O471   Zn479   1.981   .     S
O472   Zn480   1.981   .     S
O473   Zn480   1.986   .     S
O474   Zn479   1.986   .     S
O475   Zn479   1.982   .     S
O476   Zn480   1.982   .     S
O477   Zn480   1.992   .     S
O478   Zn479   1.992   .     S
C481   C484    1.407   .     S
C481   O531    1.282   .     A
C481   O533    1.285   .     A
C482   C484    1.402   .     A
C482   N527    1.424   .     S
C483   C497    1.393   .     A
C483   C491    1.406   .     S
C483   C498    1.403   .     A
C484   C496    1.393   .     A
C485   N523    1.358   .     A
C485   N528    1.431   .     S
C485   C1567   1.420   1_554 S
C486   N529    1.431   .     S
C486   N521    1.369   .     A
C486   C1028   1.435   .     S
C487   N521    1.383   .     A
C487   N530    1.429   .     S
C487   C1025   1.420   .     S
C488   N523    1.369   .     A
C488   N522    1.431   .     S
C488   C1566   1.435   1_554 S
C489   H500    1.110   .     S
C489   H519    1.112   .     S
C489   N526    1.447   .     S
C489   H520    1.110   .     S
C490   H502    1.112   .     S
C490   H503    1.110   .     S
C490   N527    1.447   .     S
C490   H504    1.110   .     S
C491   O534    1.284   .     A
C491   O532    1.282   .     A
C492   C494    1.407   .     S
C492   O535    1.276   .     A
C492   O537    1.287   .     A
C493   O536    1.276   .     A
C493   C495    1.407   .     S
C493   O538    1.288   .     A
C495   C374    1.352   1_655 S
C495   N405    1.443   1_655 S
C496   H499    1.085   .     S
C497   H510    1.085   .     S
C497   C122    1.377   1_565 S
C498   N526    1.425   .     S
C498   C136    1.378   1_565 S
H501   N527    1.032   .     S
H505   N528    1.045   .     S
H506   N528    1.045   .     S
H507   N529    1.045   .     S
H508   N529    1.045   .     S
H509   N530    1.041   .     S
H511   N530    1.038   .     S
H512   N522    1.045   .     S
H513   N522    1.045   .     S
H514   N524    1.046   .     S
H516   N525    1.046   .     S
H517   N405    1.046   1_655 S
H518   N526    1.032   .     S
N521   Zn539   2.020   .     S
N523   Zn540   2.020   .     S
N524   H395    1.046   1_655 S
N524   C374    1.443   1_655 S
O531   Zn539   1.981   .     S
O532   Zn540   1.981   .     S
O533   Zn540   1.986   .     S
O534   Zn539   1.986   .     S
O535   Zn539   1.982   .     S
O536   Zn540   1.982   .     S
O537   Zn540   1.992   .     S
O538   Zn539   1.992   .     S
C541   C544    1.407   .     S
C541   O591    1.282   .     A
C541   O593    1.285   .     A
C542   C544    1.402   .     A
C542   N587    1.424   .     S
C542   C917    1.377   1_545 S
C543   C557    1.393   .     A
C543   C551    1.406   .     S
C543   C558    1.403   .     A
C544   C556    1.393   .     A
C545   N583    1.358   .     A
C545   N588    1.431   .     S
C546   N589    1.431   .     S
C546   N581    1.369   .     A
C546   C1088   1.435   .     S
C547   N581    1.383   .     A
C547   N590    1.429   .     S
C547   C1085   1.420   .     S
C548   N583    1.369   .     A
C548   N582    1.431   .     S
C549   H560    1.110   .     S
C549   H579    1.112   .     S
C549   N586    1.447   .     S
C549   H580    1.110   .     S
C550   H562    1.112   .     S
C550   H563    1.110   .     S
C550   N587    1.447   .     S
C550   H564    1.110   .     S
C551   O594    1.284   .     A
C551   O592    1.282   .     A
C552   C554    1.407   .     S
C552   O595    1.276   .     A
C552   O597    1.287   .     A
C553   O596    1.276   .     A
C553   C555    1.407   .     S
C553   O598    1.288   .     A
C554   C675    1.352   1_455 S
C554   N704    1.443   1_455 S
C555   C614    1.352   .     S
C555   N645    1.443   .     S
C556   H559    1.085   .     S
C556   C918    1.378   1_545 S
C557   H570    1.085   .     S
C557   C722    1.377   .     S
C558   N586    1.425   .     S
C558   C736    1.378   .     S
H561   N587    1.032   .     S
H565   N588    1.045   .     S
H566   N588    1.045   .     S
H567   N589    1.045   .     S
H568   N589    1.045   .     S
H569   N590    1.041   .     S
H571   N590    1.038   .     S
H572   N582    1.045   .     S
H573   N582    1.045   .     S
H574   N584    1.046   .     S
H575   N704    1.046   1_455 S
H576   N585    1.046   .     S
H577   N645    1.046   .     S
H578   N586    1.032   .     S
N581   Zn599   2.020   .     S
N583   Zn600   2.020   .     S
N584   H635    1.046   .     S
N584   C614    1.443   .     S
N585   H697    1.046   1_455 S
N585   C675    1.443   1_455 S
O591   Zn599   1.981   .     S
O592   Zn600   1.981   .     S
O593   Zn600   1.986   .     S
O594   Zn599   1.986   .     S
O595   Zn599   1.982   .     S
O596   Zn600   1.982   .     S
O597   Zn600   1.992   .     S
O598   Zn599   1.992   .     S
C601   C604    1.407   .     S
C601   O651    1.282   .     A
C601   O653    1.285   .     A
C602   C604    1.402   .     A
C602   N647    1.424   .     S
C602   C977    1.377   1_545 S
C603   C617    1.393   .     A
C603   C611    1.406   .     S
C603   C618    1.403   .     A
C604   C616    1.393   .     A
C605   N643    1.358   .     A
C605   N648    1.431   .     S
C606   N649    1.431   .     S
C606   N641    1.369   .     A
C606   C1148   1.435   .     S
C607   N641    1.383   .     A
C607   N650    1.429   .     S
C607   C1145   1.420   .     S
C608   N643    1.369   .     A
C608   N642    1.431   .     S
C609   H620    1.110   .     S
C609   H639    1.112   .     S
C609   N646    1.447   .     S
C609   H640    1.110   .     S
C610   H622    1.112   .     S
C610   H623    1.110   .     S
C610   N647    1.447   .     S
C610   H624    1.110   .     S
C611   O654    1.284   .     A
C611   O652    1.282   .     A
C612   C614    1.407   .     S
C612   O655    1.276   .     A
C612   O657    1.287   .     A
C613   O656    1.276   .     A
C613   C615    1.407   .     S
C613   O658    1.288   .     A
C615   C674    1.352   .     S
C615   N705    1.443   .     S
C616   H619    1.085   .     S
C616   C978    1.378   1_545 S
C617   H630    1.085   .     S
C617   C782    1.377   .     S
C618   N646    1.425   .     S
C618   C796    1.378   .     S
H621   N647    1.032   .     S
H625   N648    1.045   .     S
H626   N648    1.045   .     S
H627   N649    1.045   .     S
H628   N649    1.045   .     S
H629   N650    1.041   .     S
H631   N650    1.038   .     S
H632   N642    1.045   .     S
H633   N642    1.045   .     S
H634   N644    1.046   .     S
H636   N645    1.046   .     S
H637   N705    1.046   .     S
H638   N646    1.032   .     S
N641   Zn659   2.020   .     S
N643   Zn660   2.020   .     S
N644   H695    1.046   .     S
N644   C674    1.443   .     S
O651   Zn659   1.981   .     S
O652   Zn660   1.981   .     S
O653   Zn660   1.986   .     S
O654   Zn659   1.986   .     S
O655   Zn659   1.982   .     S
O656   Zn660   1.982   .     S
O657   Zn660   1.992   .     S
O658   Zn659   1.992   .     S
C661   C664    1.407   .     S
C661   O711    1.282   .     A
C661   O713    1.285   .     A
C662   C664    1.402   .     A
C662   N707    1.424   .     S
C662   C1037   1.377   1_545 S
C663   C677    1.393   .     A
C663   C671    1.406   .     S
C663   C678    1.403   .     A
C664   C676    1.393   .     A
C665   N703    1.358   .     A
C665   N708    1.431   .     S
C666   N709    1.431   .     S
C666   N701    1.369   .     A
C666   C1208   1.435   .     S
C667   N701    1.383   .     A
C667   N710    1.429   .     S
C667   C1205   1.420   .     S
C668   N703    1.369   .     A
C668   N702    1.431   .     S
C669   H680    1.110   .     S
C669   H699    1.112   .     S
C669   N706    1.447   .     S
C669   H700    1.110   .     S
C670   H682    1.112   .     S
C670   H683    1.110   .     S
C670   N707    1.447   .     S
C670   H684    1.110   .     S
C671   O714    1.284   .     A
C671   O712    1.282   .     A
C672   C674    1.407   .     S
C672   O715    1.276   .     A
C672   O717    1.287   .     A
C673   O716    1.276   .     A
C673   C675    1.407   .     S
C673   O718    1.288   .     A
C675   C554    1.352   1_655 S
C675   N585    1.443   1_655 S
C676   H679    1.085   .     S
C676   C1038   1.378   1_545 S
C677   H690    1.085   .     S
C677   C842    1.377   .     S
C678   N706    1.425   .     S
C678   C856    1.378   .     S
H681   N707    1.032   .     S
H685   N708    1.045   .     S
H686   N708    1.045   .     S
H687   N709    1.045   .     S
H688   N709    1.045   .     S
H689   N710    1.041   .     S
H691   N710    1.038   .     S
H692   N702    1.045   .     S
H693   N702    1.045   .     S
H694   N704    1.046   .     S
H696   N705    1.046   .     S
H697   N585    1.046   1_655 S
H698   N706    1.032   .     S
N701   Zn719   2.020   .     S
N703   Zn720   2.020   .     S
N704   H575    1.046   1_655 S
N704   C554    1.443   1_655 S
O711   Zn719   1.981   .     S
O712   Zn720   1.981   .     S
O713   Zn720   1.986   .     S
O714   Zn719   1.986   .     S
O715   Zn719   1.982   .     S
O716   Zn720   1.982   .     S
O717   Zn720   1.992   .     S
O718   Zn719   1.992   .     S
C721   C724    1.407   .     S
C721   O771    1.282   .     A
C721   O773    1.285   .     A
C722   C724    1.402   .     A
C722   N767    1.424   .     S
C723   C737    1.393   .     A
C723   C731    1.406   .     S
C723   C738    1.403   .     A
C724   C736    1.393   .     A
C725   N763    1.358   .     A
C725   N768    1.431   .     S
C726   N769    1.431   .     S
C726   N761    1.369   .     A
C726   C1268   1.435   .     S
C727   N761    1.383   .     A
C727   N770    1.429   .     S
C727   C1265   1.420   .     S
C728   N763    1.369   .     A
C728   N762    1.431   .     S
C729   H740    1.110   .     S
C729   H759    1.112   .     S
C729   N766    1.447   .     S
C729   H760    1.110   .     S
C730   H742    1.112   .     S
C730   H743    1.110   .     S
C730   N767    1.447   .     S
C730   H744    1.110   .     S
C731   O774    1.284   .     A
C731   O772    1.282   .     A
C732   C734    1.407   .     S
C732   O775    1.276   .     A
C732   O777    1.287   .     A
C733   O776    1.276   .     A
C733   C735    1.407   .     S
C733   O778    1.288   .     A
C734   C855    1.352   1_455 S
C734   N884    1.443   1_455 S
C735   C794    1.352   .     S
C735   N825    1.443   .     S
C736   H739    1.085   .     S
C737   H750    1.085   .     S
C737   C902    1.377   .     S
C738   N766    1.425   .     S
C738   C916    1.378   .     S
H741   N767    1.032   .     S
H745   N768    1.045   .     S
H746   N768    1.045   .     S
H747   N769    1.045   .     S
H748   N769    1.045   .     S
H749   N770    1.041   .     S
H751   N770    1.038   .     S
H752   N762    1.045   .     S
H753   N762    1.045   .     S
H754   N764    1.046   .     S
H755   N884    1.046   1_455 S
H756   N765    1.046   .     S
H757   N825    1.046   .     S
H758   N766    1.032   .     S
N761   Zn779   2.020   .     S
N763   Zn780   2.020   .     S
N764   H815    1.046   .     S
N764   C794    1.443   .     S
N765   H877    1.046   1_455 S
N765   C855    1.443   1_455 S
O771   Zn779   1.981   .     S
O772   Zn780   1.981   .     S
O773   Zn780   1.986   .     S
O774   Zn779   1.986   .     S
O775   Zn779   1.982   .     S
O776   Zn780   1.982   .     S
O777   Zn780   1.992   .     S
O778   Zn779   1.992   .     S
C781   C784    1.407   .     S
C781   O831    1.282   .     A
C781   O833    1.285   .     A
C782   C784    1.402   .     A
C782   N827    1.424   .     S
C783   C797    1.393   .     A
C783   C791    1.406   .     S
C783   C798    1.403   .     A
C784   C796    1.393   .     A
C785   N823    1.358   .     A
C785   N828    1.431   .     S
C786   N829    1.431   .     S
C786   N821    1.369   .     A
C786   C1328   1.435   .     S
C787   N821    1.383   .     A
C787   N830    1.429   .     S
C787   C1325   1.420   .     S
C788   N823    1.369   .     A
C788   N822    1.431   .     S
C789   H800    1.110   .     S
C789   H819    1.112   .     S
C789   N826    1.447   .     S
C789   H820    1.110   .     S
C790   H802    1.112   .     S
C790   H803    1.110   .     S
C790   N827    1.447   .     S
C790   H804    1.110   .     S
C791   O834    1.284   .     A
C791   O832    1.282   .     A
C792   C794    1.407   .     S
C792   O835    1.276   .     A
C792   O837    1.287   .     A
C793   O836    1.276   .     A
C793   C795    1.407   .     S
C793   O838    1.288   .     A
C795   C854    1.352   .     S
C795   N885    1.443   .     S
C796   H799    1.085   .     S
C797   H810    1.085   .     S
C797   C962    1.377   .     S
C798   N826    1.425   .     S
C798   C976    1.378   .     S
H801   N827    1.032   .     S
H805   N828    1.045   .     S
H806   N828    1.045   .     S
H807   N829    1.045   .     S
H808   N829    1.045   .     S
H809   N830    1.041   .     S
H811   N830    1.038   .     S
H812   N822    1.045   .     S
H813   N822    1.045   .     S
H814   N824    1.046   .     S
H816   N825    1.046   .     S
H817   N885    1.046   .     S
H818   N826    1.032   .     S
N821   Zn839   2.020   .     S
N823   Zn840   2.020   .     S
N824   H875    1.046   .     S
N824   C854    1.443   .     S
O831   Zn839   1.981   .     S
O832   Zn840   1.981   .     S
O833   Zn840   1.986   .     S
O834   Zn839   1.986   .     S
O835   Zn839   1.982   .     S
O836   Zn840   1.982   .     S
O837   Zn840   1.992   .     S
O838   Zn839   1.992   .     S
C841   C844    1.407   .     S
C841   O891    1.282   .     A
C841   O893    1.285   .     A
C842   C844    1.402   .     A
C842   N887    1.424   .     S
C843   C857    1.393   .     A
C843   C851    1.406   .     S
C843   C858    1.403   .     A
C844   C856    1.393   .     A
C845   N883    1.358   .     A
C845   N888    1.431   .     S
C846   N889    1.431   .     S
C846   N881    1.369   .     A
C846   C1388   1.435   .     S
C847   N881    1.383   .     A
C847   N890    1.429   .     S
C847   C1385   1.420   .     S
C848   N883    1.369   .     A
C848   N882    1.431   .     S
C849   H860    1.110   .     S
C849   H879    1.112   .     S
C849   N886    1.447   .     S
C849   H880    1.110   .     S
C850   H862    1.112   .     S
C850   H863    1.110   .     S
C850   N887    1.447   .     S
C850   H864    1.110   .     S
C851   O894    1.284   .     A
C851   O892    1.282   .     A
C852   C854    1.407   .     S
C852   O895    1.276   .     A
C852   O897    1.287   .     A
C853   O896    1.276   .     A
C853   C855    1.407   .     S
C853   O898    1.288   .     A
C855   C734    1.352   1_655 S
C855   N765    1.443   1_655 S
C856   H859    1.085   .     S
C857   H870    1.085   .     S
C857   C1022   1.377   .     S
C858   N886    1.425   .     S
C858   C1036   1.378   .     S
H861   N887    1.032   .     S
H865   N888    1.045   .     S
H866   N888    1.045   .     S
H867   N889    1.045   .     S
H868   N889    1.045   .     S
H869   N890    1.041   .     S
H871   N890    1.038   .     S
H872   N882    1.045   .     S
H873   N882    1.045   .     S
H874   N884    1.046   .     S
H876   N885    1.046   .     S
H877   N765    1.046   1_655 S
H878   N886    1.032   .     S
N881   Zn899   2.020   .     S
N883   Zn900   2.020   .     S
N884   H755    1.046   1_655 S
N884   C734    1.443   1_655 S
O891   Zn899   1.981   .     S
O892   Zn900   1.981   .     S
O893   Zn900   1.986   .     S
O894   Zn899   1.986   .     S
O895   Zn899   1.982   .     S
O896   Zn900   1.982   .     S
O897   Zn900   1.992   .     S
O898   Zn899   1.992   .     S
C901   C904    1.407   .     S
C901   O951    1.282   .     A
C901   O953    1.285   .     A
C902   C904    1.402   .     A
C902   N947    1.424   .     S
C903   C917    1.393   .     A
C903   C911    1.406   .     S
C903   C918    1.403   .     A
C904   C916    1.393   .     A
C905   N943    1.358   .     A
C905   N948    1.431   .     S
C906   N949    1.431   .     S
C906   N941    1.369   .     A
C906   C1448   1.435   .     S
C907   N941    1.383   .     A
C907   N950    1.429   .     S
C907   C1445   1.420   .     S
C908   N943    1.369   .     A
C908   N942    1.431   .     S
C909   H920    1.110   .     S
C909   H939    1.112   .     S
C909   N946    1.447   .     S
C909   H940    1.110   .     S
C910   H922    1.112   .     S
C910   H923    1.110   .     S
C910   N947    1.447   .     S
C910   H924    1.110   .     S
C911   O954    1.284   .     A
C911   O952    1.282   .     A
C912   C914    1.407   .     S
C912   O955    1.276   .     A
C912   O957    1.287   .     A
C913   O956    1.276   .     A
C913   C915    1.407   .     S
C913   O958    1.288   .     A
C914   C1035   1.352   1_455 S
C914   N1064   1.443   1_455 S
C915   C974    1.352   .     S
C915   N1005   1.443   .     S
C916   H919    1.085   .     S
C917   H930    1.085   .     S
C917   C542    1.377   1_565 S
C918   N946    1.425   .     S
C918   C556    1.378   1_565 S
H921   N947    1.032   .     S
H925   N948    1.045   .     S
H926   N948    1.045   .     S
H927   N949    1.045   .     S
H928   N949    1.045   .     S
H929   N950    1.041   .     S
H931   N950    1.038   .     S
H932   N942    1.045   .     S
H933   N942    1.045   .     S
H934   N944    1.046   .     S
H935   N1064   1.046   1_455 S
H936   N945    1.046   .     S
H937   N1005   1.046   .     S
H938   N946    1.032   .     S
N941   Zn959   2.020   .     S
N943   Zn960   2.020   .     S
N944   H995    1.046   .     S
N944   C974    1.443   .     S
N945   H1057   1.046   1_455 S
N945   C1035   1.443   1_455 S
O951   Zn959   1.981   .     S
O952   Zn960   1.981   .     S
O953   Zn960   1.986   .     S
O954   Zn959   1.986   .     S
O955   Zn959   1.982   .     S
O956   Zn960   1.982   .     S
O957   Zn960   1.992   .     S
O958   Zn959   1.992   .     S
C961   C964    1.407   .     S
C961   O1011   1.282   .     A
C961   O1013   1.285   .     A
C962   C964    1.402   .     A
C962   N1007   1.424   .     S
C963   C977    1.393   .     A
C963   C971    1.406   .     S
C963   C978    1.403   .     A
C964   C976    1.393   .     A
C965   N1003   1.358   .     A
C965   N1008   1.431   .     S
C966   N1009   1.431   .     S
C966   N1001   1.369   .     A
C966   C1508   1.435   .     S
C967   N1001   1.383   .     A
C967   N1010   1.429   .     S
C967   C1505   1.420   .     S
C968   N1003   1.369   .     A
C968   N1002   1.431   .     S
C969   H980    1.110   .     S
C969   H999    1.112   .     S
C969   N1006   1.447   .     S
C969   H1000   1.110   .     S
C970   H982    1.112   .     S
C970   H983    1.110   .     S
C970   N1007   1.447   .     S
C970   H984    1.110   .     S
C971   O1014   1.284   .     A
C971   O1012   1.282   .     A
C972   C974    1.407   .     S
C972   O1015   1.276   .     A
C972   O1017   1.287   .     A
C973   O1016   1.276   .     A
C973   C975    1.407   .     S
C973   O1018   1.288   .     A
C975   C1034   1.352   .     S
C975   N1065   1.443   .     S
C976   H979    1.085   .     S
C977   H990    1.085   .     S
C977   C602    1.377   1_565 S
C978   N1006   1.425   .     S
C978   C616    1.378   1_565 S
H981   N1007   1.032   .     S
H985   N1008   1.045   .     S
H986   N1008   1.045   .     S
H987   N1009   1.045   .     S
H988   N1009   1.045   .     S
H989   N1010   1.041   .     S
H991   N1010   1.038   .     S
H992   N1002   1.045   .     S
H993   N1002   1.045   .     S
H994   N1004   1.046   .     S
H996   N1005   1.046   .     S
H997   N1065   1.046   .     S
H998   N1006   1.032   .     S
N1001  Zn1019  2.020   .     S
N1003  Zn1020  2.020   .     S
N1004  H1055   1.046   .     S
N1004  C1034   1.443   .     S
O1011  Zn1019  1.981   .     S
O1012  Zn1020  1.981   .     S
O1013  Zn1020  1.986   .     S
O1014  Zn1019  1.986   .     S
O1015  Zn1019  1.982   .     S
O1016  Zn1020  1.982   .     S
O1017  Zn1020  1.992   .     S
O1018  Zn1019  1.992   .     S
C1021  C1024   1.407   .     S
C1021  O1071   1.282   .     A
C1021  O1073   1.285   .     A
C1022  C1024   1.402   .     A
C1022  N1067   1.424   .     S
C1023  C1037   1.393   .     A
C1023  C1031   1.406   .     S
C1023  C1038   1.403   .     A
C1024  C1036   1.393   .     A
C1025  N1063   1.358   .     A
C1025  N1068   1.431   .     S
C1026  N1069   1.431   .     S
C1026  N1061   1.369   .     A
C1026  C1568   1.435   .     S
C1027  N1061   1.383   .     A
C1027  N1070   1.429   .     S
C1027  C1565   1.420   .     S
C1028  N1063   1.369   .     A
C1028  N1062   1.431   .     S
C1029  H1040   1.110   .     S
C1029  H1059   1.112   .     S
C1029  N1066   1.447   .     S
C1029  H1060   1.110   .     S
C1030  H1042   1.112   .     S
C1030  H1043   1.110   .     S
C1030  N1067   1.447   .     S
C1030  H1044   1.110   .     S
C1031  O1074   1.284   .     A
C1031  O1072   1.282   .     A
C1032  C1034   1.407   .     S
C1032  O1075   1.276   .     A
C1032  O1077   1.287   .     A
C1033  O1076   1.276   .     A
C1033  C1035   1.407   .     S
C1033  O1078   1.288   .     A
C1035  C914    1.352   1_655 S
C1035  N945    1.443   1_655 S
C1036  H1039   1.085   .     S
C1037  H1050   1.085   .     S
C1037  C662    1.377   1_565 S
C1038  N1066   1.425   .     S
C1038  C676    1.378   1_565 S
H1041  N1067   1.032   .     S
H1045  N1068   1.045   .     S
H1046  N1068   1.045   .     S
H1047  N1069   1.045   .     S
H1048  N1069   1.045   .     S
H1049  N1070   1.041   .     S
H1051  N1070   1.038   .     S
H1052  N1062   1.045   .     S
H1053  N1062   1.045   .     S
H1054  N1064   1.046   .     S
H1056  N1065   1.046   .     S
H1057  N945    1.046   1_655 S
H1058  N1066   1.032   .     S
N1061  Zn1079  2.020   .     S
N1063  Zn1080  2.020   .     S
N1064  H935    1.046   1_655 S
N1064  C914    1.443   1_655 S
O1071  Zn1079  1.981   .     S
O1072  Zn1080  1.981   .     S
O1073  Zn1080  1.986   .     S
O1074  Zn1079  1.986   .     S
O1075  Zn1079  1.982   .     S
O1076  Zn1080  1.982   .     S
O1077  Zn1080  1.992   .     S
O1078  Zn1079  1.992   .     S
C1081  C1084   1.407   .     S
C1081  O1131   1.282   .     A
C1081  O1133   1.285   .     A
C1082  C1084   1.402   .     A
C1082  N1127   1.424   .     S
C1082  C1457   1.377   1_545 S
C1083  C1097   1.393   .     A
C1083  C1091   1.406   .     S
C1083  C1098   1.403   .     A
C1084  C1096   1.393   .     A
C1085  N1123   1.358   .     A
C1085  N1128   1.431   .     S
C1086  N1129   1.431   .     S
C1086  N1121   1.369   .     A
C1086  C8      1.435   1_556 S
C1087  N1121   1.383   .     A
C1087  N1130   1.429   .     S
C1087  C5      1.420   1_556 S
C1088  N1123   1.369   .     A
C1088  N1122   1.431   .     S
C1089  H1100   1.110   .     S
C1089  H1119   1.112   .     S
C1089  N1126   1.447   .     S
C1089  H1120   1.110   .     S
C1090  H1102   1.112   .     S
C1090  H1103   1.110   .     S
C1090  N1127   1.447   .     S
C1090  H1104   1.110   .     S
C1091  O1134   1.284   .     A
C1091  O1132   1.282   .     A
C1092  C1094   1.407   .     S
C1092  O1135   1.276   .     A
C1092  O1137   1.287   .     A
C1093  O1136   1.276   .     A
C1093  C1095   1.407   .     S
C1093  O1138   1.288   .     A
C1094  C1215   1.352   1_455 S
C1094  N1244   1.443   1_455 S
C1095  C1154   1.352   .     S
C1095  N1185   1.443   .     S
C1096  H1099   1.085   .     S
C1096  C1458   1.378   1_545 S
C1097  H1110   1.085   .     S
C1097  C1262   1.377   .     S
C1098  N1126   1.425   .     S
C1098  C1276   1.378   .     S
H1101  N1127   1.032   .     S
H1105  N1128   1.045   .     S
H1106  N1128   1.045   .     S
H1107  N1129   1.045   .     S
H1108  N1129   1.045   .     S
H1109  N1130   1.041   .     S
H1111  N1130   1.038   .     S
H1112  N1122   1.045   .     S
H1113  N1122   1.045   .     S
H1114  N1124   1.046   .     S
H1115  N1244   1.046   1_455 S
H1116  N1125   1.046   .     S
H1117  N1185   1.046   .     S
H1118  N1126   1.032   .     S
N1121  Zn1139  2.020   .     S
N1123  Zn1140  2.020   .     S
N1124  H1175   1.046   .     S
N1124  C1154   1.443   .     S
N1125  H1237   1.046   1_455 S
N1125  C1215   1.443   1_455 S
O1131  Zn1139  1.981   .     S
O1132  Zn1140  1.981   .     S
O1133  Zn1140  1.986   .     S
O1134  Zn1139  1.986   .     S
O1135  Zn1139  1.982   .     S
O1136  Zn1140  1.982   .     S
O1137  Zn1140  1.992   .     S
O1138  Zn1139  1.992   .     S
C1141  C1144   1.407   .     S
C1141  O1191   1.282   .     A
C1141  O1193   1.285   .     A
C1142  C1144   1.402   .     A
C1142  N1187   1.424   .     S
C1142  C1517   1.377   1_545 S
C1143  C1157   1.393   .     A
C1143  C1151   1.406   .     S
C1143  C1158   1.403   .     A
C1144  C1156   1.393   .     A
C1145  N1183   1.358   .     A
C1145  N1188   1.431   .     S
C1146  N1189   1.431   .     S
C1146  N1181   1.369   .     A
C1146  C68     1.435   1_556 S
C1147  N1181   1.383   .     A
C1147  N1190   1.429   .     S
C1147  C65     1.420   1_556 S
C1148  N1183   1.369   .     A
C1148  N1182   1.431   .     S
C1149  H1160   1.110   .     S
C1149  H1179   1.112   .     S
C1149  N1186   1.447   .     S
C1149  H1180   1.110   .     S
C1150  H1162   1.112   .     S
C1150  H1163   1.110   .     S
C1150  N1187   1.447   .     S
C1150  H1164   1.110   .     S
C1151  O1194   1.284   .     A
C1151  O1192   1.282   .     A
C1152  C1154   1.407   .     S
C1152  O1195   1.276   .     A
C1152  O1197   1.287   .     A
C1153  O1196   1.276   .     A
C1153  C1155   1.407   .     S
C1153  O1198   1.288   .     A
C1155  C1214   1.352   .     S
C1155  N1245   1.443   .     S
C1156  H1159   1.085   .     S
C1156  C1518   1.378   1_545 S
C1157  H1170   1.085   .     S
C1157  C1322   1.377   .     S
C1158  N1186   1.425   .     S
C1158  C1336   1.378   .     S
H1161  N1187   1.032   .     S
H1165  N1188   1.045   .     S
H1166  N1188   1.045   .     S
H1167  N1189   1.045   .     S
H1168  N1189   1.045   .     S
H1169  N1190   1.041   .     S
H1171  N1190   1.038   .     S
H1172  N1182   1.045   .     S
H1173  N1182   1.045   .     S
H1174  N1184   1.046   .     S
H1176  N1185   1.046   .     S
H1177  N1245   1.046   .     S
H1178  N1186   1.032   .     S
N1181  Zn1199  2.020   .     S
N1183  Zn1200  2.020   .     S
N1184  H1235   1.046   .     S
N1184  C1214   1.443   .     S
O1191  Zn1199  1.981   .     S
O1192  Zn1200  1.981   .     S
O1193  Zn1200  1.986   .     S
O1194  Zn1199  1.986   .     S
O1195  Zn1199  1.982   .     S
O1196  Zn1200  1.982   .     S
O1197  Zn1200  1.992   .     S
O1198  Zn1199  1.992   .     S
C1201  C1204   1.407   .     S
C1201  O1251   1.282   .     A
C1201  O1253   1.285   .     A
C1202  C1204   1.402   .     A
C1202  N1247   1.424   .     S
C1202  C1577   1.377   1_545 S
C1203  C1217   1.393   .     A
C1203  C1211   1.406   .     S
C1203  C1218   1.403   .     A
C1204  C1216   1.393   .     A
C1205  N1243   1.358   .     A
C1205  N1248   1.431   .     S
C1206  N1249   1.431   .     S
C1206  N1241   1.369   .     A
C1206  C128    1.435   1_556 S
C1207  N1241   1.383   .     A
C1207  N1250   1.429   .     S
C1207  C125    1.420   1_556 S
C1208  N1243   1.369   .     A
C1208  N1242   1.431   .     S
C1209  H1220   1.110   .     S
C1209  H1239   1.112   .     S
C1209  N1246   1.447   .     S
C1209  H1240   1.110   .     S
C1210  H1222   1.112   .     S
C1210  H1223   1.110   .     S
C1210  N1247   1.447   .     S
C1210  H1224   1.110   .     S
C1211  O1254   1.284   .     A
C1211  O1252   1.282   .     A
C1212  C1214   1.407   .     S
C1212  O1255   1.276   .     A
C1212  O1257   1.287   .     A
C1213  O1256   1.276   .     A
C1213  C1215   1.407   .     S
C1213  O1258   1.288   .     A
C1215  C1094   1.352   1_655 S
C1215  N1125   1.443   1_655 S
C1216  H1219   1.085   .     S
C1216  C1578   1.378   1_545 S
C1217  H1230   1.085   .     S
C1217  C1382   1.377   .     S
C1218  N1246   1.425   .     S
C1218  C1396   1.378   .     S
H1221  N1247   1.032   .     S
H1225  N1248   1.045   .     S
H1226  N1248   1.045   .     S
H1227  N1249   1.045   .     S
H1228  N1249   1.045   .     S
H1229  N1250   1.041   .     S
H1231  N1250   1.038   .     S
H1232  N1242   1.045   .     S
H1233  N1242   1.045   .     S
H1234  N1244   1.046   .     S
H1236  N1245   1.046   .     S
H1237  N1125   1.046   1_655 S
H1238  N1246   1.032   .     S
N1241  Zn1259  2.020   .     S
N1243  Zn1260  2.020   .     S
N1244  H1115   1.046   1_655 S
N1244  C1094   1.443   1_655 S
O1251  Zn1259  1.981   .     S
O1252  Zn1260  1.981   .     S
O1253  Zn1260  1.986   .     S
O1254  Zn1259  1.986   .     S
O1255  Zn1259  1.982   .     S
O1256  Zn1260  1.982   .     S
O1257  Zn1260  1.992   .     S
O1258  Zn1259  1.992   .     S
C1261  C1264   1.407   .     S
C1261  O1311   1.282   .     A
C1261  O1313   1.285   .     A
C1262  C1264   1.402   .     A
C1262  N1307   1.424   .     S
C1263  C1277   1.393   .     A
C1263  C1271   1.406   .     S
C1263  C1278   1.403   .     A
C1264  C1276   1.393   .     A
C1265  N1303   1.358   .     A
C1265  N1308   1.431   .     S
C1266  N1309   1.431   .     S
C1266  N1301   1.369   .     A
C1266  C188    1.435   1_556 S
C1267  N1301   1.383   .     A
C1267  N1310   1.429   .     S
C1267  C185    1.420   1_556 S
C1268  N1303   1.369   .     A
C1268  N1302   1.431   .     S
C1269  H1280   1.110   .     S
C1269  H1299   1.112   .     S
C1269  N1306   1.447   .     S
C1269  H1300   1.110   .     S
C1270  H1282   1.112   .     S
C1270  H1283   1.110   .     S
C1270  N1307   1.447   .     S
C1270  H1284   1.110   .     S
C1271  O1314   1.284   .     A
C1271  O1312   1.282   .     A
C1272  C1274   1.407   .     S
C1272  O1315   1.276   .     A
C1272  O1317   1.287   .     A
C1273  O1316   1.276   .     A
C1273  C1275   1.407   .     S
C1273  O1318   1.288   .     A
C1274  C1395   1.352   1_455 S
C1274  N1424   1.443   1_455 S
C1275  C1334   1.352   .     S
C1275  N1365   1.443   .     S
C1276  H1279   1.085   .     S
C1277  H1290   1.085   .     S
C1277  C1442   1.377   .     S
C1278  N1306   1.425   .     S
C1278  C1456   1.378   .     S
H1281  N1307   1.032   .     S
H1285  N1308   1.045   .     S
H1286  N1308   1.045   .     S
H1287  N1309   1.045   .     S
H1288  N1309   1.045   .     S
H1289  N1310   1.041   .     S
H1291  N1310   1.038   .     S
H1292  N1302   1.045   .     S
H1293  N1302   1.045   .     S
H1294  N1304   1.046   .     S
H1295  N1424   1.046   1_455 S
H1296  N1305   1.046   .     S
H1297  N1365   1.046   .     S
H1298  N1306   1.032   .     S
N1301  Zn1319  2.020   .     S
N1303  Zn1320  2.020   .     S
N1304  H1355   1.046   .     S
N1304  C1334   1.443   .     S
N1305  H1417   1.046   1_455 S
N1305  C1395   1.443   1_455 S
O1311  Zn1319  1.981   .     S
O1312  Zn1320  1.981   .     S
O1313  Zn1320  1.986   .     S
O1314  Zn1319  1.986   .     S
O1315  Zn1319  1.982   .     S
O1316  Zn1320  1.982   .     S
O1317  Zn1320  1.992   .     S
O1318  Zn1319  1.992   .     S
C1321  C1324   1.407   .     S
C1321  O1371   1.282   .     A
C1321  O1373   1.285   .     A
C1322  C1324   1.402   .     A
C1322  N1367   1.424   .     S
C1323  C1337   1.393   .     A
C1323  C1331   1.406   .     S
C1323  C1338   1.403   .     A
C1324  C1336   1.393   .     A
C1325  N1363   1.358   .     A
C1325  N1368   1.431   .     S
C1326  N1369   1.431   .     S
C1326  N1361   1.369   .     A
C1326  C248    1.435   1_556 S
C1327  N1361   1.383   .     A
C1327  N1370   1.429   .     S
C1327  C245    1.420   1_556 S
C1328  N1363   1.369   .     A
C1328  N1362   1.431   .     S
C1329  H1340   1.110   .     S
C1329  H1359   1.112   .     S
C1329  N1366   1.447   .     S
C1329  H1360   1.110   .     S
C1330  H1342   1.112   .     S
C1330  H1343   1.110   .     S
C1330  N1367   1.447   .     S
C1330  H1344   1.110   .     S
C1331  O1374   1.284   .     A
C1331  O1372   1.282   .     A
C1332  C1334   1.407   .     S
C1332  O1375   1.276   .     A
C1332  O1377   1.287   .     A
C1333  O1376   1.276   .     A
C1333  C1335   1.407   .     S
C1333  O1378   1.288   .     A
C1335  C1394   1.352   .     S
C1335  N1425   1.443   .     S
C1336  H1339   1.085   .     S
C1337  H1350   1.085   .     S
C1337  C1502   1.377   .     S
C1338  N1366   1.425   .     S
C1338  C1516   1.378   .     S
H1341  N1367   1.032   .     S
H1345  N1368   1.045   .     S
H1346  N1368   1.045   .     S
H1347  N1369   1.045   .     S
H1348  N1369   1.045   .     S
H1349  N1370   1.041   .     S
H1351  N1370   1.038   .     S
H1352  N1362   1.045   .     S
H1353  N1362   1.045   .     S
H1354  N1364   1.046   .     S
H1356  N1365   1.046   .     S
H1357  N1425   1.046   .     S
H1358  N1366   1.032   .     S
N1361  Zn1379  2.020   .     S
N1363  Zn1380  2.020   .     S
N1364  H1415   1.046   .     S
N1364  C1394   1.443   .     S
O1371  Zn1379  1.981   .     S
O1372  Zn1380  1.981   .     S
O1373  Zn1380  1.986   .     S
O1374  Zn1379  1.986   .     S
O1375  Zn1379  1.982   .     S
O1376  Zn1380  1.982   .     S
O1377  Zn1380  1.992   .     S
O1378  Zn1379  1.992   .     S
C1381  C1384   1.407   .     S
C1381  O1431   1.282   .     A
C1381  O1433   1.285   .     A
C1382  C1384   1.402   .     A
C1382  N1427   1.424   .     S
C1383  C1397   1.393   .     A
C1383  C1391   1.406   .     S
C1383  C1398   1.403   .     A
C1384  C1396   1.393   .     A
C1385  N1423   1.358   .     A
C1385  N1428   1.431   .     S
C1386  N1429   1.431   .     S
C1386  N1421   1.369   .     A
C1386  C308    1.435   1_556 S
C1387  N1421   1.383   .     A
C1387  N1430   1.429   .     S
C1387  C305    1.420   1_556 S
C1388  N1423   1.369   .     A
C1388  N1422   1.431   .     S
C1389  H1400   1.110   .     S
C1389  H1419   1.112   .     S
C1389  N1426   1.447   .     S
C1389  H1420   1.110   .     S
C1390  H1402   1.112   .     S
C1390  H1403   1.110   .     S
C1390  N1427   1.447   .     S
C1390  H1404   1.110   .     S
C1391  O1434   1.284   .     A
C1391  O1432   1.282   .     A
C1392  C1394   1.407   .     S
C1392  O1435   1.276   .     A
C1392  O1437   1.287   .     A
C1393  O1436   1.276   .     A
C1393  C1395   1.407   .     S
C1393  O1438   1.288   .     A
C1395  C1274   1.352   1_655 S
C1395  N1305   1.443   1_655 S
C1396  H1399   1.085   .     S
C1397  H1410   1.085   .     S
C1397  C1562   1.377   .     S
C1398  N1426   1.425   .     S
C1398  C1576   1.378   .     S
H1401  N1427   1.032   .     S
H1405  N1428   1.045   .     S
H1406  N1428   1.045   .     S
H1407  N1429   1.045   .     S
H1408  N1429   1.045   .     S
H1409  N1430   1.041   .     S
H1411  N1430   1.038   .     S
H1412  N1422   1.045   .     S
H1413  N1422   1.045   .     S
H1414  N1424   1.046   .     S
H1416  N1425   1.046   .     S
H1417  N1305   1.046   1_655 S
H1418  N1426   1.032   .     S
N1421  Zn1439  2.020   .     S
N1423  Zn1440  2.020   .     S
N1424  H1295   1.046   1_655 S
N1424  C1274   1.443   1_655 S
O1431  Zn1439  1.981   .     S
O1432  Zn1440  1.981   .     S
O1433  Zn1440  1.986   .     S
O1434  Zn1439  1.986   .     S
O1435  Zn1439  1.982   .     S
O1436  Zn1440  1.982   .     S
O1437  Zn1440  1.992   .     S
O1438  Zn1439  1.992   .     S
C1441  C1444   1.407   .     S
C1441  O1491   1.282   .     A
C1441  O1493   1.285   .     A
C1442  C1444   1.402   .     A
C1442  N1487   1.424   .     S
C1443  C1457   1.393   .     A
C1443  C1451   1.406   .     S
C1443  C1458   1.403   .     A
C1444  C1456   1.393   .     A
C1445  N1483   1.358   .     A
C1445  N1488   1.431   .     S
C1446  N1489   1.431   .     S
C1446  N1481   1.369   .     A
C1446  C368    1.435   1_556 S
C1447  N1481   1.383   .     A
C1447  N1490   1.429   .     S
C1447  C365    1.420   1_556 S
C1448  N1483   1.369   .     A
C1448  N1482   1.431   .     S
C1449  H1460   1.110   .     S
C1449  H1479   1.112   .     S
C1449  N1486   1.447   .     S
C1449  H1480   1.110   .     S
C1450  H1462   1.112   .     S
C1450  H1463   1.110   .     S
C1450  N1487   1.447   .     S
C1450  H1464   1.110   .     S
C1451  O1494   1.284   .     A
C1451  O1492   1.282   .     A
C1452  C1454   1.407   .     S
C1452  O1495   1.276   .     A
C1452  O1497   1.287   .     A
C1453  O1496   1.276   .     A
C1453  C1455   1.407   .     S
C1453  O1498   1.288   .     A
C1454  C1575   1.352   1_455 S
C1454  N1604   1.443   1_455 S
C1455  C1514   1.352   .     S
C1455  N1545   1.443   .     S
C1456  H1459   1.085   .     S
C1457  H1470   1.085   .     S
C1457  C1082   1.377   1_565 S
C1458  N1486   1.425   .     S
C1458  C1096   1.378   1_565 S
H1461  N1487   1.032   .     S
H1465  N1488   1.045   .     S
H1466  N1488   1.045   .     S
H1467  N1489   1.045   .     S
H1468  N1489   1.045   .     S
H1469  N1490   1.041   .     S
H1471  N1490   1.038   .     S
H1472  N1482   1.045   .     S
H1473  N1482   1.045   .     S
H1474  N1484   1.046   .     S
H1475  N1604   1.046   1_455 S
H1476  N1485   1.046   .     S
H1477  N1545   1.046   .     S
H1478  N1486   1.032   .     S
N1481  Zn1499  2.020   .     S
N1483  Zn1500  2.020   .     S
N1484  H1535   1.046   .     S
N1484  C1514   1.443   .     S
N1485  H1597   1.046   1_455 S
N1485  C1575   1.443   1_455 S
O1491  Zn1499  1.981   .     S
O1492  Zn1500  1.981   .     S
O1493  Zn1500  1.986   .     S
O1494  Zn1499  1.986   .     S
O1495  Zn1499  1.982   .     S
O1496  Zn1500  1.982   .     S
O1497  Zn1500  1.992   .     S
O1498  Zn1499  1.992   .     S
C1501  C1504   1.407   .     S
C1501  O1551   1.282   .     A
C1501  O1553   1.285   .     A
C1502  C1504   1.402   .     A
C1502  N1547   1.424   .     S
C1503  C1517   1.393   .     A
C1503  C1511   1.406   .     S
C1503  C1518   1.403   .     A
C1504  C1516   1.393   .     A
C1505  N1543   1.358   .     A
C1505  N1548   1.431   .     S
C1506  N1549   1.431   .     S
C1506  N1541   1.369   .     A
C1506  C428    1.435   1_556 S
C1507  N1541   1.383   .     A
C1507  N1550   1.429   .     S
C1507  C425    1.420   1_556 S
C1508  N1543   1.369   .     A
C1508  N1542   1.431   .     S
C1509  H1520   1.110   .     S
C1509  H1539   1.112   .     S
C1509  N1546   1.447   .     S
C1509  H1540   1.110   .     S
C1510  H1522   1.112   .     S
C1510  H1523   1.110   .     S
C1510  N1547   1.447   .     S
C1510  H1524   1.110   .     S
C1511  O1554   1.284   .     A
C1511  O1552   1.282   .     A
C1512  C1514   1.407   .     S
C1512  O1555   1.276   .     A
C1512  O1557   1.287   .     A
C1513  O1556   1.276   .     A
C1513  C1515   1.407   .     S
C1513  O1558   1.288   .     A
C1515  C1574   1.352   .     S
C1515  N1605   1.443   .     S
C1516  H1519   1.085   .     S
C1517  H1530   1.085   .     S
C1517  C1142   1.377   1_565 S
C1518  N1546   1.425   .     S
C1518  C1156   1.378   1_565 S
H1521  N1547   1.032   .     S
H1525  N1548   1.045   .     S
H1526  N1548   1.045   .     S
H1527  N1549   1.045   .     S
H1528  N1549   1.045   .     S
H1529  N1550   1.041   .     S
H1531  N1550   1.038   .     S
H1532  N1542   1.045   .     S
H1533  N1542   1.045   .     S
H1534  N1544   1.046   .     S
H1536  N1545   1.046   .     S
H1537  N1605   1.046   .     S
H1538  N1546   1.032   .     S
N1541  Zn1559  2.020   .     S
N1543  Zn1560  2.020   .     S
N1544  H1595   1.046   .     S
N1544  C1574   1.443   .     S
O1551  Zn1559  1.981   .     S
O1552  Zn1560  1.981   .     S
O1553  Zn1560  1.986   .     S
O1554  Zn1559  1.986   .     S
O1555  Zn1559  1.982   .     S
O1556  Zn1560  1.982   .     S
O1557  Zn1560  1.992   .     S
O1558  Zn1559  1.992   .     S
C1561  C1564   1.407   .     S
C1561  O1611   1.282   .     A
C1561  O1613   1.285   .     A
C1562  C1564   1.402   .     A
C1562  N1607   1.424   .     S
C1563  C1577   1.393   .     A
C1563  C1571   1.406   .     S
C1563  C1578   1.403   .     A
C1564  C1576   1.393   .     A
C1565  N1603   1.358   .     A
C1565  N1608   1.431   .     S
C1566  N1609   1.431   .     S
C1566  N1601   1.369   .     A
C1566  C488    1.435   1_556 S
C1567  N1601   1.383   .     A
C1567  N1610   1.429   .     S
C1567  C485    1.420   1_556 S
C1568  N1603   1.369   .     A
C1568  N1602   1.431   .     S
C1569  H1580   1.110   .     S
C1569  H1599   1.112   .     S
C1569  N1606   1.447   .     S
C1569  H1600   1.110   .     S
C1570  H1582   1.112   .     S
C1570  H1583   1.110   .     S
C1570  N1607   1.447   .     S
C1570  H1584   1.110   .     S
C1571  O1614   1.284   .     A
C1571  O1612   1.282   .     A
C1572  C1574   1.407   .     S
C1572  O1615   1.276   .     A
C1572  O1617   1.287   .     A
C1573  O1616   1.276   .     A
C1573  C1575   1.407   .     S
C1573  O1618   1.288   .     A
C1575  C1454   1.352   1_655 S
C1575  N1485   1.443   1_655 S
C1576  H1579   1.085   .     S
C1577  H1590   1.085   .     S
C1577  C1202   1.377   1_565 S
C1578  N1606   1.425   .     S
C1578  C1216   1.378   1_565 S
H1581  N1607   1.032   .     S
H1585  N1608   1.045   .     S
H1586  N1608   1.045   .     S
H1587  N1609   1.045   .     S
H1588  N1609   1.045   .     S
H1589  N1610   1.041   .     S
H1591  N1610   1.038   .     S
H1592  N1602   1.045   .     S
H1593  N1602   1.045   .     S
H1594  N1604   1.046   .     S
H1596  N1605   1.046   .     S
H1597  N1485   1.046   1_655 S
H1598  N1606   1.032   .     S
N1601  Zn1619  2.020   .     S
N1603  Zn1620  2.020   .     S
N1604  H1475   1.046   1_655 S
N1604  C1454   1.443   1_655 S
O1611  Zn1619  1.981   .     S
O1612  Zn1620  1.981   .     S
O1613  Zn1620  1.986   .     S
O1614  Zn1619  1.986   .     S
O1615  Zn1619  1.982   .     S
O1616  Zn1620  1.982   .     S
O1617  Zn1620  1.992   .     S
O1618  Zn1619  1.992   .     S
