data_str_m2_o10_o17_pcu_sym.25
_audit_creation_date              2020-01-03
_audit_creation_method            'Materials Studio'
_symmetry_space_group_name_H-M    'P1'
_symmetry_Int_Tables_number       1
_symmetry_cell_setting            triclinic
loop_
_symmetry_equiv_pos_as_xyz
  x,y,z
_cell_length_a                    29.9389
_cell_length_b                    26.0098
_cell_length_c                    22.5330
_cell_angle_alpha                 103.5114
_cell_angle_beta                  93.5776
_cell_angle_gamma                 92.3766
loop_
_atom_site_label
_atom_site_type_symbol
_atom_site_fract_x
_atom_site_fract_y
_atom_site_fract_z
_atom_site_U_iso_or_equiv
_atom_site_adp_type
_atom_site_occupancy
O1     O     0.25326   0.09538   0.20659   0.00000  Uiso   1.00
O2     O     0.24675   0.23796   0.12674   0.00000  Uiso   1.00
O3     O     0.24480   0.08559   0.10279   0.00000  Uiso   1.00
O4     O     0.25520   0.24774   0.23055   0.00000  Uiso   1.00
C5     C     0.24834   0.06660   0.15101   0.00000  Uiso   1.00
C6     C     0.25166   0.26674   0.18233   0.00000  Uiso   1.00
O7     O     0.18936   0.17155   0.21857   0.00000  Uiso   1.00
O8     O     0.31065   0.16179   0.11476   0.00000  Uiso   1.00
O9     O     0.18090   0.16176   0.11477   0.00000  Uiso   1.00
O10    O     0.31910   0.17157   0.21857   0.00000  Uiso   1.00
C11    C     0.16473   0.16713   0.16784   0.00000  Uiso   1.00
C12    C     0.33527   0.16620   0.16549   0.00000  Uiso   1.00
Cu13   Cu    0.25501   0.17246   0.22813   0.00000  Uiso   1.00
Cu14   Cu    0.24500   0.16087   0.10521   0.00000  Uiso   1.00
C15    C     0.40877   0.21206   0.19044   0.00000  Uiso   1.00
C16    C     0.09123   0.12128   0.14289   0.00000  Uiso   1.00
C17    C     0.38331   0.16568   0.16301   0.00000  Uiso   1.00
C18    C     0.11669   0.16766   0.17032   0.00000  Uiso   1.00
C19    C     0.40349   0.11960   0.13433   0.00000  Uiso   1.00
C20    C     0.09651   0.21373   0.19900   0.00000  Uiso   1.00
C21    C     0.45051   0.11951   0.13682   0.00000  Uiso   1.00
C22    C     0.04949   0.21382   0.19651   0.00000  Uiso   1.00
C23    C     0.47648   0.16675   0.16488   0.00000  Uiso   1.00
C24    C     0.02352   0.16659   0.16845   0.00000  Uiso   1.00
C25    C     0.45537   0.21405   0.18956   0.00000  Uiso   1.00
C26    C     0.04463   0.11929   0.14377   0.00000  Uiso   1.00
C27    C     0.47197   0.07264   0.11444   0.00000  Uiso   1.00
C28    C     0.02803   0.26069   0.21889   0.00000  Uiso   1.00
C29    C     0.01861   0.07165   0.11881   0.00000  Uiso   1.00
C30    C     0.48139   0.26169   0.21452   0.00000  Uiso   1.00
H31    H     0.39161   0.24626   0.21295   0.00000  Uiso   1.00
H32    H     0.10839   0.08707   0.12038   0.00000  Uiso   1.00
C33    C     0.24757   0.01041   0.14242   0.00000  Uiso   1.00
C34    C     0.25243   0.32292   0.19092   0.00000  Uiso   1.00
H35    H     0.24319   0.31947   0.09586   0.00000  Uiso   1.00
H36    H     0.25681   0.01387   0.23747   0.00000  Uiso   1.00
N37    N     0.23745   0.15214   0.01284   0.00000  Uiso   1.00
N38    N     0.26256   0.18119   0.32049   0.00000  Uiso   1.00
N39    N     0.37624   0.07266   0.10539   0.00000  Uiso   1.00
O40    O     0.37652   0.05302   0.04677   0.00000  Uiso   1.00
O41    O     0.35126   0.04939   0.13769   0.00000  Uiso   1.00
N42    N     0.12377   0.26068   0.22794   0.00000  Uiso   1.00
O43    O     0.12346   0.28033   0.28656   0.00000  Uiso   1.00
O44    O     0.14875   0.28393   0.19564   0.00000  Uiso   1.00
H45    H     0.45259   0.03575   0.09557   0.00000  Uiso   1.00
H46    H     0.04741   0.29758   0.23776   0.00000  Uiso   1.00
N47    N     0.03870   0.02157   0.10038   0.00000  Uiso   1.00
O48    O     0.02049   0.31880   0.05418   0.00000  Uiso   1.00
O49    O     0.06952   0.00820   0.13632   0.00000  Uiso   1.00
N50    N     0.46130   0.31176   0.23294   0.00000  Uiso   1.00
O51    O     0.47951   0.01454   0.27914   0.00000  Uiso   1.00
O52    O     0.43048   0.32514   0.19701   0.00000  Uiso   1.00
N53    N     0.19401   0.14133   0.31989   0.00000  Uiso   1.00
O54    O     0.18013   0.09246   0.29551   0.00000  Uiso   1.00
O55    O     0.16466   0.17708   0.33287   0.00000  Uiso   1.00
N56    N     0.30598   0.19202   0.01345   0.00000  Uiso   1.00
O57    O     0.31985   0.24089   0.03788   0.00000  Uiso   1.00
O58    O     0.33535   0.15629   0.00047   0.00000  Uiso   1.00
O59    O     0.75326   0.09538   0.20659   0.00000  Uiso   1.00
O60    O     0.74675   0.23796   0.12674   0.00000  Uiso   1.00
O61    O     0.74480   0.08559   0.10279   0.00000  Uiso   1.00
O62    O     0.75520   0.24774   0.23055   0.00000  Uiso   1.00
C63    C     0.74834   0.06660   0.15101   0.00000  Uiso   1.00
C64    C     0.75166   0.26674   0.18233   0.00000  Uiso   1.00
O65    O     0.68936   0.17155   0.21857   0.00000  Uiso   1.00
O66    O     0.81065   0.16179   0.11476   0.00000  Uiso   1.00
O67    O     0.68090   0.16176   0.11477   0.00000  Uiso   1.00
O68    O     0.81910   0.17157   0.21857   0.00000  Uiso   1.00
C69    C     0.66473   0.16713   0.16784   0.00000  Uiso   1.00
C70    C     0.83527   0.16620   0.16549   0.00000  Uiso   1.00
Cu71   Cu    0.75501   0.17246   0.22813   0.00000  Uiso   1.00
Cu72   Cu    0.74500   0.16087   0.10521   0.00000  Uiso   1.00
C73    C     0.90877   0.21206   0.19044   0.00000  Uiso   1.00
C74    C     0.59123   0.12128   0.14289   0.00000  Uiso   1.00
C75    C     0.88331   0.16568   0.16301   0.00000  Uiso   1.00
C76    C     0.61669   0.16766   0.17032   0.00000  Uiso   1.00
C77    C     0.90349   0.11960   0.13433   0.00000  Uiso   1.00
C78    C     0.59651   0.21373   0.19900   0.00000  Uiso   1.00
C79    C     0.95051   0.11951   0.13682   0.00000  Uiso   1.00
C80    C     0.54949   0.21382   0.19651   0.00000  Uiso   1.00
C81    C     0.97648   0.16675   0.16488   0.00000  Uiso   1.00
C82    C     0.52352   0.16659   0.16845   0.00000  Uiso   1.00
C83    C     0.95537   0.21405   0.18956   0.00000  Uiso   1.00
C84    C     0.54463   0.11929   0.14377   0.00000  Uiso   1.00
C85    C     0.97197   0.07264   0.11444   0.00000  Uiso   1.00
C86    C     0.52803   0.26069   0.21889   0.00000  Uiso   1.00
C87    C     0.51861   0.07165   0.11881   0.00000  Uiso   1.00
C88    C     0.98139   0.26169   0.21452   0.00000  Uiso   1.00
H89    H     0.89161   0.24626   0.21295   0.00000  Uiso   1.00
H90    H     0.60839   0.08707   0.12038   0.00000  Uiso   1.00
C91    C     0.74757   0.01041   0.14242   0.00000  Uiso   1.00
C92    C     0.75243   0.32292   0.19092   0.00000  Uiso   1.00
H93    H     0.74319   0.31947   0.09586   0.00000  Uiso   1.00
H94    H     0.75681   0.01387   0.23747   0.00000  Uiso   1.00
N95    N     0.73745   0.15214   0.01284   0.00000  Uiso   1.00
N96    N     0.76256   0.18119   0.32049   0.00000  Uiso   1.00
N97    N     0.87624   0.07266   0.10539   0.00000  Uiso   1.00
O98    O     0.87652   0.05302   0.04677   0.00000  Uiso   1.00
O99    O     0.85126   0.04939   0.13769   0.00000  Uiso   1.00
N100   N     0.62377   0.26068   0.22794   0.00000  Uiso   1.00
O101   O     0.62346   0.28033   0.28656   0.00000  Uiso   1.00
O102   O     0.64875   0.28393   0.19564   0.00000  Uiso   1.00
H103   H     0.95259   0.03575   0.09557   0.00000  Uiso   1.00
H104   H     0.54741   0.29758   0.23776   0.00000  Uiso   1.00
N105   N     0.53870   0.02157   0.10038   0.00000  Uiso   1.00
O106   O     0.52049   0.31880   0.05418   0.00000  Uiso   1.00
O107   O     0.56952   0.00820   0.13632   0.00000  Uiso   1.00
N108   N     0.96130   0.31176   0.23294   0.00000  Uiso   1.00
O109   O     0.97951   0.01454   0.27914   0.00000  Uiso   1.00
O110   O     0.93048   0.32514   0.19701   0.00000  Uiso   1.00
N111   N     0.69401   0.14133   0.31989   0.00000  Uiso   1.00
O112   O     0.68013   0.09246   0.29551   0.00000  Uiso   1.00
O113   O     0.66466   0.17708   0.33287   0.00000  Uiso   1.00
N114   N     0.80598   0.19202   0.01345   0.00000  Uiso   1.00
O115   O     0.81985   0.24089   0.03788   0.00000  Uiso   1.00
O116   O     0.83535   0.15629   0.00047   0.00000  Uiso   1.00
O117   O     0.25326   0.42871   0.20659   0.00000  Uiso   1.00
O118   O     0.24675   0.57129   0.12674   0.00000  Uiso   1.00
O119   O     0.24480   0.41892   0.10279   0.00000  Uiso   1.00
O120   O     0.25520   0.58108   0.23055   0.00000  Uiso   1.00
C121   C     0.24834   0.39993   0.15101   0.00000  Uiso   1.00
C122   C     0.25166   0.60007   0.18233   0.00000  Uiso   1.00
O123   O     0.18936   0.50488   0.21857   0.00000  Uiso   1.00
O124   O     0.31065   0.49512   0.11476   0.00000  Uiso   1.00
O125   O     0.18090   0.49510   0.11477   0.00000  Uiso   1.00
O126   O     0.31910   0.50490   0.21857   0.00000  Uiso   1.00
C127   C     0.16473   0.50047   0.16784   0.00000  Uiso   1.00
C128   C     0.33527   0.49953   0.16549   0.00000  Uiso   1.00
Cu129  Cu    0.25501   0.50579   0.22813   0.00000  Uiso   1.00
Cu130  Cu    0.24500   0.49421   0.10521   0.00000  Uiso   1.00
C131   C     0.40877   0.54539   0.19044   0.00000  Uiso   1.00
C132   C     0.09123   0.45461   0.14289   0.00000  Uiso   1.00
C133   C     0.38331   0.49901   0.16301   0.00000  Uiso   1.00
C134   C     0.11669   0.50099   0.17032   0.00000  Uiso   1.00
C135   C     0.40349   0.45293   0.13433   0.00000  Uiso   1.00
C136   C     0.09651   0.54707   0.19900   0.00000  Uiso   1.00
C137   C     0.45051   0.45285   0.13682   0.00000  Uiso   1.00
C138   C     0.04949   0.54716   0.19651   0.00000  Uiso   1.00
C139   C     0.47648   0.50008   0.16488   0.00000  Uiso   1.00
C140   C     0.02352   0.49992   0.16845   0.00000  Uiso   1.00
C141   C     0.45537   0.54738   0.18956   0.00000  Uiso   1.00
C142   C     0.04463   0.45262   0.14377   0.00000  Uiso   1.00
C143   C     0.47197   0.40598   0.11444   0.00000  Uiso   1.00
C144   C     0.02803   0.59403   0.21889   0.00000  Uiso   1.00
C145   C     0.01861   0.40498   0.11881   0.00000  Uiso   1.00
C146   C     0.48139   0.59502   0.21452   0.00000  Uiso   1.00
H147   H     0.39161   0.57959   0.21295   0.00000  Uiso   1.00
H148   H     0.10839   0.42041   0.12038   0.00000  Uiso   1.00
C149   C     0.24757   0.34375   0.14242   0.00000  Uiso   1.00
C150   C     0.25243   0.65625   0.19092   0.00000  Uiso   1.00
H151   H     0.24319   0.65280   0.09586   0.00000  Uiso   1.00
H152   H     0.25681   0.34720   0.23747   0.00000  Uiso   1.00
N153   N     0.23745   0.48547   0.01284   0.00000  Uiso   1.00
N154   N     0.26256   0.51453   0.32049   0.00000  Uiso   1.00
N155   N     0.37624   0.40599   0.10539   0.00000  Uiso   1.00
O156   O     0.37652   0.38635   0.04677   0.00000  Uiso   1.00
O157   O     0.35126   0.38273   0.13769   0.00000  Uiso   1.00
N158   N     0.12377   0.59401   0.22794   0.00000  Uiso   1.00
O159   O     0.12346   0.61367   0.28656   0.00000  Uiso   1.00
O160   O     0.14875   0.61727   0.19564   0.00000  Uiso   1.00
H161   H     0.45259   0.36908   0.09557   0.00000  Uiso   1.00
H162   H     0.04741   0.63092   0.23776   0.00000  Uiso   1.00
N163   N     0.03870   0.35491   0.10038   0.00000  Uiso   1.00
O164   O     0.02049   0.65213   0.05418   0.00000  Uiso   1.00
O165   O     0.06952   0.34153   0.13632   0.00000  Uiso   1.00
N166   N     0.46130   0.64509   0.23294   0.00000  Uiso   1.00
O167   O     0.47951   0.34787   0.27914   0.00000  Uiso   1.00
O168   O     0.43048   0.65847   0.19701   0.00000  Uiso   1.00
N169   N     0.19401   0.47466   0.31989   0.00000  Uiso   1.00
O170   O     0.18013   0.42580   0.29551   0.00000  Uiso   1.00
O171   O     0.16466   0.51042   0.33287   0.00000  Uiso   1.00
N172   N     0.30598   0.52536   0.01345   0.00000  Uiso   1.00
O173   O     0.31985   0.57423   0.03788   0.00000  Uiso   1.00
O174   O     0.33535   0.48963   0.00047   0.00000  Uiso   1.00
O175   O     0.75326   0.42871   0.20659   0.00000  Uiso   1.00
O176   O     0.74675   0.57129   0.12674   0.00000  Uiso   1.00
O177   O     0.74480   0.41892   0.10279   0.00000  Uiso   1.00
O178   O     0.75520   0.58108   0.23055   0.00000  Uiso   1.00
C179   C     0.74834   0.39993   0.15101   0.00000  Uiso   1.00
C180   C     0.75166   0.60007   0.18233   0.00000  Uiso   1.00
O181   O     0.68936   0.50488   0.21857   0.00000  Uiso   1.00
O182   O     0.81065   0.49512   0.11476   0.00000  Uiso   1.00
O183   O     0.68090   0.49510   0.11477   0.00000  Uiso   1.00
O184   O     0.81910   0.50490   0.21857   0.00000  Uiso   1.00
C185   C     0.66473   0.50047   0.16784   0.00000  Uiso   1.00
C186   C     0.83527   0.49953   0.16549   0.00000  Uiso   1.00
Cu187  Cu    0.75501   0.50579   0.22813   0.00000  Uiso   1.00
Cu188  Cu    0.74500   0.49421   0.10521   0.00000  Uiso   1.00
C189   C     0.90877   0.54539   0.19044   0.00000  Uiso   1.00
C190   C     0.59123   0.45461   0.14289   0.00000  Uiso   1.00
C191   C     0.88331   0.49901   0.16301   0.00000  Uiso   1.00
C192   C     0.61669   0.50099   0.17032   0.00000  Uiso   1.00
C193   C     0.90349   0.45293   0.13433   0.00000  Uiso   1.00
C194   C     0.59651   0.54707   0.19900   0.00000  Uiso   1.00
C195   C     0.95051   0.45285   0.13682   0.00000  Uiso   1.00
C196   C     0.54949   0.54716   0.19651   0.00000  Uiso   1.00
C197   C     0.97648   0.50008   0.16488   0.00000  Uiso   1.00
C198   C     0.52352   0.49992   0.16845   0.00000  Uiso   1.00
C199   C     0.95537   0.54738   0.18956   0.00000  Uiso   1.00
C200   C     0.54463   0.45262   0.14377   0.00000  Uiso   1.00
C201   C     0.97197   0.40598   0.11444   0.00000  Uiso   1.00
C202   C     0.52803   0.59403   0.21889   0.00000  Uiso   1.00
C203   C     0.51861   0.40498   0.11881   0.00000  Uiso   1.00
C204   C     0.98139   0.59502   0.21452   0.00000  Uiso   1.00
H205   H     0.89161   0.57959   0.21295   0.00000  Uiso   1.00
H206   H     0.60839   0.42041   0.12038   0.00000  Uiso   1.00
C207   C     0.74757   0.34375   0.14242   0.00000  Uiso   1.00
C208   C     0.75243   0.65625   0.19092   0.00000  Uiso   1.00
H209   H     0.74319   0.65280   0.09586   0.00000  Uiso   1.00
H210   H     0.75681   0.34720   0.23747   0.00000  Uiso   1.00
N211   N     0.73745   0.48547   0.01284   0.00000  Uiso   1.00
N212   N     0.76256   0.51453   0.32049   0.00000  Uiso   1.00
N213   N     0.87624   0.40599   0.10539   0.00000  Uiso   1.00
O214   O     0.87652   0.38635   0.04677   0.00000  Uiso   1.00
O215   O     0.85126   0.38273   0.13769   0.00000  Uiso   1.00
N216   N     0.62377   0.59401   0.22794   0.00000  Uiso   1.00
O217   O     0.62346   0.61367   0.28656   0.00000  Uiso   1.00
O218   O     0.64875   0.61727   0.19564   0.00000  Uiso   1.00
H219   H     0.95259   0.36908   0.09557   0.00000  Uiso   1.00
H220   H     0.54741   0.63092   0.23776   0.00000  Uiso   1.00
N221   N     0.53870   0.35491   0.10038   0.00000  Uiso   1.00
O222   O     0.52049   0.65213   0.05418   0.00000  Uiso   1.00
O223   O     0.56952   0.34153   0.13632   0.00000  Uiso   1.00
N224   N     0.96130   0.64509   0.23294   0.00000  Uiso   1.00
O225   O     0.97951   0.34787   0.27914   0.00000  Uiso   1.00
O226   O     0.93048   0.65847   0.19701   0.00000  Uiso   1.00
N227   N     0.69401   0.47466   0.31989   0.00000  Uiso   1.00
O228   O     0.68013   0.42580   0.29551   0.00000  Uiso   1.00
O229   O     0.66466   0.51042   0.33287   0.00000  Uiso   1.00
N230   N     0.80598   0.52536   0.01345   0.00000  Uiso   1.00
O231   O     0.81985   0.57423   0.03788   0.00000  Uiso   1.00
O232   O     0.83535   0.48963   0.00047   0.00000  Uiso   1.00
O233   O     0.25326   0.76204   0.20659   0.00000  Uiso   1.00
O234   O     0.24675   0.90462   0.12674   0.00000  Uiso   1.00
O235   O     0.24480   0.75226   0.10279   0.00000  Uiso   1.00
O236   O     0.25520   0.91441   0.23055   0.00000  Uiso   1.00
C237   C     0.24834   0.73326   0.15101   0.00000  Uiso   1.00
C238   C     0.25166   0.93340   0.18233   0.00000  Uiso   1.00
O239   O     0.18936   0.83821   0.21857   0.00000  Uiso   1.00
O240   O     0.31065   0.82845   0.11476   0.00000  Uiso   1.00
O241   O     0.18090   0.82843   0.11477   0.00000  Uiso   1.00
O242   O     0.31910   0.83824   0.21857   0.00000  Uiso   1.00
C243   C     0.16473   0.83380   0.16784   0.00000  Uiso   1.00
C244   C     0.33527   0.83287   0.16549   0.00000  Uiso   1.00
Cu245  Cu    0.25501   0.83913   0.22813   0.00000  Uiso   1.00
Cu246  Cu    0.24500   0.82754   0.10521   0.00000  Uiso   1.00
C247   C     0.40877   0.87872   0.19044   0.00000  Uiso   1.00
C248   C     0.09123   0.78795   0.14289   0.00000  Uiso   1.00
C249   C     0.38331   0.83234   0.16301   0.00000  Uiso   1.00
C250   C     0.11669   0.83432   0.17032   0.00000  Uiso   1.00
C251   C     0.40349   0.78627   0.13433   0.00000  Uiso   1.00
C252   C     0.09651   0.88040   0.19900   0.00000  Uiso   1.00
C253   C     0.45051   0.78618   0.13682   0.00000  Uiso   1.00
C254   C     0.04949   0.88049   0.19651   0.00000  Uiso   1.00
C255   C     0.47648   0.83341   0.16488   0.00000  Uiso   1.00
C256   C     0.02352   0.83326   0.16845   0.00000  Uiso   1.00
C257   C     0.45537   0.88072   0.18956   0.00000  Uiso   1.00
C258   C     0.04463   0.78595   0.14377   0.00000  Uiso   1.00
C259   C     0.47197   0.73931   0.11444   0.00000  Uiso   1.00
C260   C     0.02803   0.92736   0.21889   0.00000  Uiso   1.00
C261   C     0.01861   0.73831   0.11881   0.00000  Uiso   1.00
C262   C     0.48139   0.92836   0.21452   0.00000  Uiso   1.00
H263   H     0.39161   0.91293   0.21295   0.00000  Uiso   1.00
H264   H     0.10839   0.75374   0.12038   0.00000  Uiso   1.00
C265   C     0.24757   0.67708   0.14242   0.00000  Uiso   1.00
C266   C     0.25243   0.98959   0.19092   0.00000  Uiso   1.00
H267   H     0.24319   0.98613   0.09586   0.00000  Uiso   1.00
H268   H     0.25681   0.68053   0.23747   0.00000  Uiso   1.00
N269   N     0.23745   0.81881   0.01284   0.00000  Uiso   1.00
N270   N     0.26256   0.84786   0.32049   0.00000  Uiso   1.00
N271   N     0.37624   0.73932   0.10539   0.00000  Uiso   1.00
O272   O     0.37652   0.71968   0.04677   0.00000  Uiso   1.00
O273   O     0.35126   0.71606   0.13769   0.00000  Uiso   1.00
N274   N     0.12377   0.92734   0.22794   0.00000  Uiso   1.00
O275   O     0.12346   0.94700   0.28656   0.00000  Uiso   1.00
O276   O     0.14875   0.95060   0.19564   0.00000  Uiso   1.00
H277   H     0.45259   0.70242   0.09557   0.00000  Uiso   1.00
H278   H     0.04741   0.96425   0.23776   0.00000  Uiso   1.00
N279   N     0.03870   0.68824   0.10038   0.00000  Uiso   1.00
O280   O     0.02049   0.98547   0.05418   0.00000  Uiso   1.00
O281   O     0.06952   0.67486   0.13632   0.00000  Uiso   1.00
N282   N     0.46130   0.97843   0.23294   0.00000  Uiso   1.00
O283   O     0.47951   0.68120   0.27914   0.00000  Uiso   1.00
O284   O     0.43048   0.99180   0.19701   0.00000  Uiso   1.00
N285   N     0.19401   0.80800   0.31989   0.00000  Uiso   1.00
O286   O     0.18013   0.75913   0.29551   0.00000  Uiso   1.00
O287   O     0.16466   0.84375   0.33287   0.00000  Uiso   1.00
N288   N     0.30598   0.85869   0.01345   0.00000  Uiso   1.00
O289   O     0.31985   0.90756   0.03788   0.00000  Uiso   1.00
O290   O     0.33535   0.82296   0.00047   0.00000  Uiso   1.00
O291   O     0.75326   0.76204   0.20659   0.00000  Uiso   1.00
O292   O     0.74675   0.90462   0.12674   0.00000  Uiso   1.00
O293   O     0.74480   0.75226   0.10279   0.00000  Uiso   1.00
O294   O     0.75520   0.91441   0.23055   0.00000  Uiso   1.00
C295   C     0.74834   0.73326   0.15101   0.00000  Uiso   1.00
C296   C     0.75166   0.93340   0.18233   0.00000  Uiso   1.00
O297   O     0.68936   0.83821   0.21857   0.00000  Uiso   1.00
O298   O     0.81065   0.82845   0.11476   0.00000  Uiso   1.00
O299   O     0.68090   0.82843   0.11477   0.00000  Uiso   1.00
O300   O     0.81910   0.83824   0.21857   0.00000  Uiso   1.00
C301   C     0.66473   0.83380   0.16784   0.00000  Uiso   1.00
C302   C     0.83527   0.83287   0.16549   0.00000  Uiso   1.00
Cu303  Cu    0.75501   0.83913   0.22813   0.00000  Uiso   1.00
Cu304  Cu    0.74500   0.82754   0.10521   0.00000  Uiso   1.00
C305   C     0.90877   0.87872   0.19044   0.00000  Uiso   1.00
C306   C     0.59123   0.78795   0.14289   0.00000  Uiso   1.00
C307   C     0.88331   0.83234   0.16301   0.00000  Uiso   1.00
C308   C     0.61669   0.83432   0.17032   0.00000  Uiso   1.00
C309   C     0.90349   0.78627   0.13433   0.00000  Uiso   1.00
C310   C     0.59651   0.88040   0.19900   0.00000  Uiso   1.00
C311   C     0.95051   0.78618   0.13682   0.00000  Uiso   1.00
C312   C     0.54949   0.88049   0.19651   0.00000  Uiso   1.00
C313   C     0.97648   0.83341   0.16488   0.00000  Uiso   1.00
C314   C     0.52352   0.83326   0.16845   0.00000  Uiso   1.00
C315   C     0.95537   0.88072   0.18956   0.00000  Uiso   1.00
C316   C     0.54463   0.78595   0.14377   0.00000  Uiso   1.00
C317   C     0.97197   0.73931   0.11444   0.00000  Uiso   1.00
C318   C     0.52803   0.92736   0.21889   0.00000  Uiso   1.00
C319   C     0.51861   0.73831   0.11881   0.00000  Uiso   1.00
C320   C     0.98139   0.92836   0.21452   0.00000  Uiso   1.00
H321   H     0.89161   0.91293   0.21295   0.00000  Uiso   1.00
H322   H     0.60839   0.75374   0.12038   0.00000  Uiso   1.00
C323   C     0.74757   0.67708   0.14242   0.00000  Uiso   1.00
C324   C     0.75243   0.98959   0.19092   0.00000  Uiso   1.00
H325   H     0.74319   0.98613   0.09586   0.00000  Uiso   1.00
H326   H     0.75681   0.68053   0.23747   0.00000  Uiso   1.00
N327   N     0.73745   0.81881   0.01284   0.00000  Uiso   1.00
N328   N     0.76256   0.84786   0.32049   0.00000  Uiso   1.00
N329   N     0.87624   0.73932   0.10539   0.00000  Uiso   1.00
O330   O     0.87652   0.71968   0.04677   0.00000  Uiso   1.00
O331   O     0.85126   0.71606   0.13769   0.00000  Uiso   1.00
N332   N     0.62377   0.92734   0.22794   0.00000  Uiso   1.00
O333   O     0.62346   0.94700   0.28656   0.00000  Uiso   1.00
O334   O     0.64875   0.95060   0.19564   0.00000  Uiso   1.00
H335   H     0.95259   0.70242   0.09557   0.00000  Uiso   1.00
H336   H     0.54741   0.96425   0.23776   0.00000  Uiso   1.00
N337   N     0.53870   0.68824   0.10038   0.00000  Uiso   1.00
O338   O     0.52049   0.98547   0.05418   0.00000  Uiso   1.00
O339   O     0.56952   0.67486   0.13632   0.00000  Uiso   1.00
N340   N     0.96130   0.97843   0.23294   0.00000  Uiso   1.00
O341   O     0.97951   0.68120   0.27914   0.00000  Uiso   1.00
O342   O     0.93048   0.99180   0.19701   0.00000  Uiso   1.00
N343   N     0.69401   0.80800   0.31989   0.00000  Uiso   1.00
O344   O     0.68013   0.75913   0.29551   0.00000  Uiso   1.00
O345   O     0.66466   0.84375   0.33287   0.00000  Uiso   1.00
N346   N     0.80598   0.85869   0.01345   0.00000  Uiso   1.00
O347   O     0.81985   0.90756   0.03788   0.00000  Uiso   1.00
O348   O     0.83535   0.82296   0.00047   0.00000  Uiso   1.00
O349   O     0.25326   0.09538   0.53992   0.00000  Uiso   1.00
O350   O     0.24675   0.23796   0.46008   0.00000  Uiso   1.00
O351   O     0.24480   0.08559   0.43612   0.00000  Uiso   1.00
O352   O     0.25520   0.24774   0.56388   0.00000  Uiso   1.00
C353   C     0.24834   0.06660   0.48434   0.00000  Uiso   1.00
C354   C     0.25166   0.26674   0.51566   0.00000  Uiso   1.00
O355   O     0.18936   0.17155   0.55191   0.00000  Uiso   1.00
O356   O     0.31065   0.16179   0.44809   0.00000  Uiso   1.00
O357   O     0.18090   0.16176   0.44810   0.00000  Uiso   1.00
O358   O     0.31910   0.17157   0.55190   0.00000  Uiso   1.00
C359   C     0.16473   0.16713   0.50117   0.00000  Uiso   1.00
C360   C     0.33527   0.16620   0.49883   0.00000  Uiso   1.00
Cu361  Cu    0.25501   0.17246   0.56146   0.00000  Uiso   1.00
Cu362  Cu    0.24500   0.16087   0.43854   0.00000  Uiso   1.00
C363   C     0.40877   0.21206   0.52378   0.00000  Uiso   1.00
C364   C     0.09123   0.12128   0.47622   0.00000  Uiso   1.00
C365   C     0.38331   0.16568   0.49634   0.00000  Uiso   1.00
C366   C     0.11669   0.16766   0.50366   0.00000  Uiso   1.00
C367   C     0.40349   0.11960   0.46767   0.00000  Uiso   1.00
C368   C     0.09651   0.21373   0.53233   0.00000  Uiso   1.00
C369   C     0.45051   0.11951   0.47015   0.00000  Uiso   1.00
C370   C     0.04949   0.21382   0.52985   0.00000  Uiso   1.00
C371   C     0.47648   0.16675   0.49821   0.00000  Uiso   1.00
C372   C     0.02352   0.16659   0.50179   0.00000  Uiso   1.00
C373   C     0.45537   0.21405   0.52289   0.00000  Uiso   1.00
C374   C     0.04463   0.11929   0.47710   0.00000  Uiso   1.00
C375   C     0.47197   0.07264   0.44777   0.00000  Uiso   1.00
C376   C     0.02803   0.26069   0.55222   0.00000  Uiso   1.00
C377   C     0.01861   0.07165   0.45214   0.00000  Uiso   1.00
C378   C     0.48139   0.26169   0.54785   0.00000  Uiso   1.00
H379   H     0.39161   0.24626   0.54629   0.00000  Uiso   1.00
H380   H     0.10839   0.08707   0.45371   0.00000  Uiso   1.00
C381   C     0.24757   0.01041   0.47575   0.00000  Uiso   1.00
C382   C     0.25243   0.32292   0.52425   0.00000  Uiso   1.00
H383   H     0.24319   0.31947   0.42920   0.00000  Uiso   1.00
H384   H     0.25681   0.01387   0.57080   0.00000  Uiso   1.00
N385   N     0.23745   0.15214   0.34617   0.00000  Uiso   1.00
N386   N     0.26256   0.18119   0.65383   0.00000  Uiso   1.00
N387   N     0.37624   0.07266   0.43873   0.00000  Uiso   1.00
O388   O     0.37652   0.05302   0.38010   0.00000  Uiso   1.00
O389   O     0.35126   0.04939   0.47102   0.00000  Uiso   1.00
N390   N     0.12377   0.26068   0.56127   0.00000  Uiso   1.00
O391   O     0.12346   0.28033   0.61989   0.00000  Uiso   1.00
O392   O     0.14875   0.28393   0.52898   0.00000  Uiso   1.00
H393   H     0.45259   0.03575   0.42890   0.00000  Uiso   1.00
H394   H     0.04741   0.29758   0.57109   0.00000  Uiso   1.00
N395   N     0.03870   0.02157   0.43371   0.00000  Uiso   1.00
O396   O     0.02049   0.31880   0.38751   0.00000  Uiso   1.00
O397   O     0.06952   0.00820   0.46965   0.00000  Uiso   1.00
N398   N     0.46130   0.31176   0.56628   0.00000  Uiso   1.00
O399   O     0.47951   0.01454   0.61248   0.00000  Uiso   1.00
O400   O     0.43048   0.32514   0.53034   0.00000  Uiso   1.00
N401   N     0.19401   0.14133   0.65323   0.00000  Uiso   1.00
O402   O     0.18013   0.09246   0.62884   0.00000  Uiso   1.00
O403   O     0.16466   0.17708   0.66620   0.00000  Uiso   1.00
N404   N     0.30598   0.19202   0.34678   0.00000  Uiso   1.00
O405   O     0.31985   0.24089   0.37121   0.00000  Uiso   1.00
O406   O     0.33535   0.15629   0.33380   0.00000  Uiso   1.00
O407   O     0.75326   0.09538   0.53992   0.00000  Uiso   1.00
O408   O     0.74675   0.23796   0.46008   0.00000  Uiso   1.00
O409   O     0.74480   0.08559   0.43612   0.00000  Uiso   1.00
O410   O     0.75520   0.24774   0.56388   0.00000  Uiso   1.00
C411   C     0.74834   0.06660   0.48434   0.00000  Uiso   1.00
C412   C     0.75166   0.26674   0.51566   0.00000  Uiso   1.00
O413   O     0.68936   0.17155   0.55191   0.00000  Uiso   1.00
O414   O     0.81065   0.16179   0.44809   0.00000  Uiso   1.00
O415   O     0.68090   0.16176   0.44810   0.00000  Uiso   1.00
O416   O     0.81910   0.17157   0.55190   0.00000  Uiso   1.00
C417   C     0.66473   0.16713   0.50117   0.00000  Uiso   1.00
C418   C     0.83527   0.16620   0.49883   0.00000  Uiso   1.00
Cu419  Cu    0.75501   0.17246   0.56146   0.00000  Uiso   1.00
Cu420  Cu    0.74500   0.16087   0.43854   0.00000  Uiso   1.00
C421   C     0.90877   0.21206   0.52378   0.00000  Uiso   1.00
C422   C     0.59123   0.12128   0.47622   0.00000  Uiso   1.00
C423   C     0.88331   0.16568   0.49634   0.00000  Uiso   1.00
C424   C     0.61669   0.16766   0.50366   0.00000  Uiso   1.00
C425   C     0.90349   0.11960   0.46767   0.00000  Uiso   1.00
C426   C     0.59651   0.21373   0.53233   0.00000  Uiso   1.00
C427   C     0.95051   0.11951   0.47015   0.00000  Uiso   1.00
C428   C     0.54949   0.21382   0.52985   0.00000  Uiso   1.00
C429   C     0.97648   0.16675   0.49821   0.00000  Uiso   1.00
C430   C     0.52352   0.16659   0.50179   0.00000  Uiso   1.00
C431   C     0.95537   0.21405   0.52289   0.00000  Uiso   1.00
C432   C     0.54463   0.11929   0.47710   0.00000  Uiso   1.00
C433   C     0.97197   0.07264   0.44777   0.00000  Uiso   1.00
C434   C     0.52803   0.26069   0.55222   0.00000  Uiso   1.00
C435   C     0.51861   0.07165   0.45214   0.00000  Uiso   1.00
C436   C     0.98139   0.26169   0.54785   0.00000  Uiso   1.00
H437   H     0.89161   0.24626   0.54629   0.00000  Uiso   1.00
H438   H     0.60839   0.08707   0.45371   0.00000  Uiso   1.00
C439   C     0.74757   0.01041   0.47575   0.00000  Uiso   1.00
C440   C     0.75243   0.32292   0.52425   0.00000  Uiso   1.00
H441   H     0.74319   0.31947   0.42920   0.00000  Uiso   1.00
H442   H     0.75681   0.01387   0.57080   0.00000  Uiso   1.00
N443   N     0.73745   0.15214   0.34617   0.00000  Uiso   1.00
N444   N     0.76256   0.18119   0.65383   0.00000  Uiso   1.00
N445   N     0.87624   0.07266   0.43873   0.00000  Uiso   1.00
O446   O     0.87652   0.05302   0.38010   0.00000  Uiso   1.00
O447   O     0.85126   0.04939   0.47102   0.00000  Uiso   1.00
N448   N     0.62377   0.26068   0.56127   0.00000  Uiso   1.00
O449   O     0.62346   0.28033   0.61989   0.00000  Uiso   1.00
O450   O     0.64875   0.28393   0.52898   0.00000  Uiso   1.00
H451   H     0.95259   0.03575   0.42890   0.00000  Uiso   1.00
H452   H     0.54741   0.29758   0.57109   0.00000  Uiso   1.00
N453   N     0.53870   0.02157   0.43371   0.00000  Uiso   1.00
O454   O     0.52049   0.31880   0.38751   0.00000  Uiso   1.00
O455   O     0.56952   0.00820   0.46965   0.00000  Uiso   1.00
N456   N     0.96130   0.31176   0.56628   0.00000  Uiso   1.00
O457   O     0.97951   0.01454   0.61248   0.00000  Uiso   1.00
O458   O     0.93048   0.32514   0.53034   0.00000  Uiso   1.00
N459   N     0.69401   0.14133   0.65323   0.00000  Uiso   1.00
O460   O     0.68013   0.09246   0.62884   0.00000  Uiso   1.00
O461   O     0.66466   0.17708   0.66620   0.00000  Uiso   1.00
N462   N     0.80598   0.19202   0.34678   0.00000  Uiso   1.00
O463   O     0.81985   0.24089   0.37121   0.00000  Uiso   1.00
O464   O     0.83535   0.15629   0.33380   0.00000  Uiso   1.00
O465   O     0.25326   0.42871   0.53992   0.00000  Uiso   1.00
O466   O     0.24675   0.57129   0.46008   0.00000  Uiso   1.00
O467   O     0.24480   0.41892   0.43612   0.00000  Uiso   1.00
O468   O     0.25520   0.58108   0.56388   0.00000  Uiso   1.00
C469   C     0.24834   0.39993   0.48434   0.00000  Uiso   1.00
C470   C     0.25166   0.60007   0.51566   0.00000  Uiso   1.00
O471   O     0.18936   0.50488   0.55191   0.00000  Uiso   1.00
O472   O     0.31065   0.49512   0.44809   0.00000  Uiso   1.00
O473   O     0.18090   0.49510   0.44810   0.00000  Uiso   1.00
O474   O     0.31910   0.50490   0.55190   0.00000  Uiso   1.00
C475   C     0.16473   0.50047   0.50117   0.00000  Uiso   1.00
C476   C     0.33527   0.49953   0.49883   0.00000  Uiso   1.00
Cu477  Cu    0.25501   0.50579   0.56146   0.00000  Uiso   1.00
Cu478  Cu    0.24500   0.49421   0.43854   0.00000  Uiso   1.00
C479   C     0.40877   0.54539   0.52378   0.00000  Uiso   1.00
C480   C     0.09123   0.45461   0.47622   0.00000  Uiso   1.00
C481   C     0.38331   0.49901   0.49634   0.00000  Uiso   1.00
C482   C     0.11669   0.50099   0.50366   0.00000  Uiso   1.00
C483   C     0.40349   0.45293   0.46767   0.00000  Uiso   1.00
C484   C     0.09651   0.54707   0.53233   0.00000  Uiso   1.00
C485   C     0.45051   0.45285   0.47015   0.00000  Uiso   1.00
C486   C     0.04949   0.54716   0.52985   0.00000  Uiso   1.00
C487   C     0.47648   0.50008   0.49821   0.00000  Uiso   1.00
C488   C     0.02352   0.49992   0.50179   0.00000  Uiso   1.00
C489   C     0.45537   0.54738   0.52289   0.00000  Uiso   1.00
C490   C     0.04463   0.45262   0.47710   0.00000  Uiso   1.00
C491   C     0.47197   0.40598   0.44777   0.00000  Uiso   1.00
C492   C     0.02803   0.59403   0.55222   0.00000  Uiso   1.00
C493   C     0.01861   0.40498   0.45214   0.00000  Uiso   1.00
C494   C     0.48139   0.59502   0.54785   0.00000  Uiso   1.00
H495   H     0.39161   0.57959   0.54629   0.00000  Uiso   1.00
H496   H     0.10839   0.42041   0.45371   0.00000  Uiso   1.00
C497   C     0.24757   0.34375   0.47575   0.00000  Uiso   1.00
C498   C     0.25243   0.65625   0.52425   0.00000  Uiso   1.00
H499   H     0.24319   0.65280   0.42920   0.00000  Uiso   1.00
H500   H     0.25681   0.34720   0.57080   0.00000  Uiso   1.00
N501   N     0.23745   0.48547   0.34617   0.00000  Uiso   1.00
N502   N     0.26256   0.51453   0.65383   0.00000  Uiso   1.00
N503   N     0.37624   0.40599   0.43873   0.00000  Uiso   1.00
O504   O     0.37652   0.38635   0.38010   0.00000  Uiso   1.00
O505   O     0.35126   0.38273   0.47102   0.00000  Uiso   1.00
N506   N     0.12377   0.59401   0.56127   0.00000  Uiso   1.00
O507   O     0.12346   0.61367   0.61989   0.00000  Uiso   1.00
O508   O     0.14875   0.61727   0.52898   0.00000  Uiso   1.00
H509   H     0.45259   0.36908   0.42890   0.00000  Uiso   1.00
H510   H     0.04741   0.63092   0.57109   0.00000  Uiso   1.00
N511   N     0.03870   0.35491   0.43371   0.00000  Uiso   1.00
O512   O     0.02049   0.65213   0.38751   0.00000  Uiso   1.00
O513   O     0.06952   0.34153   0.46965   0.00000  Uiso   1.00
N514   N     0.46130   0.64509   0.56628   0.00000  Uiso   1.00
O515   O     0.47951   0.34787   0.61248   0.00000  Uiso   1.00
O516   O     0.43048   0.65847   0.53034   0.00000  Uiso   1.00
N517   N     0.19401   0.47466   0.65323   0.00000  Uiso   1.00
O518   O     0.18013   0.42580   0.62884   0.00000  Uiso   1.00
O519   O     0.16466   0.51042   0.66620   0.00000  Uiso   1.00
N520   N     0.30598   0.52536   0.34678   0.00000  Uiso   1.00
O521   O     0.31985   0.57423   0.37121   0.00000  Uiso   1.00
O522   O     0.33535   0.48963   0.33380   0.00000  Uiso   1.00
O523   O     0.75326   0.42871   0.53992   0.00000  Uiso   1.00
O524   O     0.74675   0.57129   0.46008   0.00000  Uiso   1.00
O525   O     0.74480   0.41892   0.43612   0.00000  Uiso   1.00
O526   O     0.75520   0.58108   0.56388   0.00000  Uiso   1.00
C527   C     0.74834   0.39993   0.48434   0.00000  Uiso   1.00
C528   C     0.75166   0.60007   0.51566   0.00000  Uiso   1.00
O529   O     0.68936   0.50488   0.55191   0.00000  Uiso   1.00
O530   O     0.81065   0.49512   0.44809   0.00000  Uiso   1.00
O531   O     0.68090   0.49510   0.44810   0.00000  Uiso   1.00
O532   O     0.81910   0.50490   0.55190   0.00000  Uiso   1.00
C533   C     0.66473   0.50047   0.50117   0.00000  Uiso   1.00
C534   C     0.83527   0.49953   0.49883   0.00000  Uiso   1.00
Cu535  Cu    0.75501   0.50579   0.56146   0.00000  Uiso   1.00
Cu536  Cu    0.74500   0.49421   0.43854   0.00000  Uiso   1.00
C537   C     0.90877   0.54539   0.52378   0.00000  Uiso   1.00
C538   C     0.59123   0.45461   0.47622   0.00000  Uiso   1.00
C539   C     0.88331   0.49901   0.49634   0.00000  Uiso   1.00
C540   C     0.61669   0.50099   0.50366   0.00000  Uiso   1.00
C541   C     0.90349   0.45293   0.46767   0.00000  Uiso   1.00
C542   C     0.59651   0.54707   0.53233   0.00000  Uiso   1.00
C543   C     0.95051   0.45285   0.47015   0.00000  Uiso   1.00
C544   C     0.54949   0.54716   0.52985   0.00000  Uiso   1.00
C545   C     0.97648   0.50008   0.49821   0.00000  Uiso   1.00
C546   C     0.52352   0.49992   0.50179   0.00000  Uiso   1.00
C547   C     0.95537   0.54738   0.52289   0.00000  Uiso   1.00
C548   C     0.54463   0.45262   0.47710   0.00000  Uiso   1.00
C549   C     0.97197   0.40598   0.44777   0.00000  Uiso   1.00
C550   C     0.52803   0.59403   0.55222   0.00000  Uiso   1.00
C551   C     0.51861   0.40498   0.45214   0.00000  Uiso   1.00
C552   C     0.98139   0.59502   0.54785   0.00000  Uiso   1.00
H553   H     0.89161   0.57959   0.54629   0.00000  Uiso   1.00
H554   H     0.60839   0.42041   0.45371   0.00000  Uiso   1.00
C555   C     0.74757   0.34375   0.47575   0.00000  Uiso   1.00
C556   C     0.75243   0.65625   0.52425   0.00000  Uiso   1.00
H557   H     0.74319   0.65280   0.42920   0.00000  Uiso   1.00
H558   H     0.75681   0.34720   0.57080   0.00000  Uiso   1.00
N559   N     0.73745   0.48547   0.34617   0.00000  Uiso   1.00
N560   N     0.76256   0.51453   0.65383   0.00000  Uiso   1.00
N561   N     0.87624   0.40599   0.43873   0.00000  Uiso   1.00
O562   O     0.87652   0.38635   0.38010   0.00000  Uiso   1.00
O563   O     0.85126   0.38273   0.47102   0.00000  Uiso   1.00
N564   N     0.62377   0.59401   0.56127   0.00000  Uiso   1.00
O565   O     0.62346   0.61367   0.61989   0.00000  Uiso   1.00
O566   O     0.64875   0.61727   0.52898   0.00000  Uiso   1.00
H567   H     0.95259   0.36908   0.42890   0.00000  Uiso   1.00
H568   H     0.54741   0.63092   0.57109   0.00000  Uiso   1.00
N569   N     0.53870   0.35491   0.43371   0.00000  Uiso   1.00
O570   O     0.52049   0.65213   0.38751   0.00000  Uiso   1.00
O571   O     0.56952   0.34153   0.46965   0.00000  Uiso   1.00
N572   N     0.96130   0.64509   0.56628   0.00000  Uiso   1.00
O573   O     0.97951   0.34787   0.61248   0.00000  Uiso   1.00
O574   O     0.93048   0.65847   0.53034   0.00000  Uiso   1.00
N575   N     0.69401   0.47466   0.65323   0.00000  Uiso   1.00
O576   O     0.68013   0.42580   0.62884   0.00000  Uiso   1.00
O577   O     0.66466   0.51042   0.66620   0.00000  Uiso   1.00
N578   N     0.80598   0.52536   0.34678   0.00000  Uiso   1.00
O579   O     0.81985   0.57423   0.37121   0.00000  Uiso   1.00
O580   O     0.83535   0.48963   0.33380   0.00000  Uiso   1.00
O581   O     0.25326   0.76204   0.53992   0.00000  Uiso   1.00
O582   O     0.24675   0.90462   0.46008   0.00000  Uiso   1.00
O583   O     0.24480   0.75226   0.43612   0.00000  Uiso   1.00
O584   O     0.25520   0.91441   0.56388   0.00000  Uiso   1.00
C585   C     0.24834   0.73326   0.48434   0.00000  Uiso   1.00
C586   C     0.25166   0.93340   0.51566   0.00000  Uiso   1.00
O587   O     0.18936   0.83821   0.55191   0.00000  Uiso   1.00
O588   O     0.31065   0.82845   0.44809   0.00000  Uiso   1.00
O589   O     0.18090   0.82843   0.44810   0.00000  Uiso   1.00
O590   O     0.31910   0.83824   0.55190   0.00000  Uiso   1.00
C591   C     0.16473   0.83380   0.50117   0.00000  Uiso   1.00
C592   C     0.33527   0.83287   0.49883   0.00000  Uiso   1.00
Cu593  Cu    0.25501   0.83913   0.56146   0.00000  Uiso   1.00
Cu594  Cu    0.24500   0.82754   0.43854   0.00000  Uiso   1.00
C595   C     0.40877   0.87872   0.52378   0.00000  Uiso   1.00
C596   C     0.09123   0.78795   0.47622   0.00000  Uiso   1.00
C597   C     0.38331   0.83234   0.49634   0.00000  Uiso   1.00
C598   C     0.11669   0.83432   0.50366   0.00000  Uiso   1.00
C599   C     0.40349   0.78627   0.46767   0.00000  Uiso   1.00
C600   C     0.09651   0.88040   0.53233   0.00000  Uiso   1.00
C601   C     0.45051   0.78618   0.47015   0.00000  Uiso   1.00
C602   C     0.04949   0.88049   0.52985   0.00000  Uiso   1.00
C603   C     0.47648   0.83341   0.49821   0.00000  Uiso   1.00
C604   C     0.02352   0.83326   0.50179   0.00000  Uiso   1.00
C605   C     0.45537   0.88072   0.52289   0.00000  Uiso   1.00
C606   C     0.04463   0.78595   0.47710   0.00000  Uiso   1.00
C607   C     0.47197   0.73931   0.44777   0.00000  Uiso   1.00
C608   C     0.02803   0.92736   0.55222   0.00000  Uiso   1.00
C609   C     0.01861   0.73831   0.45214   0.00000  Uiso   1.00
C610   C     0.48139   0.92836   0.54785   0.00000  Uiso   1.00
H611   H     0.39161   0.91293   0.54629   0.00000  Uiso   1.00
H612   H     0.10839   0.75374   0.45371   0.00000  Uiso   1.00
C613   C     0.24757   0.67708   0.47575   0.00000  Uiso   1.00
C614   C     0.25243   0.98959   0.52425   0.00000  Uiso   1.00
H615   H     0.24319   0.98613   0.42920   0.00000  Uiso   1.00
H616   H     0.25681   0.68053   0.57080   0.00000  Uiso   1.00
N617   N     0.23745   0.81881   0.34617   0.00000  Uiso   1.00
N618   N     0.26256   0.84786   0.65383   0.00000  Uiso   1.00
N619   N     0.37624   0.73932   0.43873   0.00000  Uiso   1.00
O620   O     0.37652   0.71968   0.38010   0.00000  Uiso   1.00
O621   O     0.35126   0.71606   0.47102   0.00000  Uiso   1.00
N622   N     0.12377   0.92734   0.56127   0.00000  Uiso   1.00
O623   O     0.12346   0.94700   0.61989   0.00000  Uiso   1.00
O624   O     0.14875   0.95060   0.52898   0.00000  Uiso   1.00
H625   H     0.45259   0.70242   0.42890   0.00000  Uiso   1.00
H626   H     0.04741   0.96425   0.57109   0.00000  Uiso   1.00
N627   N     0.03870   0.68824   0.43371   0.00000  Uiso   1.00
O628   O     0.02049   0.98547   0.38751   0.00000  Uiso   1.00
O629   O     0.06952   0.67486   0.46965   0.00000  Uiso   1.00
N630   N     0.46130   0.97843   0.56628   0.00000  Uiso   1.00
O631   O     0.47951   0.68120   0.61248   0.00000  Uiso   1.00
O632   O     0.43048   0.99180   0.53034   0.00000  Uiso   1.00
N633   N     0.19401   0.80800   0.65323   0.00000  Uiso   1.00
O634   O     0.18013   0.75913   0.62884   0.00000  Uiso   1.00
O635   O     0.16466   0.84375   0.66620   0.00000  Uiso   1.00
N636   N     0.30598   0.85869   0.34678   0.00000  Uiso   1.00
O637   O     0.31985   0.90756   0.37121   0.00000  Uiso   1.00
O638   O     0.33535   0.82296   0.33380   0.00000  Uiso   1.00
O639   O     0.75326   0.76204   0.53992   0.00000  Uiso   1.00
O640   O     0.74675   0.90462   0.46008   0.00000  Uiso   1.00
O641   O     0.74480   0.75226   0.43612   0.00000  Uiso   1.00
O642   O     0.75520   0.91441   0.56388   0.00000  Uiso   1.00
C643   C     0.74834   0.73326   0.48434   0.00000  Uiso   1.00
C644   C     0.75166   0.93340   0.51566   0.00000  Uiso   1.00
O645   O     0.68936   0.83821   0.55191   0.00000  Uiso   1.00
O646   O     0.81065   0.82845   0.44809   0.00000  Uiso   1.00
O647   O     0.68090   0.82843   0.44810   0.00000  Uiso   1.00
O648   O     0.81910   0.83824   0.55190   0.00000  Uiso   1.00
C649   C     0.66473   0.83380   0.50117   0.00000  Uiso   1.00
C650   C     0.83527   0.83287   0.49883   0.00000  Uiso   1.00
Cu651  Cu    0.75501   0.83913   0.56146   0.00000  Uiso   1.00
Cu652  Cu    0.74500   0.82754   0.43854   0.00000  Uiso   1.00
C653   C     0.90877   0.87872   0.52378   0.00000  Uiso   1.00
C654   C     0.59123   0.78795   0.47622   0.00000  Uiso   1.00
C655   C     0.88331   0.83234   0.49634   0.00000  Uiso   1.00
C656   C     0.61669   0.83432   0.50366   0.00000  Uiso   1.00
C657   C     0.90349   0.78627   0.46767   0.00000  Uiso   1.00
C658   C     0.59651   0.88040   0.53233   0.00000  Uiso   1.00
C659   C     0.95051   0.78618   0.47015   0.00000  Uiso   1.00
C660   C     0.54949   0.88049   0.52985   0.00000  Uiso   1.00
C661   C     0.97648   0.83341   0.49821   0.00000  Uiso   1.00
C662   C     0.52352   0.83326   0.50179   0.00000  Uiso   1.00
C663   C     0.95537   0.88072   0.52289   0.00000  Uiso   1.00
C664   C     0.54463   0.78595   0.47710   0.00000  Uiso   1.00
C665   C     0.97197   0.73931   0.44777   0.00000  Uiso   1.00
C666   C     0.52803   0.92736   0.55222   0.00000  Uiso   1.00
C667   C     0.51861   0.73831   0.45214   0.00000  Uiso   1.00
C668   C     0.98139   0.92836   0.54785   0.00000  Uiso   1.00
H669   H     0.89161   0.91293   0.54629   0.00000  Uiso   1.00
H670   H     0.60839   0.75374   0.45371   0.00000  Uiso   1.00
C671   C     0.74757   0.67708   0.47575   0.00000  Uiso   1.00
C672   C     0.75243   0.98959   0.52425   0.00000  Uiso   1.00
H673   H     0.74319   0.98613   0.42920   0.00000  Uiso   1.00
H674   H     0.75681   0.68053   0.57080   0.00000  Uiso   1.00
N675   N     0.73745   0.81881   0.34617   0.00000  Uiso   1.00
N676   N     0.76256   0.84786   0.65383   0.00000  Uiso   1.00
N677   N     0.87624   0.73932   0.43873   0.00000  Uiso   1.00
O678   O     0.87652   0.71968   0.38010   0.00000  Uiso   1.00
O679   O     0.85126   0.71606   0.47102   0.00000  Uiso   1.00
N680   N     0.62377   0.92734   0.56127   0.00000  Uiso   1.00
O681   O     0.62346   0.94700   0.61989   0.00000  Uiso   1.00
O682   O     0.64875   0.95060   0.52898   0.00000  Uiso   1.00
H683   H     0.95259   0.70242   0.42890   0.00000  Uiso   1.00
H684   H     0.54741   0.96425   0.57109   0.00000  Uiso   1.00
N685   N     0.53870   0.68824   0.43371   0.00000  Uiso   1.00
O686   O     0.52049   0.98547   0.38751   0.00000  Uiso   1.00
O687   O     0.56952   0.67486   0.46965   0.00000  Uiso   1.00
N688   N     0.96130   0.97843   0.56628   0.00000  Uiso   1.00
O689   O     0.97951   0.68120   0.61248   0.00000  Uiso   1.00
O690   O     0.93048   0.99180   0.53034   0.00000  Uiso   1.00
N691   N     0.69401   0.80800   0.65323   0.00000  Uiso   1.00
O692   O     0.68013   0.75913   0.62884   0.00000  Uiso   1.00
O693   O     0.66466   0.84375   0.66620   0.00000  Uiso   1.00
N694   N     0.80598   0.85869   0.34678   0.00000  Uiso   1.00
O695   O     0.81985   0.90756   0.37121   0.00000  Uiso   1.00
O696   O     0.83535   0.82296   0.33380   0.00000  Uiso   1.00
O697   O     0.25326   0.09538   0.87326   0.00000  Uiso   1.00
O698   O     0.24675   0.23796   0.79341   0.00000  Uiso   1.00
O699   O     0.24480   0.08559   0.76945   0.00000  Uiso   1.00
O700   O     0.25520   0.24774   0.89721   0.00000  Uiso   1.00
C701   C     0.24834   0.06660   0.81767   0.00000  Uiso   1.00
C702   C     0.25166   0.26674   0.84899   0.00000  Uiso   1.00
O703   O     0.18936   0.17155   0.88524   0.00000  Uiso   1.00
O704   O     0.31065   0.16179   0.78143   0.00000  Uiso   1.00
O705   O     0.18090   0.16176   0.78143   0.00000  Uiso   1.00
O706   O     0.31910   0.17157   0.88523   0.00000  Uiso   1.00
C707   C     0.16473   0.16713   0.83451   0.00000  Uiso   1.00
C708   C     0.33527   0.16620   0.83216   0.00000  Uiso   1.00
Cu709  Cu    0.25501   0.17246   0.89479   0.00000  Uiso   1.00
Cu710  Cu    0.24500   0.16087   0.77187   0.00000  Uiso   1.00
C711   C     0.40877   0.21206   0.85711   0.00000  Uiso   1.00
C712   C     0.09123   0.12128   0.80955   0.00000  Uiso   1.00
C713   C     0.38331   0.16568   0.82967   0.00000  Uiso   1.00
C714   C     0.11669   0.16766   0.83699   0.00000  Uiso   1.00
C715   C     0.40349   0.11960   0.80100   0.00000  Uiso   1.00
C716   C     0.09651   0.21373   0.86567   0.00000  Uiso   1.00
C717   C     0.45051   0.11951   0.80348   0.00000  Uiso   1.00
C718   C     0.04949   0.21382   0.86318   0.00000  Uiso   1.00
C719   C     0.47648   0.16675   0.83154   0.00000  Uiso   1.00
C720   C     0.02352   0.16659   0.83512   0.00000  Uiso   1.00
C721   C     0.45537   0.21405   0.85623   0.00000  Uiso   1.00
C722   C     0.04463   0.11929   0.81044   0.00000  Uiso   1.00
C723   C     0.47197   0.07264   0.78110   0.00000  Uiso   1.00
C724   C     0.02803   0.26069   0.88556   0.00000  Uiso   1.00
C725   C     0.01861   0.07165   0.78547   0.00000  Uiso   1.00
C726   C     0.48139   0.26169   0.88119   0.00000  Uiso   1.00
H727   H     0.39161   0.24626   0.87962   0.00000  Uiso   1.00
H728   H     0.10839   0.08707   0.78705   0.00000  Uiso   1.00
C729   C     0.24757   0.01041   0.80908   0.00000  Uiso   1.00
C730   C     0.25243   0.32292   0.85758   0.00000  Uiso   1.00
H731   H     0.24319   0.31947   0.76253   0.00000  Uiso   1.00
H732   H     0.25681   0.01387   0.90413   0.00000  Uiso   1.00
N733   N     0.23745   0.15214   0.67951   0.00000  Uiso   1.00
N734   N     0.26256   0.18119   0.98716   0.00000  Uiso   1.00
N735   N     0.37624   0.07266   0.77206   0.00000  Uiso   1.00
O736   O     0.37652   0.05302   0.71343   0.00000  Uiso   1.00
O737   O     0.35126   0.04939   0.80436   0.00000  Uiso   1.00
N738   N     0.12377   0.26068   0.89461   0.00000  Uiso   1.00
O739   O     0.12346   0.28033   0.95323   0.00000  Uiso   1.00
O740   O     0.14875   0.28393   0.86231   0.00000  Uiso   1.00
H741   H     0.45259   0.03575   0.76223   0.00000  Uiso   1.00
H742   H     0.04741   0.29758   0.90442   0.00000  Uiso   1.00
N743   N     0.03870   0.02157   0.76705   0.00000  Uiso   1.00
O744   O     0.02049   0.31880   0.72085   0.00000  Uiso   1.00
O745   O     0.06952   0.00820   0.80298   0.00000  Uiso   1.00
N746   N     0.46130   0.31176   0.89961   0.00000  Uiso   1.00
O747   O     0.47951   0.01454   0.94581   0.00000  Uiso   1.00
O748   O     0.43048   0.32514   0.86367   0.00000  Uiso   1.00
N749   N     0.19401   0.14133   0.98656   0.00000  Uiso   1.00
O750   O     0.18013   0.09246   0.96217   0.00000  Uiso   1.00
O751   O     0.16466   0.17708   0.99954   0.00000  Uiso   1.00
N752   N     0.30598   0.19202   0.68012   0.00000  Uiso   1.00
O753   O     0.31985   0.24089   0.70454   0.00000  Uiso   1.00
O754   O     0.33535   0.15629   0.66714   0.00000  Uiso   1.00
O755   O     0.75326   0.09538   0.87326   0.00000  Uiso   1.00
O756   O     0.74675   0.23796   0.79341   0.00000  Uiso   1.00
O757   O     0.74480   0.08559   0.76945   0.00000  Uiso   1.00
O758   O     0.75520   0.24774   0.89721   0.00000  Uiso   1.00
C759   C     0.74834   0.06660   0.81767   0.00000  Uiso   1.00
C760   C     0.75166   0.26674   0.84899   0.00000  Uiso   1.00
O761   O     0.68936   0.17155   0.88524   0.00000  Uiso   1.00
O762   O     0.81065   0.16179   0.78143   0.00000  Uiso   1.00
O763   O     0.68090   0.16176   0.78143   0.00000  Uiso   1.00
O764   O     0.81910   0.17157   0.88523   0.00000  Uiso   1.00
C765   C     0.66473   0.16713   0.83451   0.00000  Uiso   1.00
C766   C     0.83527   0.16620   0.83216   0.00000  Uiso   1.00
Cu767  Cu    0.75501   0.17246   0.89479   0.00000  Uiso   1.00
Cu768  Cu    0.74500   0.16087   0.77187   0.00000  Uiso   1.00
C769   C     0.90877   0.21206   0.85711   0.00000  Uiso   1.00
C770   C     0.59123   0.12128   0.80955   0.00000  Uiso   1.00
C771   C     0.88331   0.16568   0.82967   0.00000  Uiso   1.00
C772   C     0.61669   0.16766   0.83699   0.00000  Uiso   1.00
C773   C     0.90349   0.11960   0.80100   0.00000  Uiso   1.00
C774   C     0.59651   0.21373   0.86567   0.00000  Uiso   1.00
C775   C     0.95051   0.11951   0.80348   0.00000  Uiso   1.00
C776   C     0.54949   0.21382   0.86318   0.00000  Uiso   1.00
C777   C     0.97648   0.16675   0.83154   0.00000  Uiso   1.00
C778   C     0.52352   0.16659   0.83512   0.00000  Uiso   1.00
C779   C     0.95537   0.21405   0.85623   0.00000  Uiso   1.00
C780   C     0.54463   0.11929   0.81044   0.00000  Uiso   1.00
C781   C     0.97197   0.07264   0.78110   0.00000  Uiso   1.00
C782   C     0.52803   0.26069   0.88556   0.00000  Uiso   1.00
C783   C     0.51861   0.07165   0.78547   0.00000  Uiso   1.00
C784   C     0.98139   0.26169   0.88119   0.00000  Uiso   1.00
H785   H     0.89161   0.24626   0.87962   0.00000  Uiso   1.00
H786   H     0.60839   0.08707   0.78705   0.00000  Uiso   1.00
C787   C     0.74757   0.01041   0.80908   0.00000  Uiso   1.00
C788   C     0.75243   0.32292   0.85758   0.00000  Uiso   1.00
H789   H     0.74319   0.31947   0.76253   0.00000  Uiso   1.00
H790   H     0.75681   0.01387   0.90413   0.00000  Uiso   1.00
N791   N     0.73745   0.15214   0.67951   0.00000  Uiso   1.00
N792   N     0.76256   0.18119   0.98716   0.00000  Uiso   1.00
N793   N     0.87624   0.07266   0.77206   0.00000  Uiso   1.00
O794   O     0.87652   0.05302   0.71343   0.00000  Uiso   1.00
O795   O     0.85126   0.04939   0.80436   0.00000  Uiso   1.00
N796   N     0.62377   0.26068   0.89461   0.00000  Uiso   1.00
O797   O     0.62346   0.28033   0.95323   0.00000  Uiso   1.00
O798   O     0.64875   0.28393   0.86231   0.00000  Uiso   1.00
H799   H     0.95259   0.03575   0.76223   0.00000  Uiso   1.00
H800   H     0.54741   0.29758   0.90442   0.00000  Uiso   1.00
N801   N     0.53870   0.02157   0.76705   0.00000  Uiso   1.00
O802   O     0.52049   0.31880   0.72085   0.00000  Uiso   1.00
O803   O     0.56952   0.00820   0.80298   0.00000  Uiso   1.00
N804   N     0.96130   0.31176   0.89961   0.00000  Uiso   1.00
O805   O     0.97951   0.01454   0.94581   0.00000  Uiso   1.00
O806   O     0.93048   0.32514   0.86367   0.00000  Uiso   1.00
N807   N     0.69401   0.14133   0.98656   0.00000  Uiso   1.00
O808   O     0.68013   0.09246   0.96217   0.00000  Uiso   1.00
O809   O     0.66466   0.17708   0.99954   0.00000  Uiso   1.00
N810   N     0.80598   0.19202   0.68012   0.00000  Uiso   1.00
O811   O     0.81985   0.24089   0.70454   0.00000  Uiso   1.00
O812   O     0.83535   0.15629   0.66714   0.00000  Uiso   1.00
O813   O     0.25326   0.42871   0.87326   0.00000  Uiso   1.00
O814   O     0.24675   0.57129   0.79341   0.00000  Uiso   1.00
O815   O     0.24480   0.41892   0.76945   0.00000  Uiso   1.00
O816   O     0.25520   0.58108   0.89721   0.00000  Uiso   1.00
C817   C     0.24834   0.39993   0.81767   0.00000  Uiso   1.00
C818   C     0.25166   0.60007   0.84899   0.00000  Uiso   1.00
O819   O     0.18936   0.50488   0.88524   0.00000  Uiso   1.00
O820   O     0.31065   0.49512   0.78143   0.00000  Uiso   1.00
O821   O     0.18090   0.49510   0.78143   0.00000  Uiso   1.00
O822   O     0.31910   0.50490   0.88523   0.00000  Uiso   1.00
C823   C     0.16473   0.50047   0.83451   0.00000  Uiso   1.00
C824   C     0.33527   0.49953   0.83216   0.00000  Uiso   1.00
Cu825  Cu    0.25501   0.50579   0.89479   0.00000  Uiso   1.00
Cu826  Cu    0.24500   0.49421   0.77187   0.00000  Uiso   1.00
C827   C     0.40877   0.54539   0.85711   0.00000  Uiso   1.00
C828   C     0.09123   0.45461   0.80955   0.00000  Uiso   1.00
C829   C     0.38331   0.49901   0.82967   0.00000  Uiso   1.00
C830   C     0.11669   0.50099   0.83699   0.00000  Uiso   1.00
C831   C     0.40349   0.45293   0.80100   0.00000  Uiso   1.00
C832   C     0.09651   0.54707   0.86567   0.00000  Uiso   1.00
C833   C     0.45051   0.45285   0.80348   0.00000  Uiso   1.00
C834   C     0.04949   0.54716   0.86318   0.00000  Uiso   1.00
C835   C     0.47648   0.50008   0.83154   0.00000  Uiso   1.00
C836   C     0.02352   0.49992   0.83512   0.00000  Uiso   1.00
C837   C     0.45537   0.54738   0.85623   0.00000  Uiso   1.00
C838   C     0.04463   0.45262   0.81044   0.00000  Uiso   1.00
C839   C     0.47197   0.40598   0.78110   0.00000  Uiso   1.00
C840   C     0.02803   0.59403   0.88556   0.00000  Uiso   1.00
C841   C     0.01861   0.40498   0.78547   0.00000  Uiso   1.00
C842   C     0.48139   0.59502   0.88119   0.00000  Uiso   1.00
H843   H     0.39161   0.57959   0.87962   0.00000  Uiso   1.00
H844   H     0.10839   0.42041   0.78705   0.00000  Uiso   1.00
C845   C     0.24757   0.34375   0.80908   0.00000  Uiso   1.00
C846   C     0.25243   0.65625   0.85758   0.00000  Uiso   1.00
H847   H     0.24319   0.65280   0.76253   0.00000  Uiso   1.00
H848   H     0.25681   0.34720   0.90413   0.00000  Uiso   1.00
N849   N     0.23745   0.48547   0.67951   0.00000  Uiso   1.00
N850   N     0.26256   0.51453   0.98716   0.00000  Uiso   1.00
N851   N     0.37624   0.40599   0.77206   0.00000  Uiso   1.00
O852   O     0.37652   0.38635   0.71343   0.00000  Uiso   1.00
O853   O     0.35126   0.38273   0.80436   0.00000  Uiso   1.00
N854   N     0.12377   0.59401   0.89461   0.00000  Uiso   1.00
O855   O     0.12346   0.61367   0.95323   0.00000  Uiso   1.00
O856   O     0.14875   0.61727   0.86231   0.00000  Uiso   1.00
H857   H     0.45259   0.36908   0.76223   0.00000  Uiso   1.00
H858   H     0.04741   0.63092   0.90442   0.00000  Uiso   1.00
N859   N     0.03870   0.35491   0.76705   0.00000  Uiso   1.00
O860   O     0.02049   0.65213   0.72085   0.00000  Uiso   1.00
O861   O     0.06952   0.34153   0.80298   0.00000  Uiso   1.00
N862   N     0.46130   0.64509   0.89961   0.00000  Uiso   1.00
O863   O     0.47951   0.34787   0.94581   0.00000  Uiso   1.00
O864   O     0.43048   0.65847   0.86367   0.00000  Uiso   1.00
N865   N     0.19401   0.47466   0.98656   0.00000  Uiso   1.00
O866   O     0.18013   0.42580   0.96217   0.00000  Uiso   1.00
O867   O     0.16466   0.51042   0.99954   0.00000  Uiso   1.00
N868   N     0.30598   0.52536   0.68012   0.00000  Uiso   1.00
O869   O     0.31985   0.57423   0.70454   0.00000  Uiso   1.00
O870   O     0.33535   0.48963   0.66714   0.00000  Uiso   1.00
O871   O     0.75326   0.42871   0.87326   0.00000  Uiso   1.00
O872   O     0.74675   0.57129   0.79341   0.00000  Uiso   1.00
O873   O     0.74480   0.41892   0.76945   0.00000  Uiso   1.00
O874   O     0.75520   0.58108   0.89721   0.00000  Uiso   1.00
C875   C     0.74834   0.39993   0.81767   0.00000  Uiso   1.00
C876   C     0.75166   0.60007   0.84899   0.00000  Uiso   1.00
O877   O     0.68936   0.50488   0.88524   0.00000  Uiso   1.00
O878   O     0.81065   0.49512   0.78143   0.00000  Uiso   1.00
O879   O     0.68090   0.49510   0.78143   0.00000  Uiso   1.00
O880   O     0.81910   0.50490   0.88523   0.00000  Uiso   1.00
C881   C     0.66473   0.50047   0.83451   0.00000  Uiso   1.00
C882   C     0.83527   0.49953   0.83216   0.00000  Uiso   1.00
Cu883  Cu    0.75501   0.50579   0.89479   0.00000  Uiso   1.00
Cu884  Cu    0.74500   0.49421   0.77187   0.00000  Uiso   1.00
C885   C     0.90877   0.54539   0.85711   0.00000  Uiso   1.00
C886   C     0.59123   0.45461   0.80955   0.00000  Uiso   1.00
C887   C     0.88331   0.49901   0.82967   0.00000  Uiso   1.00
C888   C     0.61669   0.50099   0.83699   0.00000  Uiso   1.00
C889   C     0.90349   0.45293   0.80100   0.00000  Uiso   1.00
C890   C     0.59651   0.54707   0.86567   0.00000  Uiso   1.00
C891   C     0.95051   0.45285   0.80348   0.00000  Uiso   1.00
C892   C     0.54949   0.54716   0.86318   0.00000  Uiso   1.00
C893   C     0.97648   0.50008   0.83154   0.00000  Uiso   1.00
C894   C     0.52352   0.49992   0.83512   0.00000  Uiso   1.00
C895   C     0.95537   0.54738   0.85623   0.00000  Uiso   1.00
C896   C     0.54463   0.45262   0.81044   0.00000  Uiso   1.00
C897   C     0.97197   0.40598   0.78110   0.00000  Uiso   1.00
C898   C     0.52803   0.59403   0.88556   0.00000  Uiso   1.00
C899   C     0.51861   0.40498   0.78547   0.00000  Uiso   1.00
C900   C     0.98139   0.59502   0.88119   0.00000  Uiso   1.00
H901   H     0.89161   0.57959   0.87962   0.00000  Uiso   1.00
H902   H     0.60839   0.42041   0.78705   0.00000  Uiso   1.00
C903   C     0.74757   0.34375   0.80908   0.00000  Uiso   1.00
C904   C     0.75243   0.65625   0.85758   0.00000  Uiso   1.00
H905   H     0.74319   0.65280   0.76253   0.00000  Uiso   1.00
H906   H     0.75681   0.34720   0.90413   0.00000  Uiso   1.00
N907   N     0.73745   0.48547   0.67951   0.00000  Uiso   1.00
N908   N     0.76256   0.51453   0.98716   0.00000  Uiso   1.00
N909   N     0.87624   0.40599   0.77206   0.00000  Uiso   1.00
O910   O     0.87652   0.38635   0.71343   0.00000  Uiso   1.00
O911   O     0.85126   0.38273   0.80436   0.00000  Uiso   1.00
N912   N     0.62377   0.59401   0.89461   0.00000  Uiso   1.00
O913   O     0.62346   0.61367   0.95323   0.00000  Uiso   1.00
O914   O     0.64875   0.61727   0.86231   0.00000  Uiso   1.00
H915   H     0.95259   0.36908   0.76223   0.00000  Uiso   1.00
H916   H     0.54741   0.63092   0.90442   0.00000  Uiso   1.00
N917   N     0.53870   0.35491   0.76705   0.00000  Uiso   1.00
O918   O     0.52049   0.65213   0.72085   0.00000  Uiso   1.00
O919   O     0.56952   0.34153   0.80298   0.00000  Uiso   1.00
N920   N     0.96130   0.64509   0.89961   0.00000  Uiso   1.00
O921   O     0.97951   0.34787   0.94581   0.00000  Uiso   1.00
O922   O     0.93048   0.65847   0.86367   0.00000  Uiso   1.00
N923   N     0.69401   0.47466   0.98656   0.00000  Uiso   1.00
O924   O     0.68013   0.42580   0.96217   0.00000  Uiso   1.00
O925   O     0.66466   0.51042   0.99954   0.00000  Uiso   1.00
N926   N     0.80598   0.52536   0.68012   0.00000  Uiso   1.00
O927   O     0.81985   0.57423   0.70454   0.00000  Uiso   1.00
O928   O     0.83535   0.48963   0.66714   0.00000  Uiso   1.00
O929   O     0.25326   0.76204   0.87326   0.00000  Uiso   1.00
O930   O     0.24675   0.90462   0.79341   0.00000  Uiso   1.00
O931   O     0.24480   0.75226   0.76945   0.00000  Uiso   1.00
O932   O     0.25520   0.91441   0.89721   0.00000  Uiso   1.00
C933   C     0.24834   0.73326   0.81767   0.00000  Uiso   1.00
C934   C     0.25166   0.93340   0.84899   0.00000  Uiso   1.00
O935   O     0.18936   0.83821   0.88524   0.00000  Uiso   1.00
O936   O     0.31065   0.82845   0.78143   0.00000  Uiso   1.00
O937   O     0.18090   0.82843   0.78143   0.00000  Uiso   1.00
O938   O     0.31910   0.83824   0.88523   0.00000  Uiso   1.00
C939   C     0.16473   0.83380   0.83451   0.00000  Uiso   1.00
C940   C     0.33527   0.83287   0.83216   0.00000  Uiso   1.00
Cu941  Cu    0.25501   0.83913   0.89479   0.00000  Uiso   1.00
Cu942  Cu    0.24500   0.82754   0.77187   0.00000  Uiso   1.00
C943   C     0.40877   0.87872   0.85711   0.00000  Uiso   1.00
C944   C     0.09123   0.78795   0.80955   0.00000  Uiso   1.00
C945   C     0.38331   0.83234   0.82967   0.00000  Uiso   1.00
C946   C     0.11669   0.83432   0.83699   0.00000  Uiso   1.00
C947   C     0.40349   0.78627   0.80100   0.00000  Uiso   1.00
C948   C     0.09651   0.88040   0.86567   0.00000  Uiso   1.00
C949   C     0.45051   0.78618   0.80348   0.00000  Uiso   1.00
C950   C     0.04949   0.88049   0.86318   0.00000  Uiso   1.00
C951   C     0.47648   0.83341   0.83154   0.00000  Uiso   1.00
C952   C     0.02352   0.83326   0.83512   0.00000  Uiso   1.00
C953   C     0.45537   0.88072   0.85623   0.00000  Uiso   1.00
C954   C     0.04463   0.78595   0.81044   0.00000  Uiso   1.00
C955   C     0.47197   0.73931   0.78110   0.00000  Uiso   1.00
C956   C     0.02803   0.92736   0.88556   0.00000  Uiso   1.00
C957   C     0.01861   0.73831   0.78547   0.00000  Uiso   1.00
C958   C     0.48139   0.92836   0.88119   0.00000  Uiso   1.00
H959   H     0.39161   0.91293   0.87962   0.00000  Uiso   1.00
H960   H     0.10839   0.75374   0.78705   0.00000  Uiso   1.00
C961   C     0.24757   0.67708   0.80908   0.00000  Uiso   1.00
C962   C     0.25243   0.98959   0.85758   0.00000  Uiso   1.00
H963   H     0.24319   0.98613   0.76253   0.00000  Uiso   1.00
H964   H     0.25681   0.68053   0.90413   0.00000  Uiso   1.00
N965   N     0.23745   0.81881   0.67951   0.00000  Uiso   1.00
N966   N     0.26256   0.84786   0.98716   0.00000  Uiso   1.00
N967   N     0.37624   0.73932   0.77206   0.00000  Uiso   1.00
O968   O     0.37652   0.71968   0.71343   0.00000  Uiso   1.00
O969   O     0.35126   0.71606   0.80436   0.00000  Uiso   1.00
N970   N     0.12377   0.92734   0.89461   0.00000  Uiso   1.00
O971   O     0.12346   0.94700   0.95323   0.00000  Uiso   1.00
O972   O     0.14875   0.95060   0.86231   0.00000  Uiso   1.00
H973   H     0.45259   0.70242   0.76223   0.00000  Uiso   1.00
H974   H     0.04741   0.96425   0.90442   0.00000  Uiso   1.00
N975   N     0.03870   0.68824   0.76705   0.00000  Uiso   1.00
O976   O     0.02049   0.98547   0.72085   0.00000  Uiso   1.00
O977   O     0.06952   0.67486   0.80298   0.00000  Uiso   1.00
N978   N     0.46130   0.97843   0.89961   0.00000  Uiso   1.00
O979   O     0.47951   0.68120   0.94581   0.00000  Uiso   1.00
O980   O     0.43048   0.99180   0.86367   0.00000  Uiso   1.00
N981   N     0.19401   0.80800   0.98656   0.00000  Uiso   1.00
O982   O     0.18013   0.75913   0.96217   0.00000  Uiso   1.00
O983   O     0.16466   0.84375   0.99954   0.00000  Uiso   1.00
N984   N     0.30598   0.85869   0.68012   0.00000  Uiso   1.00
O985   O     0.31985   0.90756   0.70454   0.00000  Uiso   1.00
O986   O     0.33535   0.82296   0.66714   0.00000  Uiso   1.00
O987   O     0.75326   0.76204   0.87326   0.00000  Uiso   1.00
O988   O     0.74675   0.90462   0.79341   0.00000  Uiso   1.00
O989   O     0.74480   0.75226   0.76945   0.00000  Uiso   1.00
O990   O     0.75520   0.91441   0.89721   0.00000  Uiso   1.00
C991   C     0.74834   0.73326   0.81767   0.00000  Uiso   1.00
C992   C     0.75166   0.93340   0.84899   0.00000  Uiso   1.00
O993   O     0.68936   0.83821   0.88524   0.00000  Uiso   1.00
O994   O     0.81065   0.82845   0.78143   0.00000  Uiso   1.00
O995   O     0.68090   0.82843   0.78143   0.00000  Uiso   1.00
O996   O     0.81910   0.83824   0.88523   0.00000  Uiso   1.00
C997   C     0.66473   0.83380   0.83451   0.00000  Uiso   1.00
C998   C     0.83527   0.83287   0.83216   0.00000  Uiso   1.00
Cu999  Cu    0.75501   0.83913   0.89479   0.00000  Uiso   1.00
Cu1000 Cu    0.74500   0.82754   0.77187   0.00000  Uiso   1.00
C1001  C     0.90877   0.87872   0.85711   0.00000  Uiso   1.00
C1002  C     0.59123   0.78795   0.80955   0.00000  Uiso   1.00
C1003  C     0.88331   0.83234   0.82967   0.00000  Uiso   1.00
C1004  C     0.61669   0.83432   0.83699   0.00000  Uiso   1.00
C1005  C     0.90349   0.78627   0.80100   0.00000  Uiso   1.00
C1006  C     0.59651   0.88040   0.86567   0.00000  Uiso   1.00
C1007  C     0.95051   0.78618   0.80348   0.00000  Uiso   1.00
C1008  C     0.54949   0.88049   0.86318   0.00000  Uiso   1.00
C1009  C     0.97648   0.83341   0.83154   0.00000  Uiso   1.00
C1010  C     0.52352   0.83326   0.83512   0.00000  Uiso   1.00
C1011  C     0.95537   0.88072   0.85623   0.00000  Uiso   1.00
C1012  C     0.54463   0.78595   0.81044   0.00000  Uiso   1.00
C1013  C     0.97197   0.73931   0.78110   0.00000  Uiso   1.00
C1014  C     0.52803   0.92736   0.88556   0.00000  Uiso   1.00
C1015  C     0.51861   0.73831   0.78547   0.00000  Uiso   1.00
C1016  C     0.98139   0.92836   0.88119   0.00000  Uiso   1.00
H1017  H     0.89161   0.91293   0.87962   0.00000  Uiso   1.00
H1018  H     0.60839   0.75374   0.78705   0.00000  Uiso   1.00
C1019  C     0.74757   0.67708   0.80908   0.00000  Uiso   1.00
C1020  C     0.75243   0.98959   0.85758   0.00000  Uiso   1.00
H1021  H     0.74319   0.98613   0.76253   0.00000  Uiso   1.00
H1022  H     0.75681   0.68053   0.90413   0.00000  Uiso   1.00
N1023  N     0.73745   0.81881   0.67951   0.00000  Uiso   1.00
N1024  N     0.76256   0.84786   0.98716   0.00000  Uiso   1.00
N1025  N     0.87624   0.73932   0.77206   0.00000  Uiso   1.00
O1026  O     0.87652   0.71968   0.71343   0.00000  Uiso   1.00
O1027  O     0.85126   0.71606   0.80436   0.00000  Uiso   1.00
N1028  N     0.62377   0.92734   0.89461   0.00000  Uiso   1.00
O1029  O     0.62346   0.94700   0.95323   0.00000  Uiso   1.00
O1030  O     0.64875   0.95060   0.86231   0.00000  Uiso   1.00
H1031  H     0.95259   0.70242   0.76223   0.00000  Uiso   1.00
H1032  H     0.54741   0.96425   0.90442   0.00000  Uiso   1.00
N1033  N     0.53870   0.68824   0.76705   0.00000  Uiso   1.00
O1034  O     0.52049   0.98547   0.72085   0.00000  Uiso   1.00
O1035  O     0.56952   0.67486   0.80298   0.00000  Uiso   1.00
N1036  N     0.96130   0.97843   0.89961   0.00000  Uiso   1.00
O1037  O     0.97951   0.68120   0.94581   0.00000  Uiso   1.00
O1038  O     0.93048   0.99180   0.86367   0.00000  Uiso   1.00
N1039  N     0.69401   0.80800   0.98656   0.00000  Uiso   1.00
O1040  O     0.68013   0.75913   0.96217   0.00000  Uiso   1.00
O1041  O     0.66466   0.84375   0.99954   0.00000  Uiso   1.00
N1042  N     0.80598   0.85869   0.68012   0.00000  Uiso   1.00
O1043  O     0.81985   0.90756   0.70454   0.00000  Uiso   1.00
O1044  O     0.83535   0.82296   0.66714   0.00000  Uiso   1.00
loop_
_geom_bond_atom_site_label_1
_geom_bond_atom_site_label_2
_geom_bond_distance
_geom_bond_site_symmetry_2
_ccdc_geom_bond_type
O1     C5      1.296   .     A
O1     Cu13    1.947   .     S
O2     C6      1.296   .     A
O2     Cu14    1.947   .     S
O3     Cu14    1.946   .     S
O3     C5      1.295   .     A
O4     C6      1.295   .     A
O4     Cu13    1.946   .     S
C5     C33     1.428   .     S
C6     C34     1.428   .     S
O7     Cu13    1.962   .     S
O7     C11     1.300   .     A
O8     C12     1.300   .     A
O8     Cu14    1.962   .     S
O9     C11     1.298   .     A
O9     Cu14    1.945   .     S
O10    C12     1.298   .     A
O10    Cu13    1.945   .     S
C11    C18     1.444   .     S
C12    C17     1.444   .     S
Cu13   Cu14    2.711   .     S
Cu13   N38     2.037   .     S
Cu14   N37     2.037   .     S
C15    H31     1.083   .     S
C15    C25     1.395   .     A
C15    C17     1.391   .     A
C16    C26     1.395   .     A
C16    C18     1.391   .     A
C16    H32     1.083   .     S
C17    C19     1.402   .     A
C18    C20     1.402   .     A
C19    N39     1.435   .     S
C19    C21     1.406   .     A
C20    N42     1.435   .     S
C20    C22     1.406   .     A
C21    C27     1.404   .     A
C21    C23     1.418   .     A
C22    C28     1.404   .     A
C22    C24     1.418   .     A
C23    C25     1.418   .     A
C23    C82     1.406   .     S
C24    C26     1.418   .     A
C24    C81     1.406   1_455 S
C25    C30     1.414   .     A
C26    C29     1.414   .     A
C27    H45     1.082   .     S
C27    C87     1.395   .     S
C28    H46     1.082   .     S
C28    C88     1.395   1_455 S
C29    N47     1.440   .     S
C29    C85     1.395   1_455 S
C30    N50     1.440   .     S
C30    C86     1.395   .     S
C33    C266    1.331   1_545 S
C33    H267    1.088   1_545 S
C34    C149    1.331   .     S
C34    H152    1.088   .     S
H35    C149    1.088   .     S
H36    C266    1.088   1_545 S
N37    N734    1.297   1_554 S
N37    N749    1.384   1_554 S
N38    N385    1.297   .     S
N38    N404    1.384   .     S
N39    O40     1.301   .     A
N39    O41     1.300   .     A
N42    O44     1.300   .     A
N42    O43     1.301   .     A
N47    O49     1.301   .     A
N47    O280    1.301   1_545 S
O48    N163    1.301   .     S
N50    O52     1.301   .     A
N50    O167    1.301   .     S
O51    N282    1.301   1_545 S
N53    O54     1.301   .     A
N53    O55     1.302   .     A
N53    N385    1.384   .     S
N56    O58     1.302   .     A
N56    O57     1.301   .     A
N56    N734    1.384   1_554 S
O59    C63     1.296   .     A
O59    Cu71    1.947   .     S
O60    C64     1.296   .     A
O60    Cu72    1.947   .     S
O61    Cu72    1.946   .     S
O61    C63     1.295   .     A
O62    C64     1.295   .     A
O62    Cu71    1.946   .     S
C63    C91     1.428   .     S
C64    C92     1.428   .     S
O65    Cu71    1.962   .     S
O65    C69     1.300   .     A
O66    C70     1.300   .     A
O66    Cu72    1.962   .     S
O67    C69     1.298   .     A
O67    Cu72    1.945   .     S
O68    C70     1.298   .     A
O68    Cu71    1.945   .     S
C69    C76     1.444   .     S
C70    C75     1.444   .     S
Cu71   Cu72    2.711   .     S
Cu71   N96     2.037   .     S
Cu72   N95     2.037   .     S
C73    H89     1.083   .     S
C73    C83     1.395   .     A
C73    C75     1.391   .     A
C74    C84     1.395   .     A
C74    C76     1.391   .     A
C74    H90     1.083   .     S
C75    C77     1.402   .     A
C76    C78     1.402   .     A
C77    N97     1.435   .     S
C77    C79     1.406   .     A
C78    N100    1.435   .     S
C78    C80     1.406   .     A
C79    C85     1.404   .     A
C79    C81     1.418   .     A
C80    C86     1.404   .     A
C80    C82     1.418   .     A
C81    C83     1.418   .     A
C81    C24     1.406   1_655 S
C82    C84     1.418   .     A
C83    C88     1.414   .     A
C84    C87     1.414   .     A
C85    H103    1.082   .     S
C85    C29     1.395   1_655 S
C86    H104    1.082   .     S
C87    N105    1.440   .     S
C88    N108    1.440   .     S
C88    C28     1.395   1_655 S
C91    C324    1.331   1_545 S
C91    H325    1.088   1_545 S
C92    C207    1.331   .     S
C92    H210    1.088   .     S
H93    C207    1.088   .     S
H94    C324    1.088   1_545 S
N95    N792    1.297   1_554 S
N95    N807    1.384   1_554 S
N96    N443    1.297   .     S
N96    N462    1.384   .     S
N97    O98     1.301   .     A
N97    O99     1.300   .     A
N100   O102    1.300   .     A
N100   O101    1.301   .     A
N105   O107    1.301   .     A
N105   O338    1.301   1_545 S
O106   N221    1.301   .     S
N108   O110    1.301   .     A
N108   O225    1.301   .     S
O109   N340    1.301   1_545 S
N111   O112    1.301   .     A
N111   O113    1.302   .     A
N111   N443    1.384   .     S
N114   O116    1.302   .     A
N114   O115    1.301   .     A
N114   N792    1.384   1_554 S
O117   C121    1.296   .     A
O117   Cu129   1.947   .     S
O118   C122    1.296   .     A
O118   Cu130   1.947   .     S
O119   Cu130   1.946   .     S
O119   C121    1.295   .     A
O120   C122    1.295   .     A
O120   Cu129   1.946   .     S
C121   C149    1.428   .     S
C122   C150    1.428   .     S
O123   Cu129   1.962   .     S
O123   C127    1.300   .     A
O124   C128    1.300   .     A
O124   Cu130   1.962   .     S
O125   C127    1.298   .     A
O125   Cu130   1.945   .     S
O126   C128    1.298   .     A
O126   Cu129   1.945   .     S
C127   C134    1.444   .     S
C128   C133    1.444   .     S
Cu129  Cu130   2.711   .     S
Cu129  N154    2.037   .     S
Cu130  N153    2.037   .     S
C131   H147    1.083   .     S
C131   C141    1.395   .     A
C131   C133    1.391   .     A
C132   C142    1.395   .     A
C132   C134    1.391   .     A
C132   H148    1.083   .     S
C133   C135    1.402   .     A
C134   C136    1.402   .     A
C135   N155    1.435   .     S
C135   C137    1.406   .     A
C136   N158    1.435   .     S
C136   C138    1.406   .     A
C137   C143    1.404   .     A
C137   C139    1.418   .     A
C138   C144    1.404   .     A
C138   C140    1.418   .     A
C139   C141    1.418   .     A
C139   C198    1.406   .     S
C140   C142    1.418   .     A
C140   C197    1.406   1_455 S
C141   C146    1.414   .     A
C142   C145    1.414   .     A
C143   H161    1.082   .     S
C143   C203    1.395   .     S
C144   H162    1.082   .     S
C144   C204    1.395   1_455 S
C145   N163    1.440   .     S
C145   C201    1.395   1_455 S
C146   N166    1.440   .     S
C146   C202    1.395   .     S
C150   C265    1.331   .     S
C150   H268    1.088   .     S
H151   C265    1.088   .     S
N153   N850    1.297   1_554 S
N153   N865    1.384   1_554 S
N154   N501    1.297   .     S
N154   N520    1.384   .     S
N155   O156    1.301   .     A
N155   O157    1.300   .     A
N158   O160    1.300   .     A
N158   O159    1.301   .     A
N163   O165    1.301   .     A
O164   N279    1.301   .     S
N166   O168    1.301   .     A
N166   O283    1.301   .     S
N169   O170    1.301   .     A
N169   O171    1.302   .     A
N169   N501    1.384   .     S
N172   O174    1.302   .     A
N172   O173    1.301   .     A
N172   N850    1.384   1_554 S
O175   C179    1.296   .     A
O175   Cu187   1.947   .     S
O176   C180    1.296   .     A
O176   Cu188   1.947   .     S
O177   Cu188   1.946   .     S
O177   C179    1.295   .     A
O178   C180    1.295   .     A
O178   Cu187   1.946   .     S
C179   C207    1.428   .     S
C180   C208    1.428   .     S
O181   Cu187   1.962   .     S
O181   C185    1.300   .     A
O182   C186    1.300   .     A
O182   Cu188   1.962   .     S
O183   C185    1.298   .     A
O183   Cu188   1.945   .     S
O184   C186    1.298   .     A
O184   Cu187   1.945   .     S
C185   C192    1.444   .     S
C186   C191    1.444   .     S
Cu187  Cu188   2.711   .     S
Cu187  N212    2.037   .     S
Cu188  N211    2.037   .     S
C189   H205    1.083   .     S
C189   C199    1.395   .     A
C189   C191    1.391   .     A
C190   C200    1.395   .     A
C190   C192    1.391   .     A
C190   H206    1.083   .     S
C191   C193    1.402   .     A
C192   C194    1.402   .     A
C193   N213    1.435   .     S
C193   C195    1.406   .     A
C194   N216    1.435   .     S
C194   C196    1.406   .     A
C195   C201    1.404   .     A
C195   C197    1.418   .     A
C196   C202    1.404   .     A
C196   C198    1.418   .     A
C197   C199    1.418   .     A
C197   C140    1.406   1_655 S
C198   C200    1.418   .     A
C199   C204    1.414   .     A
C200   C203    1.414   .     A
C201   H219    1.082   .     S
C201   C145    1.395   1_655 S
C202   H220    1.082   .     S
C203   N221    1.440   .     S
C204   N224    1.440   .     S
C204   C144    1.395   1_655 S
C208   C323    1.331   .     S
C208   H326    1.088   .     S
H209   C323    1.088   .     S
N211   N908    1.297   1_554 S
N211   N923    1.384   1_554 S
N212   N559    1.297   .     S
N212   N578    1.384   .     S
N213   O214    1.301   .     A
N213   O215    1.300   .     A
N216   O218    1.300   .     A
N216   O217    1.301   .     A
N221   O223    1.301   .     A
O222   N337    1.301   .     S
N224   O226    1.301   .     A
N224   O341    1.301   .     S
N227   O228    1.301   .     A
N227   O229    1.302   .     A
N227   N559    1.384   .     S
N230   O232    1.302   .     A
N230   O231    1.301   .     A
N230   N908    1.384   1_554 S
O233   C237    1.296   .     A
O233   Cu245   1.947   .     S
O234   C238    1.296   .     A
O234   Cu246   1.947   .     S
O235   Cu246   1.946   .     S
O235   C237    1.295   .     A
O236   C238    1.295   .     A
O236   Cu245   1.946   .     S
C237   C265    1.428   .     S
C238   C266    1.428   .     S
O239   Cu245   1.962   .     S
O239   C243    1.300   .     A
O240   C244    1.300   .     A
O240   Cu246   1.962   .     S
O241   C243    1.298   .     A
O241   Cu246   1.945   .     S
O242   C244    1.298   .     A
O242   Cu245   1.945   .     S
C243   C250    1.444   .     S
C244   C249    1.444   .     S
Cu245  Cu246   2.711   .     S
Cu245  N270    2.037   .     S
Cu246  N269    2.037   .     S
C247   H263    1.083   .     S
C247   C257    1.395   .     A
C247   C249    1.391   .     A
C248   C258    1.395   .     A
C248   C250    1.391   .     A
C248   H264    1.083   .     S
C249   C251    1.402   .     A
C250   C252    1.402   .     A
C251   N271    1.435   .     S
C251   C253    1.406   .     A
C252   N274    1.435   .     S
C252   C254    1.406   .     A
C253   C259    1.404   .     A
C253   C255    1.418   .     A
C254   C260    1.404   .     A
C254   C256    1.418   .     A
C255   C257    1.418   .     A
C255   C314    1.406   .     S
C256   C258    1.418   .     A
C256   C313    1.406   1_455 S
C257   C262    1.414   .     A
C258   C261    1.414   .     A
C259   H277    1.082   .     S
C259   C319    1.395   .     S
C260   H278    1.082   .     S
C260   C320    1.395   1_455 S
C261   N279    1.440   .     S
C261   C317    1.395   1_455 S
C262   N282    1.440   .     S
C262   C318    1.395   .     S
C266   C33     1.331   1_565 S
C266   H36     1.088   1_565 S
H267   C33     1.088   1_565 S
N269   N966    1.297   1_554 S
N269   N981    1.384   1_554 S
N270   N617    1.297   .     S
N270   N636    1.384   .     S
N271   O272    1.301   .     A
N271   O273    1.300   .     A
N274   O276    1.300   .     A
N274   O275    1.301   .     A
N279   O281    1.301   .     A
O280   N47     1.301   1_565 S
N282   O284    1.301   .     A
N282   O51     1.301   1_565 S
N285   O286    1.301   .     A
N285   O287    1.302   .     A
N285   N617    1.384   .     S
N288   O290    1.302   .     A
N288   O289    1.301   .     A
N288   N966    1.384   1_554 S
O291   C295    1.296   .     A
O291   Cu303   1.947   .     S
O292   C296    1.296   .     A
O292   Cu304   1.947   .     S
O293   Cu304   1.946   .     S
O293   C295    1.295   .     A
O294   C296    1.295   .     A
O294   Cu303   1.946   .     S
C295   C323    1.428   .     S
C296   C324    1.428   .     S
O297   Cu303   1.962   .     S
O297   C301    1.300   .     A
O298   C302    1.300   .     A
O298   Cu304   1.962   .     S
O299   C301    1.298   .     A
O299   Cu304   1.945   .     S
O300   C302    1.298   .     A
O300   Cu303   1.945   .     S
C301   C308    1.444   .     S
C302   C307    1.444   .     S
Cu303  Cu304   2.711   .     S
Cu303  N328    2.037   .     S
Cu304  N327    2.037   .     S
C305   H321    1.083   .     S
C305   C315    1.395   .     A
C305   C307    1.391   .     A
C306   C316    1.395   .     A
C306   C308    1.391   .     A
C306   H322    1.083   .     S
C307   C309    1.402   .     A
C308   C310    1.402   .     A
C309   N329    1.435   .     S
C309   C311    1.406   .     A
C310   N332    1.435   .     S
C310   C312    1.406   .     A
C311   C317    1.404   .     A
C311   C313    1.418   .     A
C312   C318    1.404   .     A
C312   C314    1.418   .     A
C313   C315    1.418   .     A
C313   C256    1.406   1_655 S
C314   C316    1.418   .     A
C315   C320    1.414   .     A
C316   C319    1.414   .     A
C317   H335    1.082   .     S
C317   C261    1.395   1_655 S
C318   H336    1.082   .     S
C319   N337    1.440   .     S
C320   N340    1.440   .     S
C320   C260    1.395   1_655 S
C324   C91     1.331   1_565 S
C324   H94     1.088   1_565 S
H325   C91     1.088   1_565 S
N327   N1024   1.297   1_554 S
N327   N1039   1.384   1_554 S
N328   N675    1.297   .     S
N328   N694    1.384   .     S
N329   O330    1.301   .     A
N329   O331    1.300   .     A
N332   O334    1.300   .     A
N332   O333    1.301   .     A
N337   O339    1.301   .     A
O338   N105    1.301   1_565 S
N340   O342    1.301   .     A
N340   O109    1.301   1_565 S
N343   O344    1.301   .     A
N343   O345    1.302   .     A
N343   N675    1.384   .     S
N346   O348    1.302   .     A
N346   O347    1.301   .     A
N346   N1024   1.384   1_554 S
O349   C353    1.296   .     A
O349   Cu361   1.947   .     S
O350   C354    1.296   .     A
O350   Cu362   1.947   .     S
O351   Cu362   1.946   .     S
O351   C353    1.295   .     A
O352   C354    1.295   .     A
O352   Cu361   1.946   .     S
C353   C381    1.428   .     S
C354   C382    1.428   .     S
O355   Cu361   1.962   .     S
O355   C359    1.300   .     A
O356   C360    1.300   .     A
O356   Cu362   1.962   .     S
O357   C359    1.298   .     A
O357   Cu362   1.945   .     S
O358   C360    1.298   .     A
O358   Cu361   1.945   .     S
C359   C366    1.444   .     S
C360   C365    1.444   .     S
Cu361  Cu362   2.711   .     S
Cu361  N386    2.037   .     S
Cu362  N385    2.037   .     S
C363   H379    1.083   .     S
C363   C373    1.395   .     A
C363   C365    1.391   .     A
C364   C374    1.395   .     A
C364   C366    1.391   .     A
C364   H380    1.083   .     S
C365   C367    1.402   .     A
C366   C368    1.402   .     A
C367   N387    1.435   .     S
C367   C369    1.406   .     A
C368   N390    1.435   .     S
C368   C370    1.406   .     A
C369   C375    1.404   .     A
C369   C371    1.418   .     A
C370   C376    1.404   .     A
C370   C372    1.418   .     A
C371   C373    1.418   .     A
C371   C430    1.406   .     S
C372   C374    1.418   .     A
C372   C429    1.406   1_455 S
C373   C378    1.414   .     A
C374   C377    1.414   .     A
C375   H393    1.082   .     S
C375   C435    1.395   .     S
C376   H394    1.082   .     S
C376   C436    1.395   1_455 S
C377   N395    1.440   .     S
C377   C433    1.395   1_455 S
C378   N398    1.440   .     S
C378   C434    1.395   .     S
C381   C614    1.331   1_545 S
C381   H615    1.088   1_545 S
C382   C497    1.331   .     S
C382   H500    1.088   .     S
H383   C497    1.088   .     S
H384   C614    1.088   1_545 S
N386   N733    1.297   .     S
N386   N752    1.384   .     S
N387   O388    1.301   .     A
N387   O389    1.300   .     A
N390   O392    1.300   .     A
N390   O391    1.301   .     A
N395   O397    1.301   .     A
N395   O628    1.301   1_545 S
O396   N511    1.301   .     S
N398   O400    1.301   .     A
N398   O515    1.301   .     S
O399   N630    1.301   1_545 S
N401   O402    1.301   .     A
N401   O403    1.302   .     A
N401   N733    1.384   .     S
N404   O406    1.302   .     A
N404   O405    1.301   .     A
O407   C411    1.296   .     A
O407   Cu419   1.947   .     S
O408   C412    1.296   .     A
O408   Cu420   1.947   .     S
O409   Cu420   1.946   .     S
O409   C411    1.295   .     A
O410   C412    1.295   .     A
O410   Cu419   1.946   .     S
C411   C439    1.428   .     S
C412   C440    1.428   .     S
O413   Cu419   1.962   .     S
O413   C417    1.300   .     A
O414   C418    1.300   .     A
O414   Cu420   1.962   .     S
O415   C417    1.298   .     A
O415   Cu420   1.945   .     S
O416   C418    1.298   .     A
O416   Cu419   1.945   .     S
C417   C424    1.444   .     S
C418   C423    1.444   .     S
Cu419  Cu420   2.711   .     S
Cu419  N444    2.037   .     S
Cu420  N443    2.037   .     S
C421   H437    1.083   .     S
C421   C431    1.395   .     A
C421   C423    1.391   .     A
C422   C432    1.395   .     A
C422   C424    1.391   .     A
C422   H438    1.083   .     S
C423   C425    1.402   .     A
C424   C426    1.402   .     A
C425   N445    1.435   .     S
C425   C427    1.406   .     A
C426   N448    1.435   .     S
C426   C428    1.406   .     A
C427   C433    1.404   .     A
C427   C429    1.418   .     A
C428   C434    1.404   .     A
C428   C430    1.418   .     A
C429   C431    1.418   .     A
C429   C372    1.406   1_655 S
C430   C432    1.418   .     A
C431   C436    1.414   .     A
C432   C435    1.414   .     A
C433   H451    1.082   .     S
C433   C377    1.395   1_655 S
C434   H452    1.082   .     S
C435   N453    1.440   .     S
C436   N456    1.440   .     S
C436   C376    1.395   1_655 S
C439   C672    1.331   1_545 S
C439   H673    1.088   1_545 S
C440   C555    1.331   .     S
C440   H558    1.088   .     S
H441   C555    1.088   .     S
H442   C672    1.088   1_545 S
N444   N791    1.297   .     S
N444   N810    1.384   .     S
N445   O446    1.301   .     A
N445   O447    1.300   .     A
N448   O450    1.300   .     A
N448   O449    1.301   .     A
N453   O455    1.301   .     A
N453   O686    1.301   1_545 S
O454   N569    1.301   .     S
N456   O458    1.301   .     A
N456   O573    1.301   .     S
O457   N688    1.301   1_545 S
N459   O460    1.301   .     A
N459   O461    1.302   .     A
N459   N791    1.384   .     S
N462   O464    1.302   .     A
N462   O463    1.301   .     A
O465   C469    1.296   .     A
O465   Cu477   1.947   .     S
O466   C470    1.296   .     A
O466   Cu478   1.947   .     S
O467   Cu478   1.946   .     S
O467   C469    1.295   .     A
O468   C470    1.295   .     A
O468   Cu477   1.946   .     S
C469   C497    1.428   .     S
C470   C498    1.428   .     S
O471   Cu477   1.962   .     S
O471   C475    1.300   .     A
O472   C476    1.300   .     A
O472   Cu478   1.962   .     S
O473   C475    1.298   .     A
O473   Cu478   1.945   .     S
O474   C476    1.298   .     A
O474   Cu477   1.945   .     S
C475   C482    1.444   .     S
C476   C481    1.444   .     S
Cu477  Cu478   2.711   .     S
Cu477  N502    2.037   .     S
Cu478  N501    2.037   .     S
C479   H495    1.083   .     S
C479   C489    1.395   .     A
C479   C481    1.391   .     A
C480   C490    1.395   .     A
C480   C482    1.391   .     A
C480   H496    1.083   .     S
C481   C483    1.402   .     A
C482   C484    1.402   .     A
C483   N503    1.435   .     S
C483   C485    1.406   .     A
C484   N506    1.435   .     S
C484   C486    1.406   .     A
C485   C491    1.404   .     A
C485   C487    1.418   .     A
C486   C492    1.404   .     A
C486   C488    1.418   .     A
C487   C489    1.418   .     A
C487   C546    1.406   .     S
C488   C490    1.418   .     A
C488   C545    1.406   1_455 S
C489   C494    1.414   .     A
C490   C493    1.414   .     A
C491   H509    1.082   .     S
C491   C551    1.395   .     S
C492   H510    1.082   .     S
C492   C552    1.395   1_455 S
C493   N511    1.440   .     S
C493   C549    1.395   1_455 S
C494   N514    1.440   .     S
C494   C550    1.395   .     S
C498   C613    1.331   .     S
C498   H616    1.088   .     S
H499   C613    1.088   .     S
N502   N849    1.297   .     S
N502   N868    1.384   .     S
N503   O504    1.301   .     A
N503   O505    1.300   .     A
N506   O508    1.300   .     A
N506   O507    1.301   .     A
N511   O513    1.301   .     A
O512   N627    1.301   .     S
N514   O516    1.301   .     A
N514   O631    1.301   .     S
N517   O518    1.301   .     A
N517   O519    1.302   .     A
N517   N849    1.384   .     S
N520   O522    1.302   .     A
N520   O521    1.301   .     A
O523   C527    1.296   .     A
O523   Cu535   1.947   .     S
O524   C528    1.296   .     A
O524   Cu536   1.947   .     S
O525   Cu536   1.946   .     S
O525   C527    1.295   .     A
O526   C528    1.295   .     A
O526   Cu535   1.946   .     S
C527   C555    1.428   .     S
C528   C556    1.428   .     S
O529   Cu535   1.962   .     S
O529   C533    1.300   .     A
O530   C534    1.300   .     A
O530   Cu536   1.962   .     S
O531   C533    1.298   .     A
O531   Cu536   1.945   .     S
O532   C534    1.298   .     A
O532   Cu535   1.945   .     S
C533   C540    1.444   .     S
C534   C539    1.444   .     S
Cu535  Cu536   2.711   .     S
Cu535  N560    2.037   .     S
Cu536  N559    2.037   .     S
C537   H553    1.083   .     S
C537   C547    1.395   .     A
C537   C539    1.391   .     A
C538   C548    1.395   .     A
C538   C540    1.391   .     A
C538   H554    1.083   .     S
C539   C541    1.402   .     A
C540   C542    1.402   .     A
C541   N561    1.435   .     S
C541   C543    1.406   .     A
C542   N564    1.435   .     S
C542   C544    1.406   .     A
C543   C549    1.404   .     A
C543   C545    1.418   .     A
C544   C550    1.404   .     A
C544   C546    1.418   .     A
C545   C547    1.418   .     A
C545   C488    1.406   1_655 S
C546   C548    1.418   .     A
C547   C552    1.414   .     A
C548   C551    1.414   .     A
C549   H567    1.082   .     S
C549   C493    1.395   1_655 S
C550   H568    1.082   .     S
C551   N569    1.440   .     S
C552   N572    1.440   .     S
C552   C492    1.395   1_655 S
C556   C671    1.331   .     S
C556   H674    1.088   .     S
H557   C671    1.088   .     S
N560   N907    1.297   .     S
N560   N926    1.384   .     S
N561   O562    1.301   .     A
N561   O563    1.300   .     A
N564   O566    1.300   .     A
N564   O565    1.301   .     A
N569   O571    1.301   .     A
O570   N685    1.301   .     S
N572   O574    1.301   .     A
N572   O689    1.301   .     S
N575   O576    1.301   .     A
N575   O577    1.302   .     A
N575   N907    1.384   .     S
N578   O580    1.302   .     A
N578   O579    1.301   .     A
O581   C585    1.296   .     A
O581   Cu593   1.947   .     S
O582   C586    1.296   .     A
O582   Cu594   1.947   .     S
O583   Cu594   1.946   .     S
O583   C585    1.295   .     A
O584   C586    1.295   .     A
O584   Cu593   1.946   .     S
C585   C613    1.428   .     S
C586   C614    1.428   .     S
O587   Cu593   1.962   .     S
O587   C591    1.300   .     A
O588   C592    1.300   .     A
O588   Cu594   1.962   .     S
O589   C591    1.298   .     A
O589   Cu594   1.945   .     S
O590   C592    1.298   .     A
O590   Cu593   1.945   .     S
C591   C598    1.444   .     S
C592   C597    1.444   .     S
Cu593  Cu594   2.711   .     S
Cu593  N618    2.037   .     S
Cu594  N617    2.037   .     S
C595   H611    1.083   .     S
C595   C605    1.395   .     A
C595   C597    1.391   .     A
C596   C606    1.395   .     A
C596   C598    1.391   .     A
C596   H612    1.083   .     S
C597   C599    1.402   .     A
C598   C600    1.402   .     A
C599   N619    1.435   .     S
C599   C601    1.406   .     A
C600   N622    1.435   .     S
C600   C602    1.406   .     A
C601   C607    1.404   .     A
C601   C603    1.418   .     A
C602   C608    1.404   .     A
C602   C604    1.418   .     A
C603   C605    1.418   .     A
C603   C662    1.406   .     S
C604   C606    1.418   .     A
C604   C661    1.406   1_455 S
C605   C610    1.414   .     A
C606   C609    1.414   .     A
C607   H625    1.082   .     S
C607   C667    1.395   .     S
C608   H626    1.082   .     S
C608   C668    1.395   1_455 S
C609   N627    1.440   .     S
C609   C665    1.395   1_455 S
C610   N630    1.440   .     S
C610   C666    1.395   .     S
C614   C381    1.331   1_565 S
C614   H384    1.088   1_565 S
H615   C381    1.088   1_565 S
N618   N965    1.297   .     S
N618   N984    1.384   .     S
N619   O620    1.301   .     A
N619   O621    1.300   .     A
N622   O624    1.300   .     A
N622   O623    1.301   .     A
N627   O629    1.301   .     A
O628   N395    1.301   1_565 S
N630   O632    1.301   .     A
N630   O399    1.301   1_565 S
N633   O634    1.301   .     A
N633   O635    1.302   .     A
N633   N965    1.384   .     S
N636   O638    1.302   .     A
N636   O637    1.301   .     A
O639   C643    1.296   .     A
O639   Cu651   1.947   .     S
O640   C644    1.296   .     A
O640   Cu652   1.947   .     S
O641   Cu652   1.946   .     S
O641   C643    1.295   .     A
O642   C644    1.295   .     A
O642   Cu651   1.946   .     S
C643   C671    1.428   .     S
C644   C672    1.428   .     S
O645   Cu651   1.962   .     S
O645   C649    1.300   .     A
O646   C650    1.300   .     A
O646   Cu652   1.962   .     S
O647   C649    1.298   .     A
O647   Cu652   1.945   .     S
O648   C650    1.298   .     A
O648   Cu651   1.945   .     S
C649   C656    1.444   .     S
C650   C655    1.444   .     S
Cu651  Cu652   2.711   .     S
Cu651  N676    2.037   .     S
Cu652  N675    2.037   .     S
C653   H669    1.083   .     S
C653   C663    1.395   .     A
C653   C655    1.391   .     A
C654   C664    1.395   .     A
C654   C656    1.391   .     A
C654   H670    1.083   .     S
C655   C657    1.402   .     A
C656   C658    1.402   .     A
C657   N677    1.435   .     S
C657   C659    1.406   .     A
C658   N680    1.435   .     S
C658   C660    1.406   .     A
C659   C665    1.404   .     A
C659   C661    1.418   .     A
C660   C666    1.404   .     A
C660   C662    1.418   .     A
C661   C663    1.418   .     A
C661   C604    1.406   1_655 S
C662   C664    1.418   .     A
C663   C668    1.414   .     A
C664   C667    1.414   .     A
C665   H683    1.082   .     S
C665   C609    1.395   1_655 S
C666   H684    1.082   .     S
C667   N685    1.440   .     S
C668   N688    1.440   .     S
C668   C608    1.395   1_655 S
C672   C439    1.331   1_565 S
C672   H442    1.088   1_565 S
H673   C439    1.088   1_565 S
N676   N1023   1.297   .     S
N676   N1042   1.384   .     S
N677   O678    1.301   .     A
N677   O679    1.300   .     A
N680   O682    1.300   .     A
N680   O681    1.301   .     A
N685   O687    1.301   .     A
O686   N453    1.301   1_565 S
N688   O690    1.301   .     A
N688   O457    1.301   1_565 S
N691   O692    1.301   .     A
N691   O693    1.302   .     A
N691   N1023   1.384   .     S
N694   O696    1.302   .     A
N694   O695    1.301   .     A
O697   C701    1.296   .     A
O697   Cu709   1.947   .     S
O698   C702    1.296   .     A
O698   Cu710   1.947   .     S
O699   Cu710   1.946   .     S
O699   C701    1.295   .     A
O700   C702    1.295   .     A
O700   Cu709   1.946   .     S
C701   C729    1.428   .     S
C702   C730    1.428   .     S
O703   Cu709   1.962   .     S
O703   C707    1.300   .     A
O704   C708    1.300   .     A
O704   Cu710   1.962   .     S
O705   C707    1.298   .     A
O705   Cu710   1.945   .     S
O706   C708    1.298   .     A
O706   Cu709   1.945   .     S
C707   C714    1.444   .     S
C708   C713    1.444   .     S
Cu709  Cu710   2.711   .     S
Cu709  N734    2.037   .     S
Cu710  N733    2.037   .     S
C711   H727    1.083   .     S
C711   C721    1.395   .     A
C711   C713    1.391   .     A
C712   C722    1.395   .     A
C712   C714    1.391   .     A
C712   H728    1.083   .     S
C713   C715    1.402   .     A
C714   C716    1.402   .     A
C715   N735    1.435   .     S
C715   C717    1.406   .     A
C716   N738    1.435   .     S
C716   C718    1.406   .     A
C717   C723    1.404   .     A
C717   C719    1.418   .     A
C718   C724    1.404   .     A
C718   C720    1.418   .     A
C719   C721    1.418   .     A
C719   C778    1.406   .     S
C720   C722    1.418   .     A
C720   C777    1.406   1_455 S
C721   C726    1.414   .     A
C722   C725    1.414   .     A
C723   H741    1.082   .     S
C723   C783    1.395   .     S
C724   H742    1.082   .     S
C724   C784    1.395   1_455 S
C725   N743    1.440   .     S
C725   C781    1.395   1_455 S
C726   N746    1.440   .     S
C726   C782    1.395   .     S
C729   C962    1.331   1_545 S
C729   H963    1.088   1_545 S
C730   C845    1.331   .     S
C730   H848    1.088   .     S
H731   C845    1.088   .     S
H732   C962    1.088   1_545 S
N734   N37     1.297   1_556 S
N734   N56     1.384   1_556 S
N735   O736    1.301   .     A
N735   O737    1.300   .     A
N738   O740    1.300   .     A
N738   O739    1.301   .     A
N743   O745    1.301   .     A
N743   O976    1.301   1_545 S
O744   N859    1.301   .     S
N746   O748    1.301   .     A
N746   O863    1.301   .     S
O747   N978    1.301   1_545 S
N749   O750    1.301   .     A
N749   O751    1.302   .     A
N749   N37     1.384   1_556 S
N752   O754    1.302   .     A
N752   O753    1.301   .     A
O755   C759    1.296   .     A
O755   Cu767   1.947   .     S
O756   C760    1.296   .     A
O756   Cu768   1.947   .     S
O757   Cu768   1.946   .     S
O757   C759    1.295   .     A
O758   C760    1.295   .     A
O758   Cu767   1.946   .     S
C759   C787    1.428   .     S
C760   C788    1.428   .     S
O761   Cu767   1.962   .     S
O761   C765    1.300   .     A
O762   C766    1.300   .     A
O762   Cu768   1.962   .     S
O763   C765    1.298   .     A
O763   Cu768   1.945   .     S
O764   C766    1.298   .     A
O764   Cu767   1.945   .     S
C765   C772    1.444   .     S
C766   C771    1.444   .     S
Cu767  Cu768   2.711   .     S
Cu767  N792    2.037   .     S
Cu768  N791    2.037   .     S
C769   H785    1.083   .     S
C769   C779    1.395   .     A
C769   C771    1.391   .     A
C770   C780    1.395   .     A
C770   C772    1.391   .     A
C770   H786    1.083   .     S
C771   C773    1.402   .     A
C772   C774    1.402   .     A
C773   N793    1.435   .     S
C773   C775    1.406   .     A
C774   N796    1.435   .     S
C774   C776    1.406   .     A
C775   C781    1.404   .     A
C775   C777    1.418   .     A
C776   C782    1.404   .     A
C776   C778    1.418   .     A
C777   C779    1.418   .     A
C777   C720    1.406   1_655 S
C778   C780    1.418   .     A
C779   C784    1.414   .     A
C780   C783    1.414   .     A
C781   H799    1.082   .     S
C781   C725    1.395   1_655 S
C782   H800    1.082   .     S
C783   N801    1.440   .     S
C784   N804    1.440   .     S
C784   C724    1.395   1_655 S
C787   C1020   1.331   1_545 S
C787   H1021   1.088   1_545 S
C788   C903    1.331   .     S
C788   H906    1.088   .     S
H789   C903    1.088   .     S
H790   C1020   1.088   1_545 S
N792   N95     1.297   1_556 S
N792   N114    1.384   1_556 S
N793   O794    1.301   .     A
N793   O795    1.300   .     A
N796   O798    1.300   .     A
N796   O797    1.301   .     A
N801   O803    1.301   .     A
N801   O1034   1.301   1_545 S
O802   N917    1.301   .     S
N804   O806    1.301   .     A
N804   O921    1.301   .     S
O805   N1036   1.301   1_545 S
N807   O808    1.301   .     A
N807   O809    1.302   .     A
N807   N95     1.384   1_556 S
N810   O812    1.302   .     A
N810   O811    1.301   .     A
O813   C817    1.296   .     A
O813   Cu825   1.947   .     S
O814   C818    1.296   .     A
O814   Cu826   1.947   .     S
O815   Cu826   1.946   .     S
O815   C817    1.295   .     A
O816   C818    1.295   .     A
O816   Cu825   1.946   .     S
C817   C845    1.428   .     S
C818   C846    1.428   .     S
O819   Cu825   1.962   .     S
O819   C823    1.300   .     A
O820   C824    1.300   .     A
O820   Cu826   1.962   .     S
O821   C823    1.298   .     A
O821   Cu826   1.945   .     S
O822   C824    1.298   .     A
O822   Cu825   1.945   .     S
C823   C830    1.444   .     S
C824   C829    1.444   .     S
Cu825  Cu826   2.711   .     S
Cu825  N850    2.037   .     S
Cu826  N849    2.037   .     S
C827   H843    1.083   .     S
C827   C837    1.395   .     A
C827   C829    1.391   .     A
C828   C838    1.395   .     A
C828   C830    1.391   .     A
C828   H844    1.083   .     S
C829   C831    1.402   .     A
C830   C832    1.402   .     A
C831   N851    1.435   .     S
C831   C833    1.406   .     A
C832   N854    1.435   .     S
C832   C834    1.406   .     A
C833   C839    1.404   .     A
C833   C835    1.418   .     A
C834   C840    1.404   .     A
C834   C836    1.418   .     A
C835   C837    1.418   .     A
C835   C894    1.406   .     S
C836   C838    1.418   .     A
C836   C893    1.406   1_455 S
C837   C842    1.414   .     A
C838   C841    1.414   .     A
C839   H857    1.082   .     S
C839   C899    1.395   .     S
C840   H858    1.082   .     S
C840   C900    1.395   1_455 S
C841   N859    1.440   .     S
C841   C897    1.395   1_455 S
C842   N862    1.440   .     S
C842   C898    1.395   .     S
C846   C961    1.331   .     S
C846   H964    1.088   .     S
H847   C961    1.088   .     S
N850   N153    1.297   1_556 S
N850   N172    1.384   1_556 S
N851   O852    1.301   .     A
N851   O853    1.300   .     A
N854   O856    1.300   .     A
N854   O855    1.301   .     A
N859   O861    1.301   .     A
O860   N975    1.301   .     S
N862   O864    1.301   .     A
N862   O979    1.301   .     S
N865   O866    1.301   .     A
N865   O867    1.302   .     A
N865   N153    1.384   1_556 S
N868   O870    1.302   .     A
N868   O869    1.301   .     A
O871   C875    1.296   .     A
O871   Cu883   1.947   .     S
O872   C876    1.296   .     A
O872   Cu884   1.947   .     S
O873   Cu884   1.946   .     S
O873   C875    1.295   .     A
O874   C876    1.295   .     A
O874   Cu883   1.946   .     S
C875   C903    1.428   .     S
C876   C904    1.428   .     S
O877   Cu883   1.962   .     S
O877   C881    1.300   .     A
O878   C882    1.300   .     A
O878   Cu884   1.962   .     S
O879   C881    1.298   .     A
O879   Cu884   1.945   .     S
O880   C882    1.298   .     A
O880   Cu883   1.945   .     S
C881   C888    1.444   .     S
C882   C887    1.444   .     S
Cu883  Cu884   2.711   .     S
Cu883  N908    2.037   .     S
Cu884  N907    2.037   .     S
C885   H901    1.083   .     S
C885   C895    1.395   .     A
C885   C887    1.391   .     A
C886   C896    1.395   .     A
C886   C888    1.391   .     A
C886   H902    1.083   .     S
C887   C889    1.402   .     A
C888   C890    1.402   .     A
C889   N909    1.435   .     S
C889   C891    1.406   .     A
C890   N912    1.435   .     S
C890   C892    1.406   .     A
C891   C897    1.404   .     A
C891   C893    1.418   .     A
C892   C898    1.404   .     A
C892   C894    1.418   .     A
C893   C895    1.418   .     A
C893   C836    1.406   1_655 S
C894   C896    1.418   .     A
C895   C900    1.414   .     A
C896   C899    1.414   .     A
C897   H915    1.082   .     S
C897   C841    1.395   1_655 S
C898   H916    1.082   .     S
C899   N917    1.440   .     S
C900   N920    1.440   .     S
C900   C840    1.395   1_655 S
C904   C1019   1.331   .     S
C904   H1022   1.088   .     S
H905   C1019   1.088   .     S
N908   N211    1.297   1_556 S
N908   N230    1.384   1_556 S
N909   O910    1.301   .     A
N909   O911    1.300   .     A
N912   O914    1.300   .     A
N912   O913    1.301   .     A
N917   O919    1.301   .     A
O918   N1033   1.301   .     S
N920   O922    1.301   .     A
N920   O1037   1.301   .     S
N923   O924    1.301   .     A
N923   O925    1.302   .     A
N923   N211    1.384   1_556 S
N926   O928    1.302   .     A
N926   O927    1.301   .     A
O929   C933    1.296   .     A
O929   Cu941   1.947   .     S
O930   C934    1.296   .     A
O930   Cu942   1.947   .     S
O931   Cu942   1.946   .     S
O931   C933    1.295   .     A
O932   C934    1.295   .     A
O932   Cu941   1.946   .     S
C933   C961    1.428   .     S
C934   C962    1.428   .     S
O935   Cu941   1.962   .     S
O935   C939    1.300   .     A
O936   C940    1.300   .     A
O936   Cu942   1.962   .     S
O937   C939    1.298   .     A
O937   Cu942   1.945   .     S
O938   C940    1.298   .     A
O938   Cu941   1.945   .     S
C939   C946    1.444   .     S
C940   C945    1.444   .     S
Cu941  Cu942   2.711   .     S
Cu941  N966    2.037   .     S
Cu942  N965    2.037   .     S
C943   H959    1.083   .     S
C943   C953    1.395   .     A
C943   C945    1.391   .     A
C944   C954    1.395   .     A
C944   C946    1.391   .     A
C944   H960    1.083   .     S
C945   C947    1.402   .     A
C946   C948    1.402   .     A
C947   N967    1.435   .     S
C947   C949    1.406   .     A
C948   N970    1.435   .     S
C948   C950    1.406   .     A
C949   C955    1.404   .     A
C949   C951    1.418   .     A
C950   C956    1.404   .     A
C950   C952    1.418   .     A
C951   C953    1.418   .     A
C951   C1010   1.406   .     S
C952   C954    1.418   .     A
C952   C1009   1.406   1_455 S
C953   C958    1.414   .     A
C954   C957    1.414   .     A
C955   H973    1.082   .     S
C955   C1015   1.395   .     S
C956   H974    1.082   .     S
C956   C1016   1.395   1_455 S
C957   N975    1.440   .     S
C957   C1013   1.395   1_455 S
C958   N978    1.440   .     S
C958   C1014   1.395   .     S
C962   C729    1.331   1_565 S
C962   H732    1.088   1_565 S
H963   C729    1.088   1_565 S
N966   N269    1.297   1_556 S
N966   N288    1.384   1_556 S
N967   O968    1.301   .     A
N967   O969    1.300   .     A
N970   O972    1.300   .     A
N970   O971    1.301   .     A
N975   O977    1.301   .     A
O976   N743    1.301   1_565 S
N978   O980    1.301   .     A
N978   O747    1.301   1_565 S
N981   O982    1.301   .     A
N981   O983    1.302   .     A
N981   N269    1.384   1_556 S
N984   O986    1.302   .     A
N984   O985    1.301   .     A
O987   C991    1.296   .     A
O987   Cu999   1.947   .     S
O988   C992    1.296   .     A
O988   Cu1000  1.947   .     S
O989   Cu1000  1.946   .     S
O989   C991    1.295   .     A
O990   C992    1.295   .     A
O990   Cu999   1.946   .     S
C991   C1019   1.428   .     S
C992   C1020   1.428   .     S
O993   Cu999   1.962   .     S
O993   C997    1.300   .     A
O994   C998    1.300   .     A
O994   Cu1000  1.962   .     S
O995   C997    1.298   .     A
O995   Cu1000  1.945   .     S
O996   C998    1.298   .     A
O996   Cu999   1.945   .     S
C997   C1004   1.444   .     S
C998   C1003   1.444   .     S
Cu999  Cu1000  2.711   .     S
Cu999  N1024   2.037   .     S
Cu1000 N1023   2.037   .     S
C1001  H1017   1.083   .     S
C1001  C1011   1.395   .     A
C1001  C1003   1.391   .     A
C1002  C1012   1.395   .     A
C1002  C1004   1.391   .     A
C1002  H1018   1.083   .     S
C1003  C1005   1.402   .     A
C1004  C1006   1.402   .     A
C1005  N1025   1.435   .     S
C1005  C1007   1.406   .     A
C1006  N1028   1.435   .     S
C1006  C1008   1.406   .     A
C1007  C1013   1.404   .     A
C1007  C1009   1.418   .     A
C1008  C1014   1.404   .     A
C1008  C1010   1.418   .     A
C1009  C1011   1.418   .     A
C1009  C952    1.406   1_655 S
C1010  C1012   1.418   .     A
C1011  C1016   1.414   .     A
C1012  C1015   1.414   .     A
C1013  H1031   1.082   .     S
C1013  C957    1.395   1_655 S
C1014  H1032   1.082   .     S
C1015  N1033   1.440   .     S
C1016  N1036   1.440   .     S
C1016  C956    1.395   1_655 S
C1020  C787    1.331   1_565 S
C1020  H790    1.088   1_565 S
H1021  C787    1.088   1_565 S
N1024  N327    1.297   1_556 S
N1024  N346    1.384   1_556 S
N1025  O1026   1.301   .     A
N1025  O1027   1.300   .     A
N1028  O1030   1.300   .     A
N1028  O1029   1.301   .     A
N1033  O1035   1.301   .     A
O1034  N801    1.301   1_565 S
N1036  O1038   1.301   .     A
N1036  O805    1.301   1_565 S
N1039  O1040   1.301   .     A
N1039  O1041   1.302   .     A
N1039  N327    1.384   1_556 S
N1042  O1044   1.302   .     A
N1042  O1043   1.301   .     A
