data_str_m2_o1_o18_pcu_sym.216
_audit_creation_date              2020-01-03
_audit_creation_method            'Materials Studio'
_symmetry_space_group_name_H-M    'P1'
_symmetry_Int_Tables_number       1
_symmetry_cell_setting            triclinic
loop_
_symmetry_equiv_pos_as_xyz
  x,y,z
_cell_length_a                    28.5674
_cell_length_b                    32.5591
_cell_length_c                    31.0041
_cell_angle_alpha                 90.7033
_cell_angle_beta                  74.4504
_cell_angle_gamma                 91.6576
loop_
_atom_site_label
_atom_site_type_symbol
_atom_site_fract_x
_atom_site_fract_y
_atom_site_fract_z
_atom_site_U_iso_or_equiv
_atom_site_adp_type
_atom_site_occupancy
C1     C     0.33248   0.08730   0.24996   0.00000  Uiso   1.00
C2     C     0.00055   0.24587   0.25057   0.00000  Uiso   1.00
C3     C     0.19523   0.15435   0.04686   0.00000  Uiso   1.00
C4     C     0.14132   0.19207   0.45510   0.00000  Uiso   1.00
C5     C     0.24171   0.14360   0.02180   0.00000  Uiso   1.00
C6     C     0.09609   0.20512   0.48105   0.00000  Uiso   1.00
C7     C     0.30187   0.01863   0.22872   0.00000  Uiso   1.00
C8     C     0.02475   0.31365   0.27843   0.00000  Uiso   1.00
C9     C     0.30845   0.30977   0.22532   0.00000  Uiso   1.00
C10    C     0.02437   0.02314   0.27629   0.00000  Uiso   1.00
C11    C     0.00171   0.29044   0.25072   0.00000  Uiso   1.00
C12    C     0.33052   0.04249   0.25115   0.00000  Uiso   1.00
C13    C     0.18199   0.14361   0.28008   0.00000  Uiso   1.00
C14    C     0.15120   0.19028   0.22041   0.00000  Uiso   1.00
C15    C     0.13241   0.14366   0.28017   0.00000  Uiso   1.00
C16    C     0.20081   0.19013   0.22024   0.00000  Uiso   1.00
C17    C     0.30624   0.16678   0.33593   0.00000  Uiso   1.00
C18    C     0.02720   0.16688   0.16396   0.00000  Uiso   1.00
C19    C     0.29198   0.16355   0.38461   0.00000  Uiso   1.00
C20    C     0.04194   0.17314   0.11544   0.00000  Uiso   1.00
C21    C     0.30326   0.13520   0.45191   0.00000  Uiso   1.00
C22    C     0.03303   0.20889   0.05093   0.00000  Uiso   1.00
C23    C     0.31978   0.14146   0.40623   0.00000  Uiso   1.00
C24    C     0.01503   0.19809   0.09555   0.00000  Uiso   1.00
C25    C     0.24841   0.18007   0.40913   0.00000  Uiso   1.00
C26    C     0.08640   0.15864   0.09006   0.00000  Uiso   1.00
C27    C     0.22620   0.16832   0.45363   0.00000  Uiso   1.00
C28    C     0.10969   0.17469   0.04741   0.00000  Uiso   1.00
C29    C     0.25660   0.14837   0.47586   0.00000  Uiso   1.00
C30    C     0.08013   0.19712   0.02650   0.00000  Uiso   1.00
C31    C     0.17632   0.17666   0.47690   0.00000  Uiso   1.00
C32    C     0.16000   0.16808   0.02448   0.00000  Uiso   1.00
Cu33   Cu    0.04689   0.16667   0.25000   0.00000  Uiso   1.00
Cu34   Cu    0.28645   0.16666   0.25000   0.00000  Uiso   1.00
H35    H     0.10113   0.13412   0.10436   0.00000  Uiso   1.00
H36    H     0.23414   0.20310   0.39255   0.00000  Uiso   1.00
H37    H     0.31364   0.20954   0.11458   0.00000  Uiso   1.00
H38    H     0.02086   0.12899   0.38784   0.00000  Uiso   1.00
H39    H     0.19304   0.12519   0.30424   0.00000  Uiso   1.00
H40    H     0.14002   0.20912   0.19665   0.00000  Uiso   1.00
N41    N     0.11736   0.16668   0.24999   0.00000  Uiso   1.00
N42    N     0.21597   0.16666   0.25001   0.00000  Uiso   1.00
O43    O     0.03958   0.10655   0.25000   0.00000  Uiso   1.00
O44    O     0.29375   0.22678   0.25000   0.00000  Uiso   1.00
O45    O     0.29372   0.10654   0.25001   0.00000  Uiso   1.00
O46    O     0.03961   0.22679   0.24999   0.00000  Uiso   1.00
O47    O     0.01852   0.16668   0.31492   0.00000  Uiso   1.00
O48    O     0.31481   0.16666   0.18509   0.00000  Uiso   1.00
O49    O     0.27267   0.16667   0.31492   0.00000  Uiso   1.00
O50    O     0.06067   0.16667   0.18508   0.00000  Uiso   1.00
F51    F     0.27424   0.13033   0.04330   0.00000  Uiso   1.00
F52    F     0.06482   0.22204   0.46048   0.00000  Uiso   1.00
F53    F     0.33240   0.11469   0.47197   0.00000  Uiso   1.00
F54    F     0.00463   0.23192   0.03242   0.00000  Uiso   1.00
C55    C     0.18818   0.15101   0.09724   0.00000  Uiso   1.00
C56    C     0.18287   0.10525   0.11097   0.00000  Uiso   1.00
C57    C     0.16377   0.09959   0.16113   0.00000  Uiso   1.00
H58    H     0.15884   0.06621   0.16823   0.00000  Uiso   1.00
H59    H     0.19024   0.11287   0.17824   0.00000  Uiso   1.00
H60    H     0.12810   0.11410   0.17387   0.00000  Uiso   1.00
H61    H     0.15832   0.08818   0.09425   0.00000  Uiso   1.00
H62    H     0.21861   0.09033   0.10015   0.00000  Uiso   1.00
H63    H     0.22061   0.16452   0.10617   0.00000  Uiso   1.00
H64    H     0.15912   0.17047   0.11725   0.00000  Uiso   1.00
C65    C     0.14599   0.19256   0.40480   0.00000  Uiso   1.00
C66    C     0.15509   0.23679   0.38606   0.00000  Uiso   1.00
C67    C     0.16771   0.23740   0.33514   0.00000  Uiso   1.00
H68    H     0.20241   0.22170   0.32088   0.00000  Uiso   1.00
H69    H     0.13817   0.22216   0.32328   0.00000  Uiso   1.00
H70    H     0.17205   0.26967   0.32327   0.00000  Uiso   1.00
H71    H     0.12221   0.25517   0.39895   0.00000  Uiso   1.00
H72    H     0.18450   0.25301   0.39728   0.00000  Uiso   1.00
H73    H     0.17197   0.17007   0.38567   0.00000  Uiso   1.00
H74    H     0.11141   0.18052   0.39876   0.00000  Uiso   1.00
C75    C     0.25628   0.03392   0.21844   0.00000  Uiso   1.00
C76    C     0.21434   0.03032   0.26156   0.00000  Uiso   1.00
C77    C     0.16470   0.03562   0.25349   0.00000  Uiso   1.00
H78    H     0.16145   0.06735   0.24275   0.00000  Uiso   1.00
H79    H     0.15870   0.01336   0.22794   0.00000  Uiso   1.00
H80    H     0.13630   0.03004   0.28526   0.00000  Uiso   1.00
H81    H     0.21414   0.33275   0.27656   0.00000  Uiso   1.00
H82    H     0.21976   0.05351   0.28646   0.00000  Uiso   1.00
H83    H     0.26061   0.06534   0.20450   0.00000  Uiso   1.00
H84    H     0.24705   0.01479   0.19178   0.00000  Uiso   1.00
C85    C     0.04479   0.29401   0.31380   0.00000  Uiso   1.00
C86    C     0.00299   0.27806   0.35275   0.00000  Uiso   1.00
C87    C     0.02195   0.25856   0.38895   0.00000  Uiso   1.00
H88    H     0.04529   0.23229   0.37490   0.00000  Uiso   1.00
H89    H     0.04304   0.28170   0.40314   0.00000  Uiso   1.00
H90    H     0.32422   0.24708   0.41634   0.00000  Uiso   1.00
H91    H     0.31284   0.30401   0.36779   0.00000  Uiso   1.00
H92    H     0.31349   0.25490   0.34066   0.00000  Uiso   1.00
H93    H     0.07005   0.26920   0.29927   0.00000  Uiso   1.00
H94    H     0.06702   0.31653   0.32754   0.00000  Uiso   1.00
F95    F     0.28544   0.28687   0.19976   0.00000  Uiso   1.00
F96    F     0.04614   0.04624   0.30262   0.00000  Uiso   1.00
F97    F     0.09973   0.12051   0.31058   0.00000  Uiso   1.00
F98    F     0.23344   0.21347   0.19001   0.00000  Uiso   1.00
C99    C     0.66582   0.08730   0.24996   0.00000  Uiso   1.00
C100   C     0.33389   0.24587   0.25057   0.00000  Uiso   1.00
C101   C     0.52857   0.15435   0.04686   0.00000  Uiso   1.00
C102   C     0.47466   0.19207   0.45510   0.00000  Uiso   1.00
C103   C     0.57505   0.14360   0.02180   0.00000  Uiso   1.00
C104   C     0.42942   0.20512   0.48105   0.00000  Uiso   1.00
C105   C     0.63520   0.01863   0.22872   0.00000  Uiso   1.00
C106   C     0.35809   0.31365   0.27843   0.00000  Uiso   1.00
C107   C     0.64178   0.30977   0.22532   0.00000  Uiso   1.00
C108   C     0.35770   0.02314   0.27629   0.00000  Uiso   1.00
C109   C     0.33505   0.29044   0.25072   0.00000  Uiso   1.00
C110   C     0.66385   0.04249   0.25115   0.00000  Uiso   1.00
C111   C     0.51532   0.14361   0.28008   0.00000  Uiso   1.00
C112   C     0.48454   0.19028   0.22041   0.00000  Uiso   1.00
C113   C     0.46574   0.14366   0.28017   0.00000  Uiso   1.00
C114   C     0.53414   0.19013   0.22024   0.00000  Uiso   1.00
C115   C     0.63957   0.16678   0.33593   0.00000  Uiso   1.00
C116   C     0.36053   0.16688   0.16396   0.00000  Uiso   1.00
C117   C     0.62531   0.16355   0.38461   0.00000  Uiso   1.00
C118   C     0.37527   0.17314   0.11544   0.00000  Uiso   1.00
C119   C     0.63659   0.13520   0.45191   0.00000  Uiso   1.00
C120   C     0.36636   0.20889   0.05093   0.00000  Uiso   1.00
C121   C     0.65312   0.14146   0.40623   0.00000  Uiso   1.00
C122   C     0.34837   0.19809   0.09555   0.00000  Uiso   1.00
C123   C     0.58174   0.18007   0.40913   0.00000  Uiso   1.00
C124   C     0.41973   0.15864   0.09006   0.00000  Uiso   1.00
C125   C     0.55954   0.16832   0.45363   0.00000  Uiso   1.00
C126   C     0.44302   0.17469   0.04741   0.00000  Uiso   1.00
C127   C     0.58993   0.14837   0.47586   0.00000  Uiso   1.00
C128   C     0.41346   0.19712   0.02650   0.00000  Uiso   1.00
C129   C     0.50966   0.17666   0.47690   0.00000  Uiso   1.00
C130   C     0.49334   0.16808   0.02448   0.00000  Uiso   1.00
Cu131  Cu    0.38022   0.16667   0.25000   0.00000  Uiso   1.00
Cu132  Cu    0.61978   0.16666   0.25000   0.00000  Uiso   1.00
H133   H     0.43446   0.13412   0.10436   0.00000  Uiso   1.00
H134   H     0.56748   0.20310   0.39255   0.00000  Uiso   1.00
H135   H     0.64697   0.20954   0.11458   0.00000  Uiso   1.00
H136   H     0.35420   0.12899   0.38784   0.00000  Uiso   1.00
H137   H     0.52637   0.12519   0.30424   0.00000  Uiso   1.00
H138   H     0.47336   0.20912   0.19665   0.00000  Uiso   1.00
N139   N     0.45069   0.16668   0.24999   0.00000  Uiso   1.00
N140   N     0.54931   0.16666   0.25001   0.00000  Uiso   1.00
O141   O     0.37291   0.10655   0.25000   0.00000  Uiso   1.00
O142   O     0.62709   0.22678   0.25000   0.00000  Uiso   1.00
O143   O     0.62706   0.10654   0.25001   0.00000  Uiso   1.00
O144   O     0.37294   0.22679   0.24999   0.00000  Uiso   1.00
O145   O     0.35186   0.16668   0.31492   0.00000  Uiso   1.00
O146   O     0.64814   0.16666   0.18509   0.00000  Uiso   1.00
O147   O     0.60600   0.16667   0.31492   0.00000  Uiso   1.00
O148   O     0.39400   0.16667   0.18508   0.00000  Uiso   1.00
F149   F     0.60758   0.13033   0.04330   0.00000  Uiso   1.00
F150   F     0.39815   0.22204   0.46048   0.00000  Uiso   1.00
F151   F     0.66573   0.11469   0.47197   0.00000  Uiso   1.00
F152   F     0.33796   0.23192   0.03242   0.00000  Uiso   1.00
C153   C     0.52152   0.15101   0.09724   0.00000  Uiso   1.00
C154   C     0.51621   0.10525   0.11097   0.00000  Uiso   1.00
C155   C     0.49710   0.09959   0.16113   0.00000  Uiso   1.00
H156   H     0.49217   0.06621   0.16823   0.00000  Uiso   1.00
H157   H     0.52357   0.11287   0.17824   0.00000  Uiso   1.00
H158   H     0.46143   0.11410   0.17387   0.00000  Uiso   1.00
H159   H     0.49165   0.08818   0.09425   0.00000  Uiso   1.00
H160   H     0.55194   0.09033   0.10015   0.00000  Uiso   1.00
H161   H     0.55394   0.16452   0.10617   0.00000  Uiso   1.00
H162   H     0.49245   0.17047   0.11725   0.00000  Uiso   1.00
C163   C     0.47932   0.19256   0.40480   0.00000  Uiso   1.00
C164   C     0.48842   0.23679   0.38606   0.00000  Uiso   1.00
C165   C     0.50105   0.23740   0.33514   0.00000  Uiso   1.00
H166   H     0.53575   0.22170   0.32088   0.00000  Uiso   1.00
H167   H     0.47150   0.22216   0.32328   0.00000  Uiso   1.00
H168   H     0.50538   0.26967   0.32327   0.00000  Uiso   1.00
H169   H     0.45554   0.25517   0.39895   0.00000  Uiso   1.00
H170   H     0.51784   0.25301   0.39728   0.00000  Uiso   1.00
H171   H     0.50530   0.17007   0.38567   0.00000  Uiso   1.00
H172   H     0.44474   0.18052   0.39876   0.00000  Uiso   1.00
C173   C     0.58962   0.03392   0.21844   0.00000  Uiso   1.00
C174   C     0.54767   0.03032   0.26156   0.00000  Uiso   1.00
C175   C     0.49803   0.03562   0.25349   0.00000  Uiso   1.00
H176   H     0.49478   0.06735   0.24275   0.00000  Uiso   1.00
H177   H     0.49203   0.01336   0.22794   0.00000  Uiso   1.00
H178   H     0.46963   0.03004   0.28526   0.00000  Uiso   1.00
H179   H     0.54747   0.33275   0.27656   0.00000  Uiso   1.00
H180   H     0.55310   0.05351   0.28646   0.00000  Uiso   1.00
H181   H     0.59394   0.06534   0.20450   0.00000  Uiso   1.00
H182   H     0.58039   0.01479   0.19178   0.00000  Uiso   1.00
C183   C     0.37812   0.29401   0.31380   0.00000  Uiso   1.00
C184   C     0.33632   0.27806   0.35275   0.00000  Uiso   1.00
C185   C     0.35528   0.25856   0.38895   0.00000  Uiso   1.00
H186   H     0.37862   0.23229   0.37490   0.00000  Uiso   1.00
H187   H     0.37638   0.28170   0.40314   0.00000  Uiso   1.00
H188   H     0.65755   0.24708   0.41634   0.00000  Uiso   1.00
H189   H     0.64618   0.30401   0.36779   0.00000  Uiso   1.00
H190   H     0.64683   0.25490   0.34066   0.00000  Uiso   1.00
H191   H     0.40339   0.26920   0.29927   0.00000  Uiso   1.00
H192   H     0.40036   0.31653   0.32754   0.00000  Uiso   1.00
F193   F     0.61877   0.28687   0.19976   0.00000  Uiso   1.00
F194   F     0.37948   0.04624   0.30262   0.00000  Uiso   1.00
F195   F     0.43306   0.12051   0.31058   0.00000  Uiso   1.00
F196   F     0.56677   0.21347   0.19001   0.00000  Uiso   1.00
C197   C     0.99915   0.08730   0.24996   0.00000  Uiso   1.00
C198   C     0.66722   0.24587   0.25057   0.00000  Uiso   1.00
C199   C     0.86190   0.15435   0.04686   0.00000  Uiso   1.00
C200   C     0.80799   0.19207   0.45510   0.00000  Uiso   1.00
C201   C     0.90838   0.14360   0.02180   0.00000  Uiso   1.00
C202   C     0.76275   0.20512   0.48105   0.00000  Uiso   1.00
C203   C     0.96853   0.01863   0.22872   0.00000  Uiso   1.00
C204   C     0.69142   0.31365   0.27843   0.00000  Uiso   1.00
C205   C     0.97511   0.30977   0.22532   0.00000  Uiso   1.00
C206   C     0.69104   0.02314   0.27629   0.00000  Uiso   1.00
C207   C     0.66838   0.29044   0.25072   0.00000  Uiso   1.00
C208   C     0.99718   0.04249   0.25115   0.00000  Uiso   1.00
C209   C     0.84866   0.14361   0.28008   0.00000  Uiso   1.00
C210   C     0.81787   0.19028   0.22041   0.00000  Uiso   1.00
C211   C     0.79907   0.14366   0.28017   0.00000  Uiso   1.00
C212   C     0.86748   0.19013   0.22024   0.00000  Uiso   1.00
C213   C     0.97290   0.16678   0.33593   0.00000  Uiso   1.00
C214   C     0.69387   0.16688   0.16396   0.00000  Uiso   1.00
C215   C     0.95864   0.16355   0.38461   0.00000  Uiso   1.00
C216   C     0.70860   0.17314   0.11544   0.00000  Uiso   1.00
C217   C     0.96992   0.13520   0.45191   0.00000  Uiso   1.00
C218   C     0.69970   0.20889   0.05093   0.00000  Uiso   1.00
C219   C     0.98645   0.14146   0.40623   0.00000  Uiso   1.00
C220   C     0.68170   0.19809   0.09555   0.00000  Uiso   1.00
C221   C     0.91507   0.18007   0.40913   0.00000  Uiso   1.00
C222   C     0.75307   0.15864   0.09006   0.00000  Uiso   1.00
C223   C     0.89287   0.16832   0.45363   0.00000  Uiso   1.00
C224   C     0.77635   0.17469   0.04741   0.00000  Uiso   1.00
C225   C     0.92327   0.14837   0.47586   0.00000  Uiso   1.00
C226   C     0.74680   0.19712   0.02650   0.00000  Uiso   1.00
C227   C     0.84299   0.17666   0.47690   0.00000  Uiso   1.00
C228   C     0.82667   0.16808   0.02448   0.00000  Uiso   1.00
Cu229  Cu    0.71355   0.16667   0.25000   0.00000  Uiso   1.00
Cu230  Cu    0.95311   0.16666   0.25000   0.00000  Uiso   1.00
H231   H     0.76780   0.13412   0.10436   0.00000  Uiso   1.00
H232   H     0.90081   0.20310   0.39255   0.00000  Uiso   1.00
H233   H     0.98031   0.20954   0.11458   0.00000  Uiso   1.00
H234   H     0.68753   0.12899   0.38784   0.00000  Uiso   1.00
H235   H     0.85971   0.12519   0.30424   0.00000  Uiso   1.00
H236   H     0.80669   0.20912   0.19665   0.00000  Uiso   1.00
N237   N     0.78403   0.16668   0.24999   0.00000  Uiso   1.00
N238   N     0.88264   0.16666   0.25001   0.00000  Uiso   1.00
O239   O     0.70625   0.10655   0.25000   0.00000  Uiso   1.00
O240   O     0.96042   0.22678   0.25000   0.00000  Uiso   1.00
O241   O     0.96039   0.10654   0.25001   0.00000  Uiso   1.00
O242   O     0.70628   0.22679   0.24999   0.00000  Uiso   1.00
O243   O     0.68519   0.16668   0.31492   0.00000  Uiso   1.00
O244   O     0.98148   0.16666   0.18509   0.00000  Uiso   1.00
O245   O     0.93933   0.16667   0.31492   0.00000  Uiso   1.00
O246   O     0.72733   0.16667   0.18508   0.00000  Uiso   1.00
F247   F     0.94091   0.13033   0.04330   0.00000  Uiso   1.00
F248   F     0.73148   0.22204   0.46048   0.00000  Uiso   1.00
F249   F     0.99906   0.11469   0.47197   0.00000  Uiso   1.00
F250   F     0.67129   0.23192   0.03242   0.00000  Uiso   1.00
C251   C     0.85485   0.15101   0.09724   0.00000  Uiso   1.00
C252   C     0.84954   0.10525   0.11097   0.00000  Uiso   1.00
C253   C     0.83044   0.09959   0.16113   0.00000  Uiso   1.00
H254   H     0.82550   0.06621   0.16823   0.00000  Uiso   1.00
H255   H     0.85690   0.11287   0.17824   0.00000  Uiso   1.00
H256   H     0.79477   0.11410   0.17387   0.00000  Uiso   1.00
H257   H     0.82499   0.08818   0.09425   0.00000  Uiso   1.00
H258   H     0.88528   0.09033   0.10015   0.00000  Uiso   1.00
H259   H     0.88728   0.16452   0.10617   0.00000  Uiso   1.00
H260   H     0.82579   0.17047   0.11725   0.00000  Uiso   1.00
C261   C     0.81266   0.19256   0.40480   0.00000  Uiso   1.00
C262   C     0.82176   0.23679   0.38606   0.00000  Uiso   1.00
C263   C     0.83438   0.23740   0.33514   0.00000  Uiso   1.00
H264   H     0.86908   0.22170   0.32088   0.00000  Uiso   1.00
H265   H     0.80483   0.22216   0.32328   0.00000  Uiso   1.00
H266   H     0.83872   0.26967   0.32327   0.00000  Uiso   1.00
H267   H     0.78888   0.25517   0.39895   0.00000  Uiso   1.00
H268   H     0.85117   0.25301   0.39728   0.00000  Uiso   1.00
H269   H     0.83864   0.17007   0.38567   0.00000  Uiso   1.00
H270   H     0.77808   0.18052   0.39876   0.00000  Uiso   1.00
C271   C     0.92295   0.03392   0.21844   0.00000  Uiso   1.00
C272   C     0.88101   0.03032   0.26156   0.00000  Uiso   1.00
C273   C     0.83137   0.03562   0.25349   0.00000  Uiso   1.00
H274   H     0.82811   0.06735   0.24275   0.00000  Uiso   1.00
H275   H     0.82536   0.01336   0.22794   0.00000  Uiso   1.00
H276   H     0.80297   0.03004   0.28526   0.00000  Uiso   1.00
H277   H     0.88080   0.33275   0.27656   0.00000  Uiso   1.00
H278   H     0.88643   0.05351   0.28646   0.00000  Uiso   1.00
H279   H     0.92728   0.06534   0.20450   0.00000  Uiso   1.00
H280   H     0.91372   0.01479   0.19178   0.00000  Uiso   1.00
C281   C     0.71145   0.29401   0.31380   0.00000  Uiso   1.00
C282   C     0.66966   0.27806   0.35275   0.00000  Uiso   1.00
C283   C     0.68861   0.25856   0.38895   0.00000  Uiso   1.00
H284   H     0.71195   0.23229   0.37490   0.00000  Uiso   1.00
H285   H     0.70971   0.28170   0.40314   0.00000  Uiso   1.00
H286   H     0.99089   0.24708   0.41634   0.00000  Uiso   1.00
H287   H     0.97951   0.30401   0.36779   0.00000  Uiso   1.00
H288   H     0.98016   0.25490   0.34066   0.00000  Uiso   1.00
H289   H     0.73672   0.26920   0.29927   0.00000  Uiso   1.00
H290   H     0.73369   0.31653   0.32754   0.00000  Uiso   1.00
F291   F     0.95210   0.28687   0.19976   0.00000  Uiso   1.00
F292   F     0.71281   0.04624   0.30262   0.00000  Uiso   1.00
F293   F     0.76639   0.12051   0.31058   0.00000  Uiso   1.00
F294   F     0.90010   0.21347   0.19001   0.00000  Uiso   1.00
C295   C     0.33248   0.42063   0.24996   0.00000  Uiso   1.00
C296   C     0.00055   0.57920   0.25057   0.00000  Uiso   1.00
C297   C     0.19523   0.48769   0.04686   0.00000  Uiso   1.00
C298   C     0.14132   0.52541   0.45510   0.00000  Uiso   1.00
C299   C     0.24171   0.47693   0.02180   0.00000  Uiso   1.00
C300   C     0.09609   0.53845   0.48105   0.00000  Uiso   1.00
C301   C     0.30187   0.35196   0.22872   0.00000  Uiso   1.00
C302   C     0.02475   0.64698   0.27843   0.00000  Uiso   1.00
C303   C     0.30845   0.64310   0.22532   0.00000  Uiso   1.00
C304   C     0.02437   0.35647   0.27629   0.00000  Uiso   1.00
C305   C     0.00171   0.62377   0.25072   0.00000  Uiso   1.00
C306   C     0.33052   0.37582   0.25115   0.00000  Uiso   1.00
C307   C     0.18199   0.47694   0.28008   0.00000  Uiso   1.00
C308   C     0.15120   0.52361   0.22041   0.00000  Uiso   1.00
C309   C     0.13241   0.47699   0.28017   0.00000  Uiso   1.00
C310   C     0.20081   0.52347   0.22024   0.00000  Uiso   1.00
C311   C     0.30624   0.50012   0.33593   0.00000  Uiso   1.00
C312   C     0.02720   0.50022   0.16396   0.00000  Uiso   1.00
C313   C     0.29198   0.49688   0.38461   0.00000  Uiso   1.00
C314   C     0.04194   0.50647   0.11544   0.00000  Uiso   1.00
C315   C     0.30326   0.46853   0.45191   0.00000  Uiso   1.00
C316   C     0.03303   0.54222   0.05093   0.00000  Uiso   1.00
C317   C     0.31978   0.47480   0.40623   0.00000  Uiso   1.00
C318   C     0.01503   0.53142   0.09555   0.00000  Uiso   1.00
C319   C     0.24841   0.51341   0.40913   0.00000  Uiso   1.00
C320   C     0.08640   0.49198   0.09006   0.00000  Uiso   1.00
C321   C     0.22620   0.50165   0.45363   0.00000  Uiso   1.00
C322   C     0.10969   0.50802   0.04741   0.00000  Uiso   1.00
C323   C     0.25660   0.48170   0.47586   0.00000  Uiso   1.00
C324   C     0.08013   0.53045   0.02650   0.00000  Uiso   1.00
C325   C     0.17632   0.50999   0.47690   0.00000  Uiso   1.00
C326   C     0.16000   0.50141   0.02448   0.00000  Uiso   1.00
Cu327  Cu    0.04689   0.50001   0.25000   0.00000  Uiso   1.00
Cu328  Cu    0.28645   0.49999   0.25000   0.00000  Uiso   1.00
H329   H     0.10113   0.46745   0.10436   0.00000  Uiso   1.00
H330   H     0.23414   0.53643   0.39255   0.00000  Uiso   1.00
H331   H     0.31364   0.54288   0.11458   0.00000  Uiso   1.00
H332   H     0.02086   0.46232   0.38784   0.00000  Uiso   1.00
H333   H     0.19304   0.45853   0.30424   0.00000  Uiso   1.00
H334   H     0.14002   0.54245   0.19665   0.00000  Uiso   1.00
N335   N     0.11736   0.50001   0.24999   0.00000  Uiso   1.00
N336   N     0.21597   0.49999   0.25001   0.00000  Uiso   1.00
O337   O     0.03958   0.43989   0.25000   0.00000  Uiso   1.00
O338   O     0.29375   0.56011   0.25000   0.00000  Uiso   1.00
O339   O     0.29372   0.43988   0.25001   0.00000  Uiso   1.00
O340   O     0.03961   0.56012   0.24999   0.00000  Uiso   1.00
O341   O     0.01852   0.50001   0.31492   0.00000  Uiso   1.00
O342   O     0.31481   0.49999   0.18509   0.00000  Uiso   1.00
O343   O     0.27267   0.50000   0.31492   0.00000  Uiso   1.00
O344   O     0.06067   0.50000   0.18508   0.00000  Uiso   1.00
F345   F     0.27424   0.46366   0.04330   0.00000  Uiso   1.00
F346   F     0.06482   0.55538   0.46048   0.00000  Uiso   1.00
F347   F     0.33240   0.44802   0.47197   0.00000  Uiso   1.00
F348   F     0.00463   0.56525   0.03242   0.00000  Uiso   1.00
C349   C     0.18818   0.48434   0.09724   0.00000  Uiso   1.00
C350   C     0.18287   0.43858   0.11097   0.00000  Uiso   1.00
C351   C     0.16377   0.43292   0.16113   0.00000  Uiso   1.00
H352   H     0.15884   0.39955   0.16823   0.00000  Uiso   1.00
H353   H     0.19024   0.44620   0.17824   0.00000  Uiso   1.00
H354   H     0.12810   0.44743   0.17387   0.00000  Uiso   1.00
H355   H     0.15832   0.42152   0.09425   0.00000  Uiso   1.00
H356   H     0.21861   0.42366   0.10015   0.00000  Uiso   1.00
H357   H     0.22061   0.49785   0.10617   0.00000  Uiso   1.00
H358   H     0.15912   0.50381   0.11725   0.00000  Uiso   1.00
C359   C     0.14599   0.52589   0.40480   0.00000  Uiso   1.00
C360   C     0.15509   0.57013   0.38606   0.00000  Uiso   1.00
C361   C     0.16771   0.57073   0.33514   0.00000  Uiso   1.00
H362   H     0.20241   0.55504   0.32088   0.00000  Uiso   1.00
H363   H     0.13817   0.55550   0.32328   0.00000  Uiso   1.00
H364   H     0.17205   0.60300   0.32327   0.00000  Uiso   1.00
H365   H     0.12221   0.58850   0.39895   0.00000  Uiso   1.00
H366   H     0.18450   0.58634   0.39728   0.00000  Uiso   1.00
H367   H     0.17197   0.50340   0.38567   0.00000  Uiso   1.00
H368   H     0.11141   0.51385   0.39876   0.00000  Uiso   1.00
C369   C     0.25628   0.36725   0.21844   0.00000  Uiso   1.00
C370   C     0.21434   0.36365   0.26156   0.00000  Uiso   1.00
C371   C     0.16470   0.36896   0.25349   0.00000  Uiso   1.00
H372   H     0.16145   0.40069   0.24275   0.00000  Uiso   1.00
H373   H     0.15870   0.34670   0.22794   0.00000  Uiso   1.00
H374   H     0.13630   0.36337   0.28526   0.00000  Uiso   1.00
H375   H     0.21414   0.66608   0.27656   0.00000  Uiso   1.00
H376   H     0.21976   0.38684   0.28646   0.00000  Uiso   1.00
H377   H     0.26061   0.39867   0.20450   0.00000  Uiso   1.00
H378   H     0.24705   0.34812   0.19178   0.00000  Uiso   1.00
C379   C     0.04479   0.62734   0.31380   0.00000  Uiso   1.00
C380   C     0.00299   0.61139   0.35275   0.00000  Uiso   1.00
C381   C     0.02195   0.59189   0.38895   0.00000  Uiso   1.00
H382   H     0.04529   0.56563   0.37490   0.00000  Uiso   1.00
H383   H     0.04304   0.61503   0.40314   0.00000  Uiso   1.00
H384   H     0.32422   0.58041   0.41634   0.00000  Uiso   1.00
H385   H     0.31284   0.63734   0.36779   0.00000  Uiso   1.00
H386   H     0.31349   0.58823   0.34066   0.00000  Uiso   1.00
H387   H     0.07005   0.60254   0.29927   0.00000  Uiso   1.00
H388   H     0.06702   0.64986   0.32754   0.00000  Uiso   1.00
F389   F     0.28544   0.62021   0.19976   0.00000  Uiso   1.00
F390   F     0.04614   0.37957   0.30262   0.00000  Uiso   1.00
F391   F     0.09973   0.45385   0.31058   0.00000  Uiso   1.00
F392   F     0.23344   0.54680   0.19001   0.00000  Uiso   1.00
C393   C     0.66582   0.42063   0.24996   0.00000  Uiso   1.00
C394   C     0.33389   0.57920   0.25057   0.00000  Uiso   1.00
C395   C     0.52857   0.48769   0.04686   0.00000  Uiso   1.00
C396   C     0.47466   0.52541   0.45510   0.00000  Uiso   1.00
C397   C     0.57505   0.47693   0.02180   0.00000  Uiso   1.00
C398   C     0.42942   0.53845   0.48105   0.00000  Uiso   1.00
C399   C     0.63520   0.35196   0.22872   0.00000  Uiso   1.00
C400   C     0.35809   0.64698   0.27843   0.00000  Uiso   1.00
C401   C     0.64178   0.64310   0.22532   0.00000  Uiso   1.00
C402   C     0.35770   0.35647   0.27629   0.00000  Uiso   1.00
C403   C     0.33505   0.62377   0.25072   0.00000  Uiso   1.00
C404   C     0.66385   0.37582   0.25115   0.00000  Uiso   1.00
C405   C     0.51532   0.47694   0.28008   0.00000  Uiso   1.00
C406   C     0.48454   0.52361   0.22041   0.00000  Uiso   1.00
C407   C     0.46574   0.47699   0.28017   0.00000  Uiso   1.00
C408   C     0.53414   0.52347   0.22024   0.00000  Uiso   1.00
C409   C     0.63957   0.50012   0.33593   0.00000  Uiso   1.00
C410   C     0.36053   0.50022   0.16396   0.00000  Uiso   1.00
C411   C     0.62531   0.49688   0.38461   0.00000  Uiso   1.00
C412   C     0.37527   0.50647   0.11544   0.00000  Uiso   1.00
C413   C     0.63659   0.46853   0.45191   0.00000  Uiso   1.00
C414   C     0.36636   0.54222   0.05093   0.00000  Uiso   1.00
C415   C     0.65312   0.47480   0.40623   0.00000  Uiso   1.00
C416   C     0.34837   0.53142   0.09555   0.00000  Uiso   1.00
C417   C     0.58174   0.51341   0.40913   0.00000  Uiso   1.00
C418   C     0.41973   0.49198   0.09006   0.00000  Uiso   1.00
C419   C     0.55954   0.50165   0.45363   0.00000  Uiso   1.00
C420   C     0.44302   0.50802   0.04741   0.00000  Uiso   1.00
C421   C     0.58993   0.48170   0.47586   0.00000  Uiso   1.00
C422   C     0.41346   0.53045   0.02650   0.00000  Uiso   1.00
C423   C     0.50966   0.50999   0.47690   0.00000  Uiso   1.00
C424   C     0.49334   0.50141   0.02448   0.00000  Uiso   1.00
Cu425  Cu    0.38022   0.50001   0.25000   0.00000  Uiso   1.00
Cu426  Cu    0.61978   0.49999   0.25000   0.00000  Uiso   1.00
H427   H     0.43446   0.46745   0.10436   0.00000  Uiso   1.00
H428   H     0.56748   0.53643   0.39255   0.00000  Uiso   1.00
H429   H     0.64697   0.54288   0.11458   0.00000  Uiso   1.00
H430   H     0.35420   0.46232   0.38784   0.00000  Uiso   1.00
H431   H     0.52637   0.45853   0.30424   0.00000  Uiso   1.00
H432   H     0.47336   0.54245   0.19665   0.00000  Uiso   1.00
N433   N     0.45069   0.50001   0.24999   0.00000  Uiso   1.00
N434   N     0.54931   0.49999   0.25001   0.00000  Uiso   1.00
O435   O     0.37291   0.43989   0.25000   0.00000  Uiso   1.00
O436   O     0.62709   0.56011   0.25000   0.00000  Uiso   1.00
O437   O     0.62706   0.43988   0.25001   0.00000  Uiso   1.00
O438   O     0.37294   0.56012   0.24999   0.00000  Uiso   1.00
O439   O     0.35186   0.50001   0.31492   0.00000  Uiso   1.00
O440   O     0.64814   0.49999   0.18509   0.00000  Uiso   1.00
O441   O     0.60600   0.50000   0.31492   0.00000  Uiso   1.00
O442   O     0.39400   0.50000   0.18508   0.00000  Uiso   1.00
F443   F     0.60758   0.46366   0.04330   0.00000  Uiso   1.00
F444   F     0.39815   0.55538   0.46048   0.00000  Uiso   1.00
F445   F     0.66573   0.44802   0.47197   0.00000  Uiso   1.00
F446   F     0.33796   0.56525   0.03242   0.00000  Uiso   1.00
C447   C     0.52152   0.48434   0.09724   0.00000  Uiso   1.00
C448   C     0.51621   0.43858   0.11097   0.00000  Uiso   1.00
C449   C     0.49710   0.43292   0.16113   0.00000  Uiso   1.00
H450   H     0.49217   0.39955   0.16823   0.00000  Uiso   1.00
H451   H     0.52357   0.44620   0.17824   0.00000  Uiso   1.00
H452   H     0.46143   0.44743   0.17387   0.00000  Uiso   1.00
H453   H     0.49165   0.42152   0.09425   0.00000  Uiso   1.00
H454   H     0.55194   0.42366   0.10015   0.00000  Uiso   1.00
H455   H     0.55394   0.49785   0.10617   0.00000  Uiso   1.00
H456   H     0.49245   0.50381   0.11725   0.00000  Uiso   1.00
C457   C     0.47932   0.52589   0.40480   0.00000  Uiso   1.00
C458   C     0.48842   0.57013   0.38606   0.00000  Uiso   1.00
C459   C     0.50105   0.57073   0.33514   0.00000  Uiso   1.00
H460   H     0.53575   0.55504   0.32088   0.00000  Uiso   1.00
H461   H     0.47150   0.55550   0.32328   0.00000  Uiso   1.00
H462   H     0.50538   0.60300   0.32327   0.00000  Uiso   1.00
H463   H     0.45554   0.58850   0.39895   0.00000  Uiso   1.00
H464   H     0.51784   0.58634   0.39728   0.00000  Uiso   1.00
H465   H     0.50530   0.50340   0.38567   0.00000  Uiso   1.00
H466   H     0.44474   0.51385   0.39876   0.00000  Uiso   1.00
C467   C     0.58962   0.36725   0.21844   0.00000  Uiso   1.00
C468   C     0.54767   0.36365   0.26156   0.00000  Uiso   1.00
C469   C     0.49803   0.36896   0.25349   0.00000  Uiso   1.00
H470   H     0.49478   0.40069   0.24275   0.00000  Uiso   1.00
H471   H     0.49203   0.34670   0.22794   0.00000  Uiso   1.00
H472   H     0.46963   0.36337   0.28526   0.00000  Uiso   1.00
H473   H     0.54747   0.66608   0.27656   0.00000  Uiso   1.00
H474   H     0.55310   0.38684   0.28646   0.00000  Uiso   1.00
H475   H     0.59394   0.39867   0.20450   0.00000  Uiso   1.00
H476   H     0.58039   0.34812   0.19178   0.00000  Uiso   1.00
C477   C     0.37812   0.62734   0.31380   0.00000  Uiso   1.00
C478   C     0.33632   0.61139   0.35275   0.00000  Uiso   1.00
C479   C     0.35528   0.59189   0.38895   0.00000  Uiso   1.00
H480   H     0.37862   0.56563   0.37490   0.00000  Uiso   1.00
H481   H     0.37638   0.61503   0.40314   0.00000  Uiso   1.00
H482   H     0.65755   0.58041   0.41634   0.00000  Uiso   1.00
H483   H     0.64618   0.63734   0.36779   0.00000  Uiso   1.00
H484   H     0.64683   0.58823   0.34066   0.00000  Uiso   1.00
H485   H     0.40339   0.60254   0.29927   0.00000  Uiso   1.00
H486   H     0.40036   0.64986   0.32754   0.00000  Uiso   1.00
F487   F     0.61877   0.62021   0.19976   0.00000  Uiso   1.00
F488   F     0.37948   0.37957   0.30262   0.00000  Uiso   1.00
F489   F     0.43306   0.45385   0.31058   0.00000  Uiso   1.00
F490   F     0.56677   0.54680   0.19001   0.00000  Uiso   1.00
C491   C     0.99915   0.42063   0.24996   0.00000  Uiso   1.00
C492   C     0.66722   0.57920   0.25057   0.00000  Uiso   1.00
C493   C     0.86190   0.48769   0.04686   0.00000  Uiso   1.00
C494   C     0.80799   0.52541   0.45510   0.00000  Uiso   1.00
C495   C     0.90838   0.47693   0.02180   0.00000  Uiso   1.00
C496   C     0.76275   0.53845   0.48105   0.00000  Uiso   1.00
C497   C     0.96853   0.35196   0.22872   0.00000  Uiso   1.00
C498   C     0.69142   0.64698   0.27843   0.00000  Uiso   1.00
C499   C     0.97511   0.64310   0.22532   0.00000  Uiso   1.00
C500   C     0.69104   0.35647   0.27629   0.00000  Uiso   1.00
C501   C     0.66838   0.62377   0.25072   0.00000  Uiso   1.00
C502   C     0.99718   0.37582   0.25115   0.00000  Uiso   1.00
C503   C     0.84866   0.47694   0.28008   0.00000  Uiso   1.00
C504   C     0.81787   0.52361   0.22041   0.00000  Uiso   1.00
C505   C     0.79907   0.47699   0.28017   0.00000  Uiso   1.00
C506   C     0.86748   0.52347   0.22024   0.00000  Uiso   1.00
C507   C     0.97290   0.50012   0.33593   0.00000  Uiso   1.00
C508   C     0.69387   0.50022   0.16396   0.00000  Uiso   1.00
C509   C     0.95864   0.49688   0.38461   0.00000  Uiso   1.00
C510   C     0.70860   0.50647   0.11544   0.00000  Uiso   1.00
C511   C     0.96992   0.46853   0.45191   0.00000  Uiso   1.00
C512   C     0.69970   0.54222   0.05093   0.00000  Uiso   1.00
C513   C     0.98645   0.47480   0.40623   0.00000  Uiso   1.00
C514   C     0.68170   0.53142   0.09555   0.00000  Uiso   1.00
C515   C     0.91507   0.51341   0.40913   0.00000  Uiso   1.00
C516   C     0.75307   0.49198   0.09006   0.00000  Uiso   1.00
C517   C     0.89287   0.50165   0.45363   0.00000  Uiso   1.00
C518   C     0.77635   0.50802   0.04741   0.00000  Uiso   1.00
C519   C     0.92327   0.48170   0.47586   0.00000  Uiso   1.00
C520   C     0.74680   0.53045   0.02650   0.00000  Uiso   1.00
C521   C     0.84299   0.50999   0.47690   0.00000  Uiso   1.00
C522   C     0.82667   0.50141   0.02448   0.00000  Uiso   1.00
Cu523  Cu    0.71355   0.50001   0.25000   0.00000  Uiso   1.00
Cu524  Cu    0.95311   0.49999   0.25000   0.00000  Uiso   1.00
H525   H     0.76780   0.46745   0.10436   0.00000  Uiso   1.00
H526   H     0.90081   0.53643   0.39255   0.00000  Uiso   1.00
H527   H     0.98031   0.54288   0.11458   0.00000  Uiso   1.00
H528   H     0.68753   0.46232   0.38784   0.00000  Uiso   1.00
H529   H     0.85971   0.45853   0.30424   0.00000  Uiso   1.00
H530   H     0.80669   0.54245   0.19665   0.00000  Uiso   1.00
N531   N     0.78403   0.50001   0.24999   0.00000  Uiso   1.00
N532   N     0.88264   0.49999   0.25001   0.00000  Uiso   1.00
O533   O     0.70625   0.43989   0.25000   0.00000  Uiso   1.00
O534   O     0.96042   0.56011   0.25000   0.00000  Uiso   1.00
O535   O     0.96039   0.43988   0.25001   0.00000  Uiso   1.00
O536   O     0.70628   0.56012   0.24999   0.00000  Uiso   1.00
O537   O     0.68519   0.50001   0.31492   0.00000  Uiso   1.00
O538   O     0.98148   0.49999   0.18509   0.00000  Uiso   1.00
O539   O     0.93933   0.50000   0.31492   0.00000  Uiso   1.00
O540   O     0.72733   0.50000   0.18508   0.00000  Uiso   1.00
F541   F     0.94091   0.46366   0.04330   0.00000  Uiso   1.00
F542   F     0.73148   0.55538   0.46048   0.00000  Uiso   1.00
F543   F     0.99906   0.44802   0.47197   0.00000  Uiso   1.00
F544   F     0.67129   0.56525   0.03242   0.00000  Uiso   1.00
C545   C     0.85485   0.48434   0.09724   0.00000  Uiso   1.00
C546   C     0.84954   0.43858   0.11097   0.00000  Uiso   1.00
C547   C     0.83044   0.43292   0.16113   0.00000  Uiso   1.00
H548   H     0.82550   0.39955   0.16823   0.00000  Uiso   1.00
H549   H     0.85690   0.44620   0.17824   0.00000  Uiso   1.00
H550   H     0.79477   0.44743   0.17387   0.00000  Uiso   1.00
H551   H     0.82499   0.42152   0.09425   0.00000  Uiso   1.00
H552   H     0.88528   0.42366   0.10015   0.00000  Uiso   1.00
H553   H     0.88728   0.49785   0.10617   0.00000  Uiso   1.00
H554   H     0.82579   0.50381   0.11725   0.00000  Uiso   1.00
C555   C     0.81266   0.52589   0.40480   0.00000  Uiso   1.00
C556   C     0.82176   0.57013   0.38606   0.00000  Uiso   1.00
C557   C     0.83438   0.57073   0.33514   0.00000  Uiso   1.00
H558   H     0.86908   0.55504   0.32088   0.00000  Uiso   1.00
H559   H     0.80483   0.55550   0.32328   0.00000  Uiso   1.00
H560   H     0.83872   0.60300   0.32327   0.00000  Uiso   1.00
H561   H     0.78888   0.58850   0.39895   0.00000  Uiso   1.00
H562   H     0.85117   0.58634   0.39728   0.00000  Uiso   1.00
H563   H     0.83864   0.50340   0.38567   0.00000  Uiso   1.00
H564   H     0.77808   0.51385   0.39876   0.00000  Uiso   1.00
C565   C     0.92295   0.36725   0.21844   0.00000  Uiso   1.00
C566   C     0.88101   0.36365   0.26156   0.00000  Uiso   1.00
C567   C     0.83137   0.36896   0.25349   0.00000  Uiso   1.00
H568   H     0.82811   0.40069   0.24275   0.00000  Uiso   1.00
H569   H     0.82536   0.34670   0.22794   0.00000  Uiso   1.00
H570   H     0.80297   0.36337   0.28526   0.00000  Uiso   1.00
H571   H     0.88080   0.66608   0.27656   0.00000  Uiso   1.00
H572   H     0.88643   0.38684   0.28646   0.00000  Uiso   1.00
H573   H     0.92728   0.39867   0.20450   0.00000  Uiso   1.00
H574   H     0.91372   0.34812   0.19178   0.00000  Uiso   1.00
C575   C     0.71145   0.62734   0.31380   0.00000  Uiso   1.00
C576   C     0.66966   0.61139   0.35275   0.00000  Uiso   1.00
C577   C     0.68861   0.59189   0.38895   0.00000  Uiso   1.00
H578   H     0.71195   0.56563   0.37490   0.00000  Uiso   1.00
H579   H     0.70971   0.61503   0.40314   0.00000  Uiso   1.00
H580   H     0.99089   0.58041   0.41634   0.00000  Uiso   1.00
H581   H     0.97951   0.63734   0.36779   0.00000  Uiso   1.00
H582   H     0.98016   0.58823   0.34066   0.00000  Uiso   1.00
H583   H     0.73672   0.60254   0.29927   0.00000  Uiso   1.00
H584   H     0.73369   0.64986   0.32754   0.00000  Uiso   1.00
F585   F     0.95210   0.62021   0.19976   0.00000  Uiso   1.00
F586   F     0.71281   0.37957   0.30262   0.00000  Uiso   1.00
F587   F     0.76639   0.45385   0.31058   0.00000  Uiso   1.00
F588   F     0.90010   0.54680   0.19001   0.00000  Uiso   1.00
C589   C     0.33248   0.75396   0.24996   0.00000  Uiso   1.00
C590   C     0.00055   0.91254   0.25057   0.00000  Uiso   1.00
C591   C     0.19523   0.82102   0.04686   0.00000  Uiso   1.00
C592   C     0.14132   0.85874   0.45510   0.00000  Uiso   1.00
C593   C     0.24171   0.81026   0.02180   0.00000  Uiso   1.00
C594   C     0.09609   0.87179   0.48105   0.00000  Uiso   1.00
C595   C     0.30187   0.68530   0.22872   0.00000  Uiso   1.00
C596   C     0.02475   0.98032   0.27843   0.00000  Uiso   1.00
C597   C     0.30845   0.97644   0.22532   0.00000  Uiso   1.00
C598   C     0.02437   0.68981   0.27629   0.00000  Uiso   1.00
C599   C     0.00171   0.95710   0.25072   0.00000  Uiso   1.00
C600   C     0.33052   0.70915   0.25115   0.00000  Uiso   1.00
C601   C     0.18199   0.81027   0.28008   0.00000  Uiso   1.00
C602   C     0.15120   0.85695   0.22041   0.00000  Uiso   1.00
C603   C     0.13241   0.81032   0.28017   0.00000  Uiso   1.00
C604   C     0.20081   0.85680   0.22024   0.00000  Uiso   1.00
C605   C     0.30624   0.83345   0.33593   0.00000  Uiso   1.00
C606   C     0.02720   0.83355   0.16396   0.00000  Uiso   1.00
C607   C     0.29198   0.83021   0.38461   0.00000  Uiso   1.00
C608   C     0.04194   0.83980   0.11544   0.00000  Uiso   1.00
C609   C     0.30326   0.80186   0.45191   0.00000  Uiso   1.00
C610   C     0.03303   0.87556   0.05093   0.00000  Uiso   1.00
C611   C     0.31978   0.80813   0.40623   0.00000  Uiso   1.00
C612   C     0.01503   0.86475   0.09555   0.00000  Uiso   1.00
C613   C     0.24841   0.84674   0.40913   0.00000  Uiso   1.00
C614   C     0.08640   0.82531   0.09006   0.00000  Uiso   1.00
C615   C     0.22620   0.83498   0.45363   0.00000  Uiso   1.00
C616   C     0.10969   0.84135   0.04741   0.00000  Uiso   1.00
C617   C     0.25660   0.81504   0.47586   0.00000  Uiso   1.00
C618   C     0.08013   0.86378   0.02650   0.00000  Uiso   1.00
C619   C     0.17632   0.84333   0.47690   0.00000  Uiso   1.00
C620   C     0.16000   0.83474   0.02448   0.00000  Uiso   1.00
Cu621  Cu    0.04689   0.83334   0.25000   0.00000  Uiso   1.00
Cu622  Cu    0.28645   0.83333   0.25000   0.00000  Uiso   1.00
H623   H     0.10113   0.80079   0.10436   0.00000  Uiso   1.00
H624   H     0.23414   0.86977   0.39255   0.00000  Uiso   1.00
H625   H     0.31364   0.87621   0.11458   0.00000  Uiso   1.00
H626   H     0.02086   0.79565   0.38784   0.00000  Uiso   1.00
H627   H     0.19304   0.79186   0.30424   0.00000  Uiso   1.00
H628   H     0.14002   0.87578   0.19665   0.00000  Uiso   1.00
N629   N     0.11736   0.83334   0.24999   0.00000  Uiso   1.00
N630   N     0.21597   0.83332   0.25001   0.00000  Uiso   1.00
O631   O     0.03958   0.77322   0.25000   0.00000  Uiso   1.00
O632   O     0.29375   0.89345   0.25000   0.00000  Uiso   1.00
O633   O     0.29372   0.77321   0.25001   0.00000  Uiso   1.00
O634   O     0.03961   0.89346   0.24999   0.00000  Uiso   1.00
O635   O     0.01852   0.83334   0.31492   0.00000  Uiso   1.00
O636   O     0.31481   0.83332   0.18509   0.00000  Uiso   1.00
O637   O     0.27267   0.83333   0.31492   0.00000  Uiso   1.00
O638   O     0.06067   0.83333   0.18508   0.00000  Uiso   1.00
F639   F     0.27424   0.79700   0.04330   0.00000  Uiso   1.00
F640   F     0.06482   0.88871   0.46048   0.00000  Uiso   1.00
F641   F     0.33240   0.78135   0.47197   0.00000  Uiso   1.00
F642   F     0.00463   0.89858   0.03242   0.00000  Uiso   1.00
C643   C     0.18818   0.81767   0.09724   0.00000  Uiso   1.00
C644   C     0.18287   0.77192   0.11097   0.00000  Uiso   1.00
C645   C     0.16377   0.76626   0.16113   0.00000  Uiso   1.00
H646   H     0.15884   0.73288   0.16823   0.00000  Uiso   1.00
H647   H     0.19024   0.77953   0.17824   0.00000  Uiso   1.00
H648   H     0.12810   0.78077   0.17387   0.00000  Uiso   1.00
H649   H     0.15832   0.75485   0.09425   0.00000  Uiso   1.00
H650   H     0.21861   0.75700   0.10015   0.00000  Uiso   1.00
H651   H     0.22061   0.83119   0.10617   0.00000  Uiso   1.00
H652   H     0.15912   0.83714   0.11725   0.00000  Uiso   1.00
C653   C     0.14599   0.85922   0.40480   0.00000  Uiso   1.00
C654   C     0.15509   0.90346   0.38606   0.00000  Uiso   1.00
C655   C     0.16771   0.90406   0.33514   0.00000  Uiso   1.00
H656   H     0.20241   0.88837   0.32088   0.00000  Uiso   1.00
H657   H     0.13817   0.88883   0.32328   0.00000  Uiso   1.00
H658   H     0.17205   0.93634   0.32327   0.00000  Uiso   1.00
H659   H     0.12221   0.92184   0.39895   0.00000  Uiso   1.00
H660   H     0.18450   0.91967   0.39728   0.00000  Uiso   1.00
H661   H     0.17197   0.83674   0.38567   0.00000  Uiso   1.00
H662   H     0.11141   0.84719   0.39876   0.00000  Uiso   1.00
C663   C     0.25628   0.70059   0.21844   0.00000  Uiso   1.00
C664   C     0.21434   0.69698   0.26156   0.00000  Uiso   1.00
C665   C     0.16470   0.70229   0.25349   0.00000  Uiso   1.00
H666   H     0.16145   0.73402   0.24275   0.00000  Uiso   1.00
H667   H     0.15870   0.68003   0.22794   0.00000  Uiso   1.00
H668   H     0.13630   0.69671   0.28526   0.00000  Uiso   1.00
H669   H     0.21414   0.99942   0.27656   0.00000  Uiso   1.00
H670   H     0.21976   0.72017   0.28646   0.00000  Uiso   1.00
H671   H     0.26061   0.73201   0.20450   0.00000  Uiso   1.00
H672   H     0.24705   0.68146   0.19178   0.00000  Uiso   1.00
C673   C     0.04479   0.96067   0.31380   0.00000  Uiso   1.00
C674   C     0.00299   0.94472   0.35275   0.00000  Uiso   1.00
C675   C     0.02195   0.92523   0.38895   0.00000  Uiso   1.00
H676   H     0.04529   0.89896   0.37490   0.00000  Uiso   1.00
H677   H     0.04304   0.94837   0.40314   0.00000  Uiso   1.00
H678   H     0.32422   0.91375   0.41634   0.00000  Uiso   1.00
H679   H     0.31284   0.97068   0.36779   0.00000  Uiso   1.00
H680   H     0.31349   0.92156   0.34066   0.00000  Uiso   1.00
H681   H     0.07005   0.93587   0.29927   0.00000  Uiso   1.00
H682   H     0.06702   0.98320   0.32754   0.00000  Uiso   1.00
F683   F     0.28544   0.95354   0.19976   0.00000  Uiso   1.00
F684   F     0.04614   0.71291   0.30262   0.00000  Uiso   1.00
F685   F     0.09973   0.78718   0.31058   0.00000  Uiso   1.00
F686   F     0.23344   0.88013   0.19001   0.00000  Uiso   1.00
C687   C     0.66582   0.75396   0.24996   0.00000  Uiso   1.00
C688   C     0.33389   0.91254   0.25057   0.00000  Uiso   1.00
C689   C     0.52857   0.82102   0.04686   0.00000  Uiso   1.00
C690   C     0.47466   0.85874   0.45510   0.00000  Uiso   1.00
C691   C     0.57505   0.81026   0.02180   0.00000  Uiso   1.00
C692   C     0.42942   0.87179   0.48105   0.00000  Uiso   1.00
C693   C     0.63520   0.68530   0.22872   0.00000  Uiso   1.00
C694   C     0.35809   0.98032   0.27843   0.00000  Uiso   1.00
C695   C     0.64178   0.97644   0.22532   0.00000  Uiso   1.00
C696   C     0.35770   0.68981   0.27629   0.00000  Uiso   1.00
C697   C     0.33505   0.95710   0.25072   0.00000  Uiso   1.00
C698   C     0.66385   0.70915   0.25115   0.00000  Uiso   1.00
C699   C     0.51532   0.81027   0.28008   0.00000  Uiso   1.00
C700   C     0.48454   0.85695   0.22041   0.00000  Uiso   1.00
C701   C     0.46574   0.81032   0.28017   0.00000  Uiso   1.00
C702   C     0.53414   0.85680   0.22024   0.00000  Uiso   1.00
C703   C     0.63957   0.83345   0.33593   0.00000  Uiso   1.00
C704   C     0.36053   0.83355   0.16396   0.00000  Uiso   1.00
C705   C     0.62531   0.83021   0.38461   0.00000  Uiso   1.00
C706   C     0.37527   0.83980   0.11544   0.00000  Uiso   1.00
C707   C     0.63659   0.80186   0.45191   0.00000  Uiso   1.00
C708   C     0.36636   0.87556   0.05093   0.00000  Uiso   1.00
C709   C     0.65312   0.80813   0.40623   0.00000  Uiso   1.00
C710   C     0.34837   0.86475   0.09555   0.00000  Uiso   1.00
C711   C     0.58174   0.84674   0.40913   0.00000  Uiso   1.00
C712   C     0.41973   0.82531   0.09006   0.00000  Uiso   1.00
C713   C     0.55954   0.83498   0.45363   0.00000  Uiso   1.00
C714   C     0.44302   0.84135   0.04741   0.00000  Uiso   1.00
C715   C     0.58993   0.81504   0.47586   0.00000  Uiso   1.00
C716   C     0.41346   0.86378   0.02650   0.00000  Uiso   1.00
C717   C     0.50966   0.84333   0.47690   0.00000  Uiso   1.00
C718   C     0.49334   0.83474   0.02448   0.00000  Uiso   1.00
Cu719  Cu    0.38022   0.83334   0.25000   0.00000  Uiso   1.00
Cu720  Cu    0.61978   0.83333   0.25000   0.00000  Uiso   1.00
H721   H     0.43446   0.80079   0.10436   0.00000  Uiso   1.00
H722   H     0.56748   0.86977   0.39255   0.00000  Uiso   1.00
H723   H     0.64697   0.87621   0.11458   0.00000  Uiso   1.00
H724   H     0.35420   0.79565   0.38784   0.00000  Uiso   1.00
H725   H     0.52637   0.79186   0.30424   0.00000  Uiso   1.00
H726   H     0.47336   0.87578   0.19665   0.00000  Uiso   1.00
N727   N     0.45069   0.83334   0.24999   0.00000  Uiso   1.00
N728   N     0.54931   0.83332   0.25001   0.00000  Uiso   1.00
O729   O     0.37291   0.77322   0.25000   0.00000  Uiso   1.00
O730   O     0.62709   0.89345   0.25000   0.00000  Uiso   1.00
O731   O     0.62706   0.77321   0.25001   0.00000  Uiso   1.00
O732   O     0.37294   0.89346   0.24999   0.00000  Uiso   1.00
O733   O     0.35186   0.83334   0.31492   0.00000  Uiso   1.00
O734   O     0.64814   0.83332   0.18509   0.00000  Uiso   1.00
O735   O     0.60600   0.83333   0.31492   0.00000  Uiso   1.00
O736   O     0.39400   0.83333   0.18508   0.00000  Uiso   1.00
F737   F     0.60758   0.79700   0.04330   0.00000  Uiso   1.00
F738   F     0.39815   0.88871   0.46048   0.00000  Uiso   1.00
F739   F     0.66573   0.78135   0.47197   0.00000  Uiso   1.00
F740   F     0.33796   0.89858   0.03242   0.00000  Uiso   1.00
C741   C     0.52152   0.81767   0.09724   0.00000  Uiso   1.00
C742   C     0.51621   0.77192   0.11097   0.00000  Uiso   1.00
C743   C     0.49710   0.76626   0.16113   0.00000  Uiso   1.00
H744   H     0.49217   0.73288   0.16823   0.00000  Uiso   1.00
H745   H     0.52357   0.77953   0.17824   0.00000  Uiso   1.00
H746   H     0.46143   0.78077   0.17387   0.00000  Uiso   1.00
H747   H     0.49165   0.75485   0.09425   0.00000  Uiso   1.00
H748   H     0.55194   0.75700   0.10015   0.00000  Uiso   1.00
H749   H     0.55394   0.83119   0.10617   0.00000  Uiso   1.00
H750   H     0.49245   0.83714   0.11725   0.00000  Uiso   1.00
C751   C     0.47932   0.85922   0.40480   0.00000  Uiso   1.00
C752   C     0.48842   0.90346   0.38606   0.00000  Uiso   1.00
C753   C     0.50105   0.90406   0.33514   0.00000  Uiso   1.00
H754   H     0.53575   0.88837   0.32088   0.00000  Uiso   1.00
H755   H     0.47150   0.88883   0.32328   0.00000  Uiso   1.00
H756   H     0.50538   0.93634   0.32327   0.00000  Uiso   1.00
H757   H     0.45554   0.92184   0.39895   0.00000  Uiso   1.00
H758   H     0.51784   0.91967   0.39728   0.00000  Uiso   1.00
H759   H     0.50530   0.83674   0.38567   0.00000  Uiso   1.00
H760   H     0.44474   0.84719   0.39876   0.00000  Uiso   1.00
C761   C     0.58962   0.70059   0.21844   0.00000  Uiso   1.00
C762   C     0.54767   0.69698   0.26156   0.00000  Uiso   1.00
C763   C     0.49803   0.70229   0.25349   0.00000  Uiso   1.00
H764   H     0.49478   0.73402   0.24275   0.00000  Uiso   1.00
H765   H     0.49203   0.68003   0.22794   0.00000  Uiso   1.00
H766   H     0.46963   0.69671   0.28526   0.00000  Uiso   1.00
H767   H     0.54747   0.99942   0.27656   0.00000  Uiso   1.00
H768   H     0.55310   0.72017   0.28646   0.00000  Uiso   1.00
H769   H     0.59394   0.73201   0.20450   0.00000  Uiso   1.00
H770   H     0.58039   0.68146   0.19178   0.00000  Uiso   1.00
C771   C     0.37812   0.96067   0.31380   0.00000  Uiso   1.00
C772   C     0.33632   0.94472   0.35275   0.00000  Uiso   1.00
C773   C     0.35528   0.92523   0.38895   0.00000  Uiso   1.00
H774   H     0.37862   0.89896   0.37490   0.00000  Uiso   1.00
H775   H     0.37638   0.94837   0.40314   0.00000  Uiso   1.00
H776   H     0.65755   0.91375   0.41634   0.00000  Uiso   1.00
H777   H     0.64618   0.97068   0.36779   0.00000  Uiso   1.00
H778   H     0.64683   0.92156   0.34066   0.00000  Uiso   1.00
H779   H     0.40339   0.93587   0.29927   0.00000  Uiso   1.00
H780   H     0.40036   0.98320   0.32754   0.00000  Uiso   1.00
F781   F     0.61877   0.95354   0.19976   0.00000  Uiso   1.00
F782   F     0.37948   0.71291   0.30262   0.00000  Uiso   1.00
F783   F     0.43306   0.78718   0.31058   0.00000  Uiso   1.00
F784   F     0.56677   0.88013   0.19001   0.00000  Uiso   1.00
C785   C     0.99915   0.75396   0.24996   0.00000  Uiso   1.00
C786   C     0.66722   0.91254   0.25057   0.00000  Uiso   1.00
C787   C     0.86190   0.82102   0.04686   0.00000  Uiso   1.00
C788   C     0.80799   0.85874   0.45510   0.00000  Uiso   1.00
C789   C     0.90838   0.81026   0.02180   0.00000  Uiso   1.00
C790   C     0.76275   0.87179   0.48105   0.00000  Uiso   1.00
C791   C     0.96853   0.68530   0.22872   0.00000  Uiso   1.00
C792   C     0.69142   0.98032   0.27843   0.00000  Uiso   1.00
C793   C     0.97511   0.97644   0.22532   0.00000  Uiso   1.00
C794   C     0.69104   0.68981   0.27629   0.00000  Uiso   1.00
C795   C     0.66838   0.95710   0.25072   0.00000  Uiso   1.00
C796   C     0.99718   0.70915   0.25115   0.00000  Uiso   1.00
C797   C     0.84866   0.81027   0.28008   0.00000  Uiso   1.00
C798   C     0.81787   0.85695   0.22041   0.00000  Uiso   1.00
C799   C     0.79907   0.81032   0.28017   0.00000  Uiso   1.00
C800   C     0.86748   0.85680   0.22024   0.00000  Uiso   1.00
C801   C     0.97290   0.83345   0.33593   0.00000  Uiso   1.00
C802   C     0.69387   0.83355   0.16396   0.00000  Uiso   1.00
C803   C     0.95864   0.83021   0.38461   0.00000  Uiso   1.00
C804   C     0.70860   0.83980   0.11544   0.00000  Uiso   1.00
C805   C     0.96992   0.80186   0.45191   0.00000  Uiso   1.00
C806   C     0.69970   0.87556   0.05093   0.00000  Uiso   1.00
C807   C     0.98645   0.80813   0.40623   0.00000  Uiso   1.00
C808   C     0.68170   0.86475   0.09555   0.00000  Uiso   1.00
C809   C     0.91507   0.84674   0.40913   0.00000  Uiso   1.00
C810   C     0.75307   0.82531   0.09006   0.00000  Uiso   1.00
C811   C     0.89287   0.83498   0.45363   0.00000  Uiso   1.00
C812   C     0.77635   0.84135   0.04741   0.00000  Uiso   1.00
C813   C     0.92327   0.81504   0.47586   0.00000  Uiso   1.00
C814   C     0.74680   0.86378   0.02650   0.00000  Uiso   1.00
C815   C     0.84299   0.84333   0.47690   0.00000  Uiso   1.00
C816   C     0.82667   0.83474   0.02448   0.00000  Uiso   1.00
Cu817  Cu    0.71355   0.83334   0.25000   0.00000  Uiso   1.00
Cu818  Cu    0.95311   0.83333   0.25000   0.00000  Uiso   1.00
H819   H     0.76780   0.80079   0.10436   0.00000  Uiso   1.00
H820   H     0.90081   0.86977   0.39255   0.00000  Uiso   1.00
H821   H     0.98031   0.87621   0.11458   0.00000  Uiso   1.00
H822   H     0.68753   0.79565   0.38784   0.00000  Uiso   1.00
H823   H     0.85971   0.79186   0.30424   0.00000  Uiso   1.00
H824   H     0.80669   0.87578   0.19665   0.00000  Uiso   1.00
N825   N     0.78403   0.83334   0.24999   0.00000  Uiso   1.00
N826   N     0.88264   0.83332   0.25001   0.00000  Uiso   1.00
O827   O     0.70625   0.77322   0.25000   0.00000  Uiso   1.00
O828   O     0.96042   0.89345   0.25000   0.00000  Uiso   1.00
O829   O     0.96039   0.77321   0.25001   0.00000  Uiso   1.00
O830   O     0.70628   0.89346   0.24999   0.00000  Uiso   1.00
O831   O     0.68519   0.83334   0.31492   0.00000  Uiso   1.00
O832   O     0.98148   0.83332   0.18509   0.00000  Uiso   1.00
O833   O     0.93933   0.83333   0.31492   0.00000  Uiso   1.00
O834   O     0.72733   0.83333   0.18508   0.00000  Uiso   1.00
F835   F     0.94091   0.79700   0.04330   0.00000  Uiso   1.00
F836   F     0.73148   0.88871   0.46048   0.00000  Uiso   1.00
F837   F     0.99906   0.78135   0.47197   0.00000  Uiso   1.00
F838   F     0.67129   0.89858   0.03242   0.00000  Uiso   1.00
C839   C     0.85485   0.81767   0.09724   0.00000  Uiso   1.00
C840   C     0.84954   0.77192   0.11097   0.00000  Uiso   1.00
C841   C     0.83044   0.76626   0.16113   0.00000  Uiso   1.00
H842   H     0.82550   0.73288   0.16823   0.00000  Uiso   1.00
H843   H     0.85690   0.77953   0.17824   0.00000  Uiso   1.00
H844   H     0.79477   0.78077   0.17387   0.00000  Uiso   1.00
H845   H     0.82499   0.75485   0.09425   0.00000  Uiso   1.00
H846   H     0.88528   0.75700   0.10015   0.00000  Uiso   1.00
H847   H     0.88728   0.83119   0.10617   0.00000  Uiso   1.00
H848   H     0.82579   0.83714   0.11725   0.00000  Uiso   1.00
C849   C     0.81266   0.85922   0.40480   0.00000  Uiso   1.00
C850   C     0.82176   0.90346   0.38606   0.00000  Uiso   1.00
C851   C     0.83438   0.90406   0.33514   0.00000  Uiso   1.00
H852   H     0.86908   0.88837   0.32088   0.00000  Uiso   1.00
H853   H     0.80483   0.88883   0.32328   0.00000  Uiso   1.00
H854   H     0.83872   0.93634   0.32327   0.00000  Uiso   1.00
H855   H     0.78888   0.92184   0.39895   0.00000  Uiso   1.00
H856   H     0.85117   0.91967   0.39728   0.00000  Uiso   1.00
H857   H     0.83864   0.83674   0.38567   0.00000  Uiso   1.00
H858   H     0.77808   0.84719   0.39876   0.00000  Uiso   1.00
C859   C     0.92295   0.70059   0.21844   0.00000  Uiso   1.00
C860   C     0.88101   0.69698   0.26156   0.00000  Uiso   1.00
C861   C     0.83137   0.70229   0.25349   0.00000  Uiso   1.00
H862   H     0.82811   0.73402   0.24275   0.00000  Uiso   1.00
H863   H     0.82536   0.68003   0.22794   0.00000  Uiso   1.00
H864   H     0.80297   0.69671   0.28526   0.00000  Uiso   1.00
H865   H     0.88080   0.99942   0.27656   0.00000  Uiso   1.00
H866   H     0.88643   0.72017   0.28646   0.00000  Uiso   1.00
H867   H     0.92728   0.73201   0.20450   0.00000  Uiso   1.00
H868   H     0.91372   0.68146   0.19178   0.00000  Uiso   1.00
C869   C     0.71145   0.96067   0.31380   0.00000  Uiso   1.00
C870   C     0.66966   0.94472   0.35275   0.00000  Uiso   1.00
C871   C     0.68861   0.92523   0.38895   0.00000  Uiso   1.00
H872   H     0.71195   0.89896   0.37490   0.00000  Uiso   1.00
H873   H     0.70971   0.94837   0.40314   0.00000  Uiso   1.00
H874   H     0.99089   0.91375   0.41634   0.00000  Uiso   1.00
H875   H     0.97951   0.97068   0.36779   0.00000  Uiso   1.00
H876   H     0.98016   0.92156   0.34066   0.00000  Uiso   1.00
H877   H     0.73672   0.93587   0.29927   0.00000  Uiso   1.00
H878   H     0.73369   0.98320   0.32754   0.00000  Uiso   1.00
F879   F     0.95210   0.95354   0.19976   0.00000  Uiso   1.00
F880   F     0.71281   0.71291   0.30262   0.00000  Uiso   1.00
F881   F     0.76639   0.78718   0.31058   0.00000  Uiso   1.00
F882   F     0.90010   0.88013   0.19001   0.00000  Uiso   1.00
C883   C     0.33248   0.08730   0.74996   0.00000  Uiso   1.00
C884   C     0.00055   0.24587   0.75057   0.00000  Uiso   1.00
C885   C     0.19523   0.15435   0.54686   0.00000  Uiso   1.00
C886   C     0.14132   0.19207   0.95510   0.00000  Uiso   1.00
C887   C     0.24171   0.14360   0.52180   0.00000  Uiso   1.00
C888   C     0.09609   0.20512   0.98105   0.00000  Uiso   1.00
C889   C     0.30187   0.01863   0.72872   0.00000  Uiso   1.00
C890   C     0.02475   0.31365   0.77843   0.00000  Uiso   1.00
C891   C     0.30845   0.30977   0.72532   0.00000  Uiso   1.00
C892   C     0.02437   0.02314   0.77629   0.00000  Uiso   1.00
C893   C     0.00171   0.29044   0.75072   0.00000  Uiso   1.00
C894   C     0.33052   0.04249   0.75115   0.00000  Uiso   1.00
C895   C     0.18199   0.14361   0.78008   0.00000  Uiso   1.00
C896   C     0.15120   0.19028   0.72041   0.00000  Uiso   1.00
C897   C     0.13241   0.14366   0.78017   0.00000  Uiso   1.00
C898   C     0.20081   0.19013   0.72024   0.00000  Uiso   1.00
C899   C     0.30624   0.16678   0.83593   0.00000  Uiso   1.00
C900   C     0.02720   0.16688   0.66396   0.00000  Uiso   1.00
C901   C     0.29198   0.16355   0.88461   0.00000  Uiso   1.00
C902   C     0.04194   0.17314   0.61544   0.00000  Uiso   1.00
C903   C     0.30326   0.13520   0.95191   0.00000  Uiso   1.00
C904   C     0.03303   0.20889   0.55093   0.00000  Uiso   1.00
C905   C     0.31978   0.14146   0.90623   0.00000  Uiso   1.00
C906   C     0.01503   0.19809   0.59555   0.00000  Uiso   1.00
C907   C     0.24841   0.18007   0.90913   0.00000  Uiso   1.00
C908   C     0.08640   0.15864   0.59006   0.00000  Uiso   1.00
C909   C     0.22620   0.16832   0.95363   0.00000  Uiso   1.00
C910   C     0.10969   0.17469   0.54741   0.00000  Uiso   1.00
C911   C     0.25660   0.14837   0.97586   0.00000  Uiso   1.00
C912   C     0.08013   0.19712   0.52650   0.00000  Uiso   1.00
C913   C     0.17632   0.17666   0.97690   0.00000  Uiso   1.00
C914   C     0.16000   0.16808   0.52448   0.00000  Uiso   1.00
Cu915  Cu    0.04689   0.16667   0.75000   0.00000  Uiso   1.00
Cu916  Cu    0.28645   0.16666   0.75000   0.00000  Uiso   1.00
H917   H     0.10113   0.13412   0.60436   0.00000  Uiso   1.00
H918   H     0.23414   0.20310   0.89255   0.00000  Uiso   1.00
H919   H     0.31364   0.20954   0.61458   0.00000  Uiso   1.00
H920   H     0.02086   0.12899   0.88784   0.00000  Uiso   1.00
H921   H     0.19304   0.12519   0.80424   0.00000  Uiso   1.00
H922   H     0.14002   0.20912   0.69665   0.00000  Uiso   1.00
N923   N     0.11736   0.16668   0.74999   0.00000  Uiso   1.00
N924   N     0.21597   0.16666   0.75001   0.00000  Uiso   1.00
O925   O     0.03958   0.10655   0.75000   0.00000  Uiso   1.00
O926   O     0.29375   0.22678   0.75000   0.00000  Uiso   1.00
O927   O     0.29372   0.10654   0.75001   0.00000  Uiso   1.00
O928   O     0.03961   0.22679   0.74999   0.00000  Uiso   1.00
O929   O     0.01852   0.16668   0.81492   0.00000  Uiso   1.00
O930   O     0.31481   0.16666   0.68509   0.00000  Uiso   1.00
O931   O     0.27267   0.16667   0.81492   0.00000  Uiso   1.00
O932   O     0.06067   0.16667   0.68508   0.00000  Uiso   1.00
F933   F     0.27424   0.13033   0.54330   0.00000  Uiso   1.00
F934   F     0.06482   0.22204   0.96048   0.00000  Uiso   1.00
F935   F     0.33240   0.11469   0.97197   0.00000  Uiso   1.00
F936   F     0.00463   0.23192   0.53242   0.00000  Uiso   1.00
C937   C     0.18818   0.15101   0.59724   0.00000  Uiso   1.00
C938   C     0.18287   0.10525   0.61097   0.00000  Uiso   1.00
C939   C     0.16377   0.09959   0.66113   0.00000  Uiso   1.00
H940   H     0.15884   0.06621   0.66823   0.00000  Uiso   1.00
H941   H     0.19024   0.11287   0.67824   0.00000  Uiso   1.00
H942   H     0.12810   0.11410   0.67387   0.00000  Uiso   1.00
H943   H     0.15832   0.08818   0.59425   0.00000  Uiso   1.00
H944   H     0.21861   0.09033   0.60015   0.00000  Uiso   1.00
H945   H     0.22061   0.16452   0.60617   0.00000  Uiso   1.00
H946   H     0.15912   0.17047   0.61725   0.00000  Uiso   1.00
C947   C     0.14599   0.19256   0.90480   0.00000  Uiso   1.00
C948   C     0.15509   0.23679   0.88606   0.00000  Uiso   1.00
C949   C     0.16771   0.23740   0.83514   0.00000  Uiso   1.00
H950   H     0.20241   0.22170   0.82088   0.00000  Uiso   1.00
H951   H     0.13817   0.22216   0.82328   0.00000  Uiso   1.00
H952   H     0.17205   0.26967   0.82327   0.00000  Uiso   1.00
H953   H     0.12221   0.25517   0.89895   0.00000  Uiso   1.00
H954   H     0.18450   0.25301   0.89728   0.00000  Uiso   1.00
H955   H     0.17197   0.17007   0.88567   0.00000  Uiso   1.00
H956   H     0.11141   0.18052   0.89876   0.00000  Uiso   1.00
C957   C     0.25628   0.03392   0.71844   0.00000  Uiso   1.00
C958   C     0.21434   0.03032   0.76156   0.00000  Uiso   1.00
C959   C     0.16470   0.03562   0.75349   0.00000  Uiso   1.00
H960   H     0.16145   0.06735   0.74275   0.00000  Uiso   1.00
H961   H     0.15870   0.01336   0.72794   0.00000  Uiso   1.00
H962   H     0.13630   0.03004   0.78526   0.00000  Uiso   1.00
H963   H     0.21414   0.33275   0.77656   0.00000  Uiso   1.00
H964   H     0.21976   0.05351   0.78646   0.00000  Uiso   1.00
H965   H     0.26061   0.06534   0.70450   0.00000  Uiso   1.00
H966   H     0.24705   0.01479   0.69178   0.00000  Uiso   1.00
C967   C     0.04479   0.29401   0.81380   0.00000  Uiso   1.00
C968   C     0.00299   0.27806   0.85275   0.00000  Uiso   1.00
C969   C     0.02195   0.25856   0.88895   0.00000  Uiso   1.00
H970   H     0.04529   0.23229   0.87490   0.00000  Uiso   1.00
H971   H     0.04304   0.28170   0.90314   0.00000  Uiso   1.00
H972   H     0.32422   0.24708   0.91634   0.00000  Uiso   1.00
H973   H     0.31284   0.30401   0.86779   0.00000  Uiso   1.00
H974   H     0.31349   0.25490   0.84066   0.00000  Uiso   1.00
H975   H     0.07005   0.26920   0.79927   0.00000  Uiso   1.00
H976   H     0.06702   0.31653   0.82754   0.00000  Uiso   1.00
F977   F     0.28544   0.28687   0.69976   0.00000  Uiso   1.00
F978   F     0.04614   0.04624   0.80262   0.00000  Uiso   1.00
F979   F     0.09973   0.12051   0.81058   0.00000  Uiso   1.00
F980   F     0.23344   0.21347   0.69001   0.00000  Uiso   1.00
C981   C     0.66582   0.08730   0.74996   0.00000  Uiso   1.00
C982   C     0.33389   0.24587   0.75057   0.00000  Uiso   1.00
C983   C     0.52857   0.15435   0.54686   0.00000  Uiso   1.00
C984   C     0.47466   0.19207   0.95510   0.00000  Uiso   1.00
C985   C     0.57505   0.14360   0.52180   0.00000  Uiso   1.00
C986   C     0.42942   0.20512   0.98105   0.00000  Uiso   1.00
C987   C     0.63520   0.01863   0.72872   0.00000  Uiso   1.00
C988   C     0.35809   0.31365   0.77843   0.00000  Uiso   1.00
C989   C     0.64178   0.30977   0.72532   0.00000  Uiso   1.00
C990   C     0.35770   0.02314   0.77629   0.00000  Uiso   1.00
C991   C     0.33505   0.29044   0.75072   0.00000  Uiso   1.00
C992   C     0.66385   0.04249   0.75115   0.00000  Uiso   1.00
C993   C     0.51532   0.14361   0.78008   0.00000  Uiso   1.00
C994   C     0.48454   0.19028   0.72041   0.00000  Uiso   1.00
C995   C     0.46574   0.14366   0.78017   0.00000  Uiso   1.00
C996   C     0.53414   0.19013   0.72024   0.00000  Uiso   1.00
C997   C     0.63957   0.16678   0.83593   0.00000  Uiso   1.00
C998   C     0.36053   0.16688   0.66396   0.00000  Uiso   1.00
C999   C     0.62531   0.16355   0.88461   0.00000  Uiso   1.00
C1000  C     0.37527   0.17314   0.61544   0.00000  Uiso   1.00
C1001  C     0.63659   0.13520   0.95191   0.00000  Uiso   1.00
C1002  C     0.36636   0.20889   0.55093   0.00000  Uiso   1.00
C1003  C     0.65312   0.14146   0.90623   0.00000  Uiso   1.00
C1004  C     0.34837   0.19809   0.59555   0.00000  Uiso   1.00
C1005  C     0.58174   0.18007   0.90913   0.00000  Uiso   1.00
C1006  C     0.41973   0.15864   0.59006   0.00000  Uiso   1.00
C1007  C     0.55954   0.16832   0.95363   0.00000  Uiso   1.00
C1008  C     0.44302   0.17469   0.54741   0.00000  Uiso   1.00
C1009  C     0.58993   0.14837   0.97586   0.00000  Uiso   1.00
C1010  C     0.41346   0.19712   0.52650   0.00000  Uiso   1.00
C1011  C     0.50966   0.17666   0.97690   0.00000  Uiso   1.00
C1012  C     0.49334   0.16808   0.52448   0.00000  Uiso   1.00
Cu1013 Cu    0.38022   0.16667   0.75000   0.00000  Uiso   1.00
Cu1014 Cu    0.61978   0.16666   0.75000   0.00000  Uiso   1.00
H1015  H     0.43446   0.13412   0.60436   0.00000  Uiso   1.00
H1016  H     0.56748   0.20310   0.89255   0.00000  Uiso   1.00
H1017  H     0.64697   0.20954   0.61458   0.00000  Uiso   1.00
H1018  H     0.35420   0.12899   0.88784   0.00000  Uiso   1.00
H1019  H     0.52637   0.12519   0.80424   0.00000  Uiso   1.00
H1020  H     0.47336   0.20912   0.69665   0.00000  Uiso   1.00
N1021  N     0.45069   0.16668   0.74999   0.00000  Uiso   1.00
N1022  N     0.54931   0.16666   0.75001   0.00000  Uiso   1.00
O1023  O     0.37291   0.10655   0.75000   0.00000  Uiso   1.00
O1024  O     0.62709   0.22678   0.75000   0.00000  Uiso   1.00
O1025  O     0.62706   0.10654   0.75001   0.00000  Uiso   1.00
O1026  O     0.37294   0.22679   0.74999   0.00000  Uiso   1.00
O1027  O     0.35186   0.16668   0.81492   0.00000  Uiso   1.00
O1028  O     0.64814   0.16666   0.68509   0.00000  Uiso   1.00
O1029  O     0.60600   0.16667   0.81492   0.00000  Uiso   1.00
O1030  O     0.39400   0.16667   0.68508   0.00000  Uiso   1.00
F1031  F     0.60758   0.13033   0.54330   0.00000  Uiso   1.00
F1032  F     0.39815   0.22204   0.96048   0.00000  Uiso   1.00
F1033  F     0.66573   0.11469   0.97197   0.00000  Uiso   1.00
F1034  F     0.33796   0.23192   0.53242   0.00000  Uiso   1.00
C1035  C     0.52152   0.15101   0.59724   0.00000  Uiso   1.00
C1036  C     0.51621   0.10525   0.61097   0.00000  Uiso   1.00
C1037  C     0.49710   0.09959   0.66113   0.00000  Uiso   1.00
H1038  H     0.49217   0.06621   0.66823   0.00000  Uiso   1.00
H1039  H     0.52357   0.11287   0.67824   0.00000  Uiso   1.00
H1040  H     0.46143   0.11410   0.67387   0.00000  Uiso   1.00
H1041  H     0.49165   0.08818   0.59425   0.00000  Uiso   1.00
H1042  H     0.55194   0.09033   0.60015   0.00000  Uiso   1.00
H1043  H     0.55394   0.16452   0.60617   0.00000  Uiso   1.00
H1044  H     0.49245   0.17047   0.61725   0.00000  Uiso   1.00
C1045  C     0.47932   0.19256   0.90480   0.00000  Uiso   1.00
C1046  C     0.48842   0.23679   0.88606   0.00000  Uiso   1.00
C1047  C     0.50105   0.23740   0.83514   0.00000  Uiso   1.00
H1048  H     0.53575   0.22170   0.82088   0.00000  Uiso   1.00
H1049  H     0.47150   0.22216   0.82328   0.00000  Uiso   1.00
H1050  H     0.50538   0.26967   0.82327   0.00000  Uiso   1.00
H1051  H     0.45554   0.25517   0.89895   0.00000  Uiso   1.00
H1052  H     0.51784   0.25301   0.89728   0.00000  Uiso   1.00
H1053  H     0.50530   0.17007   0.88567   0.00000  Uiso   1.00
H1054  H     0.44474   0.18052   0.89876   0.00000  Uiso   1.00
C1055  C     0.58962   0.03392   0.71844   0.00000  Uiso   1.00
C1056  C     0.54767   0.03032   0.76156   0.00000  Uiso   1.00
C1057  C     0.49803   0.03562   0.75349   0.00000  Uiso   1.00
H1058  H     0.49478   0.06735   0.74275   0.00000  Uiso   1.00
H1059  H     0.49203   0.01336   0.72794   0.00000  Uiso   1.00
H1060  H     0.46963   0.03004   0.78526   0.00000  Uiso   1.00
H1061  H     0.54747   0.33275   0.77656   0.00000  Uiso   1.00
H1062  H     0.55310   0.05351   0.78646   0.00000  Uiso   1.00
H1063  H     0.59394   0.06534   0.70450   0.00000  Uiso   1.00
H1064  H     0.58039   0.01479   0.69178   0.00000  Uiso   1.00
C1065  C     0.37812   0.29401   0.81380   0.00000  Uiso   1.00
C1066  C     0.33632   0.27806   0.85275   0.00000  Uiso   1.00
C1067  C     0.35528   0.25856   0.88895   0.00000  Uiso   1.00
H1068  H     0.37862   0.23229   0.87490   0.00000  Uiso   1.00
H1069  H     0.37638   0.28170   0.90314   0.00000  Uiso   1.00
H1070  H     0.65755   0.24708   0.91634   0.00000  Uiso   1.00
H1071  H     0.64618   0.30401   0.86779   0.00000  Uiso   1.00
H1072  H     0.64683   0.25490   0.84066   0.00000  Uiso   1.00
H1073  H     0.40339   0.26920   0.79927   0.00000  Uiso   1.00
H1074  H     0.40036   0.31653   0.82754   0.00000  Uiso   1.00
F1075  F     0.61877   0.28687   0.69976   0.00000  Uiso   1.00
F1076  F     0.37948   0.04624   0.80262   0.00000  Uiso   1.00
F1077  F     0.43306   0.12051   0.81058   0.00000  Uiso   1.00
F1078  F     0.56677   0.21347   0.69001   0.00000  Uiso   1.00
C1079  C     0.99915   0.08730   0.74996   0.00000  Uiso   1.00
C1080  C     0.66722   0.24587   0.75057   0.00000  Uiso   1.00
C1081  C     0.86190   0.15435   0.54686   0.00000  Uiso   1.00
C1082  C     0.80799   0.19207   0.95510   0.00000  Uiso   1.00
C1083  C     0.90838   0.14360   0.52180   0.00000  Uiso   1.00
C1084  C     0.76275   0.20512   0.98105   0.00000  Uiso   1.00
C1085  C     0.96853   0.01863   0.72872   0.00000  Uiso   1.00
C1086  C     0.69142   0.31365   0.77843   0.00000  Uiso   1.00
C1087  C     0.97511   0.30977   0.72532   0.00000  Uiso   1.00
C1088  C     0.69104   0.02314   0.77629   0.00000  Uiso   1.00
C1089  C     0.66838   0.29044   0.75072   0.00000  Uiso   1.00
C1090  C     0.99718   0.04249   0.75115   0.00000  Uiso   1.00
C1091  C     0.84866   0.14361   0.78008   0.00000  Uiso   1.00
C1092  C     0.81787   0.19028   0.72041   0.00000  Uiso   1.00
C1093  C     0.79907   0.14366   0.78017   0.00000  Uiso   1.00
C1094  C     0.86748   0.19013   0.72024   0.00000  Uiso   1.00
C1095  C     0.97290   0.16678   0.83593   0.00000  Uiso   1.00
C1096  C     0.69387   0.16688   0.66396   0.00000  Uiso   1.00
C1097  C     0.95864   0.16355   0.88461   0.00000  Uiso   1.00
C1098  C     0.70860   0.17314   0.61544   0.00000  Uiso   1.00
C1099  C     0.96992   0.13520   0.95191   0.00000  Uiso   1.00
C1100  C     0.69970   0.20889   0.55093   0.00000  Uiso   1.00
C1101  C     0.98645   0.14146   0.90623   0.00000  Uiso   1.00
C1102  C     0.68170   0.19809   0.59555   0.00000  Uiso   1.00
C1103  C     0.91507   0.18007   0.90913   0.00000  Uiso   1.00
C1104  C     0.75307   0.15864   0.59006   0.00000  Uiso   1.00
C1105  C     0.89287   0.16832   0.95363   0.00000  Uiso   1.00
C1106  C     0.77635   0.17469   0.54741   0.00000  Uiso   1.00
C1107  C     0.92327   0.14837   0.97586   0.00000  Uiso   1.00
C1108  C     0.74680   0.19712   0.52650   0.00000  Uiso   1.00
C1109  C     0.84299   0.17666   0.97690   0.00000  Uiso   1.00
C1110  C     0.82667   0.16808   0.52448   0.00000  Uiso   1.00
Cu1111 Cu    0.71355   0.16667   0.75000   0.00000  Uiso   1.00
Cu1112 Cu    0.95311   0.16666   0.75000   0.00000  Uiso   1.00
H1113  H     0.76780   0.13412   0.60436   0.00000  Uiso   1.00
H1114  H     0.90081   0.20310   0.89255   0.00000  Uiso   1.00
H1115  H     0.98031   0.20954   0.61458   0.00000  Uiso   1.00
H1116  H     0.68753   0.12899   0.88784   0.00000  Uiso   1.00
H1117  H     0.85971   0.12519   0.80424   0.00000  Uiso   1.00
H1118  H     0.80669   0.20912   0.69665   0.00000  Uiso   1.00
N1119  N     0.78403   0.16668   0.74999   0.00000  Uiso   1.00
N1120  N     0.88264   0.16666   0.75001   0.00000  Uiso   1.00
O1121  O     0.70625   0.10655   0.75000   0.00000  Uiso   1.00
O1122  O     0.96042   0.22678   0.75000   0.00000  Uiso   1.00
O1123  O     0.96039   0.10654   0.75001   0.00000  Uiso   1.00
O1124  O     0.70628   0.22679   0.74999   0.00000  Uiso   1.00
O1125  O     0.68519   0.16668   0.81492   0.00000  Uiso   1.00
O1126  O     0.98148   0.16666   0.68509   0.00000  Uiso   1.00
O1127  O     0.93933   0.16667   0.81492   0.00000  Uiso   1.00
O1128  O     0.72733   0.16667   0.68508   0.00000  Uiso   1.00
F1129  F     0.94091   0.13033   0.54330   0.00000  Uiso   1.00
F1130  F     0.73148   0.22204   0.96048   0.00000  Uiso   1.00
F1131  F     0.99906   0.11469   0.97197   0.00000  Uiso   1.00
F1132  F     0.67129   0.23192   0.53242   0.00000  Uiso   1.00
C1133  C     0.85485   0.15101   0.59724   0.00000  Uiso   1.00
C1134  C     0.84954   0.10525   0.61097   0.00000  Uiso   1.00
C1135  C     0.83044   0.09959   0.66113   0.00000  Uiso   1.00
H1136  H     0.82550   0.06621   0.66823   0.00000  Uiso   1.00
H1137  H     0.85690   0.11287   0.67824   0.00000  Uiso   1.00
H1138  H     0.79477   0.11410   0.67387   0.00000  Uiso   1.00
H1139  H     0.82499   0.08818   0.59425   0.00000  Uiso   1.00
H1140  H     0.88528   0.09033   0.60015   0.00000  Uiso   1.00
H1141  H     0.88728   0.16452   0.60617   0.00000  Uiso   1.00
H1142  H     0.82579   0.17047   0.61725   0.00000  Uiso   1.00
C1143  C     0.81266   0.19256   0.90480   0.00000  Uiso   1.00
C1144  C     0.82176   0.23679   0.88606   0.00000  Uiso   1.00
C1145  C     0.83438   0.23740   0.83514   0.00000  Uiso   1.00
H1146  H     0.86908   0.22170   0.82088   0.00000  Uiso   1.00
H1147  H     0.80483   0.22216   0.82328   0.00000  Uiso   1.00
H1148  H     0.83872   0.26967   0.82327   0.00000  Uiso   1.00
H1149  H     0.78888   0.25517   0.89895   0.00000  Uiso   1.00
H1150  H     0.85117   0.25301   0.89728   0.00000  Uiso   1.00
H1151  H     0.83864   0.17007   0.88567   0.00000  Uiso   1.00
H1152  H     0.77808   0.18052   0.89876   0.00000  Uiso   1.00
C1153  C     0.92295   0.03392   0.71844   0.00000  Uiso   1.00
C1154  C     0.88101   0.03032   0.76156   0.00000  Uiso   1.00
C1155  C     0.83137   0.03562   0.75349   0.00000  Uiso   1.00
H1156  H     0.82811   0.06735   0.74275   0.00000  Uiso   1.00
H1157  H     0.82536   0.01336   0.72794   0.00000  Uiso   1.00
H1158  H     0.80297   0.03004   0.78526   0.00000  Uiso   1.00
H1159  H     0.88080   0.33275   0.77656   0.00000  Uiso   1.00
H1160  H     0.88643   0.05351   0.78646   0.00000  Uiso   1.00
H1161  H     0.92728   0.06534   0.70450   0.00000  Uiso   1.00
H1162  H     0.91372   0.01479   0.69178   0.00000  Uiso   1.00
C1163  C     0.71145   0.29401   0.81380   0.00000  Uiso   1.00
C1164  C     0.66966   0.27806   0.85275   0.00000  Uiso   1.00
C1165  C     0.68861   0.25856   0.88895   0.00000  Uiso   1.00
H1166  H     0.71195   0.23229   0.87490   0.00000  Uiso   1.00
H1167  H     0.70971   0.28170   0.90314   0.00000  Uiso   1.00
H1168  H     0.99089   0.24708   0.91634   0.00000  Uiso   1.00
H1169  H     0.97951   0.30401   0.86779   0.00000  Uiso   1.00
H1170  H     0.98016   0.25490   0.84066   0.00000  Uiso   1.00
H1171  H     0.73672   0.26920   0.79927   0.00000  Uiso   1.00
H1172  H     0.73369   0.31653   0.82754   0.00000  Uiso   1.00
F1173  F     0.95210   0.28687   0.69976   0.00000  Uiso   1.00
F1174  F     0.71281   0.04624   0.80262   0.00000  Uiso   1.00
F1175  F     0.76639   0.12051   0.81058   0.00000  Uiso   1.00
F1176  F     0.90010   0.21347   0.69001   0.00000  Uiso   1.00
C1177  C     0.33248   0.42063   0.74996   0.00000  Uiso   1.00
C1178  C     0.00055   0.57920   0.75057   0.00000  Uiso   1.00
C1179  C     0.19523   0.48769   0.54686   0.00000  Uiso   1.00
C1180  C     0.14132   0.52541   0.95510   0.00000  Uiso   1.00
C1181  C     0.24171   0.47693   0.52180   0.00000  Uiso   1.00
C1182  C     0.09609   0.53845   0.98105   0.00000  Uiso   1.00
C1183  C     0.30187   0.35196   0.72872   0.00000  Uiso   1.00
C1184  C     0.02475   0.64698   0.77843   0.00000  Uiso   1.00
C1185  C     0.30845   0.64310   0.72532   0.00000  Uiso   1.00
C1186  C     0.02437   0.35647   0.77629   0.00000  Uiso   1.00
C1187  C     0.00171   0.62377   0.75072   0.00000  Uiso   1.00
C1188  C     0.33052   0.37582   0.75115   0.00000  Uiso   1.00
C1189  C     0.18199   0.47694   0.78008   0.00000  Uiso   1.00
C1190  C     0.15120   0.52361   0.72041   0.00000  Uiso   1.00
C1191  C     0.13241   0.47699   0.78017   0.00000  Uiso   1.00
C1192  C     0.20081   0.52347   0.72024   0.00000  Uiso   1.00
C1193  C     0.30624   0.50012   0.83593   0.00000  Uiso   1.00
C1194  C     0.02720   0.50022   0.66396   0.00000  Uiso   1.00
C1195  C     0.29198   0.49688   0.88461   0.00000  Uiso   1.00
C1196  C     0.04194   0.50647   0.61544   0.00000  Uiso   1.00
C1197  C     0.30326   0.46853   0.95191   0.00000  Uiso   1.00
C1198  C     0.03303   0.54222   0.55093   0.00000  Uiso   1.00
C1199  C     0.31978   0.47480   0.90623   0.00000  Uiso   1.00
C1200  C     0.01503   0.53142   0.59555   0.00000  Uiso   1.00
C1201  C     0.24841   0.51341   0.90913   0.00000  Uiso   1.00
C1202  C     0.08640   0.49198   0.59006   0.00000  Uiso   1.00
C1203  C     0.22620   0.50165   0.95363   0.00000  Uiso   1.00
C1204  C     0.10969   0.50802   0.54741   0.00000  Uiso   1.00
C1205  C     0.25660   0.48170   0.97586   0.00000  Uiso   1.00
C1206  C     0.08013   0.53045   0.52650   0.00000  Uiso   1.00
C1207  C     0.17632   0.50999   0.97690   0.00000  Uiso   1.00
C1208  C     0.16000   0.50141   0.52448   0.00000  Uiso   1.00
Cu1209 Cu    0.04689   0.50001   0.75000   0.00000  Uiso   1.00
Cu1210 Cu    0.28645   0.49999   0.75000   0.00000  Uiso   1.00
H1211  H     0.10113   0.46745   0.60436   0.00000  Uiso   1.00
H1212  H     0.23414   0.53643   0.89255   0.00000  Uiso   1.00
H1213  H     0.31364   0.54288   0.61458   0.00000  Uiso   1.00
H1214  H     0.02086   0.46232   0.88784   0.00000  Uiso   1.00
H1215  H     0.19304   0.45853   0.80424   0.00000  Uiso   1.00
H1216  H     0.14002   0.54245   0.69665   0.00000  Uiso   1.00
N1217  N     0.11736   0.50001   0.74999   0.00000  Uiso   1.00
N1218  N     0.21597   0.49999   0.75001   0.00000  Uiso   1.00
O1219  O     0.03958   0.43989   0.75000   0.00000  Uiso   1.00
O1220  O     0.29375   0.56011   0.75000   0.00000  Uiso   1.00
O1221  O     0.29372   0.43988   0.75001   0.00000  Uiso   1.00
O1222  O     0.03961   0.56012   0.74999   0.00000  Uiso   1.00
O1223  O     0.01852   0.50001   0.81492   0.00000  Uiso   1.00
O1224  O     0.31481   0.49999   0.68509   0.00000  Uiso   1.00
O1225  O     0.27267   0.50000   0.81492   0.00000  Uiso   1.00
O1226  O     0.06067   0.50000   0.68508   0.00000  Uiso   1.00
F1227  F     0.27424   0.46366   0.54330   0.00000  Uiso   1.00
F1228  F     0.06482   0.55538   0.96048   0.00000  Uiso   1.00
F1229  F     0.33240   0.44802   0.97197   0.00000  Uiso   1.00
F1230  F     0.00463   0.56525   0.53242   0.00000  Uiso   1.00
C1231  C     0.18818   0.48434   0.59724   0.00000  Uiso   1.00
C1232  C     0.18287   0.43858   0.61097   0.00000  Uiso   1.00
C1233  C     0.16377   0.43292   0.66113   0.00000  Uiso   1.00
H1234  H     0.15884   0.39955   0.66823   0.00000  Uiso   1.00
H1235  H     0.19024   0.44620   0.67824   0.00000  Uiso   1.00
H1236  H     0.12810   0.44743   0.67387   0.00000  Uiso   1.00
H1237  H     0.15832   0.42152   0.59425   0.00000  Uiso   1.00
H1238  H     0.21861   0.42366   0.60015   0.00000  Uiso   1.00
H1239  H     0.22061   0.49785   0.60617   0.00000  Uiso   1.00
H1240  H     0.15912   0.50381   0.61725   0.00000  Uiso   1.00
C1241  C     0.14599   0.52589   0.90480   0.00000  Uiso   1.00
C1242  C     0.15509   0.57013   0.88606   0.00000  Uiso   1.00
C1243  C     0.16771   0.57073   0.83514   0.00000  Uiso   1.00
H1244  H     0.20241   0.55504   0.82088   0.00000  Uiso   1.00
H1245  H     0.13817   0.55550   0.82328   0.00000  Uiso   1.00
H1246  H     0.17205   0.60300   0.82327   0.00000  Uiso   1.00
H1247  H     0.12221   0.58850   0.89895   0.00000  Uiso   1.00
H1248  H     0.18450   0.58634   0.89728   0.00000  Uiso   1.00
H1249  H     0.17197   0.50340   0.88567   0.00000  Uiso   1.00
H1250  H     0.11141   0.51385   0.89876   0.00000  Uiso   1.00
C1251  C     0.25628   0.36725   0.71844   0.00000  Uiso   1.00
C1252  C     0.21434   0.36365   0.76156   0.00000  Uiso   1.00
C1253  C     0.16470   0.36896   0.75349   0.00000  Uiso   1.00
H1254  H     0.16145   0.40069   0.74275   0.00000  Uiso   1.00
H1255  H     0.15870   0.34670   0.72794   0.00000  Uiso   1.00
H1256  H     0.13630   0.36337   0.78526   0.00000  Uiso   1.00
H1257  H     0.21414   0.66608   0.77656   0.00000  Uiso   1.00
H1258  H     0.21976   0.38684   0.78646   0.00000  Uiso   1.00
H1259  H     0.26061   0.39867   0.70450   0.00000  Uiso   1.00
H1260  H     0.24705   0.34812   0.69178   0.00000  Uiso   1.00
C1261  C     0.04479   0.62734   0.81380   0.00000  Uiso   1.00
C1262  C     0.00299   0.61139   0.85275   0.00000  Uiso   1.00
C1263  C     0.02195   0.59189   0.88895   0.00000  Uiso   1.00
H1264  H     0.04529   0.56563   0.87490   0.00000  Uiso   1.00
H1265  H     0.04304   0.61503   0.90314   0.00000  Uiso   1.00
H1266  H     0.32422   0.58041   0.91634   0.00000  Uiso   1.00
H1267  H     0.31284   0.63734   0.86779   0.00000  Uiso   1.00
H1268  H     0.31349   0.58823   0.84066   0.00000  Uiso   1.00
H1269  H     0.07005   0.60254   0.79927   0.00000  Uiso   1.00
H1270  H     0.06702   0.64986   0.82754   0.00000  Uiso   1.00
F1271  F     0.28544   0.62021   0.69976   0.00000  Uiso   1.00
F1272  F     0.04614   0.37957   0.80262   0.00000  Uiso   1.00
F1273  F     0.09973   0.45385   0.81058   0.00000  Uiso   1.00
F1274  F     0.23344   0.54680   0.69001   0.00000  Uiso   1.00
C1275  C     0.66582   0.42063   0.74996   0.00000  Uiso   1.00
C1276  C     0.33389   0.57920   0.75057   0.00000  Uiso   1.00
C1277  C     0.52857   0.48769   0.54686   0.00000  Uiso   1.00
C1278  C     0.47466   0.52541   0.95510   0.00000  Uiso   1.00
C1279  C     0.57505   0.47693   0.52180   0.00000  Uiso   1.00
C1280  C     0.42942   0.53845   0.98105   0.00000  Uiso   1.00
C1281  C     0.63520   0.35196   0.72872   0.00000  Uiso   1.00
C1282  C     0.35809   0.64698   0.77843   0.00000  Uiso   1.00
C1283  C     0.64178   0.64310   0.72532   0.00000  Uiso   1.00
C1284  C     0.35770   0.35647   0.77629   0.00000  Uiso   1.00
C1285  C     0.33505   0.62377   0.75072   0.00000  Uiso   1.00
C1286  C     0.66385   0.37582   0.75115   0.00000  Uiso   1.00
C1287  C     0.51532   0.47694   0.78008   0.00000  Uiso   1.00
C1288  C     0.48454   0.52361   0.72041   0.00000  Uiso   1.00
C1289  C     0.46574   0.47699   0.78017   0.00000  Uiso   1.00
C1290  C     0.53414   0.52347   0.72024   0.00000  Uiso   1.00
C1291  C     0.63957   0.50012   0.83593   0.00000  Uiso   1.00
C1292  C     0.36053   0.50022   0.66396   0.00000  Uiso   1.00
C1293  C     0.62531   0.49688   0.88461   0.00000  Uiso   1.00
C1294  C     0.37527   0.50647   0.61544   0.00000  Uiso   1.00
C1295  C     0.63659   0.46853   0.95191   0.00000  Uiso   1.00
C1296  C     0.36636   0.54222   0.55093   0.00000  Uiso   1.00
C1297  C     0.65312   0.47480   0.90623   0.00000  Uiso   1.00
C1298  C     0.34837   0.53142   0.59555   0.00000  Uiso   1.00
C1299  C     0.58174   0.51341   0.90913   0.00000  Uiso   1.00
C1300  C     0.41973   0.49198   0.59006   0.00000  Uiso   1.00
C1301  C     0.55954   0.50165   0.95363   0.00000  Uiso   1.00
C1302  C     0.44302   0.50802   0.54741   0.00000  Uiso   1.00
C1303  C     0.58993   0.48170   0.97586   0.00000  Uiso   1.00
C1304  C     0.41346   0.53045   0.52650   0.00000  Uiso   1.00
C1305  C     0.50966   0.50999   0.97690   0.00000  Uiso   1.00
C1306  C     0.49334   0.50141   0.52448   0.00000  Uiso   1.00
Cu1307 Cu    0.38022   0.50001   0.75000   0.00000  Uiso   1.00
Cu1308 Cu    0.61978   0.49999   0.75000   0.00000  Uiso   1.00
H1309  H     0.43446   0.46745   0.60436   0.00000  Uiso   1.00
H1310  H     0.56748   0.53643   0.89255   0.00000  Uiso   1.00
H1311  H     0.64697   0.54288   0.61458   0.00000  Uiso   1.00
H1312  H     0.35420   0.46232   0.88784   0.00000  Uiso   1.00
H1313  H     0.52637   0.45853   0.80424   0.00000  Uiso   1.00
H1314  H     0.47336   0.54245   0.69665   0.00000  Uiso   1.00
N1315  N     0.45069   0.50001   0.74999   0.00000  Uiso   1.00
N1316  N     0.54931   0.49999   0.75001   0.00000  Uiso   1.00
O1317  O     0.37291   0.43989   0.75000   0.00000  Uiso   1.00
O1318  O     0.62709   0.56011   0.75000   0.00000  Uiso   1.00
O1319  O     0.62706   0.43988   0.75001   0.00000  Uiso   1.00
O1320  O     0.37294   0.56012   0.74999   0.00000  Uiso   1.00
O1321  O     0.35186   0.50001   0.81492   0.00000  Uiso   1.00
O1322  O     0.64814   0.49999   0.68509   0.00000  Uiso   1.00
O1323  O     0.60600   0.50000   0.81492   0.00000  Uiso   1.00
O1324  O     0.39400   0.50000   0.68508   0.00000  Uiso   1.00
F1325  F     0.60758   0.46366   0.54330   0.00000  Uiso   1.00
F1326  F     0.39815   0.55538   0.96048   0.00000  Uiso   1.00
F1327  F     0.66573   0.44802   0.97197   0.00000  Uiso   1.00
F1328  F     0.33796   0.56525   0.53242   0.00000  Uiso   1.00
C1329  C     0.52152   0.48434   0.59724   0.00000  Uiso   1.00
C1330  C     0.51621   0.43858   0.61097   0.00000  Uiso   1.00
C1331  C     0.49710   0.43292   0.66113   0.00000  Uiso   1.00
H1332  H     0.49217   0.39955   0.66823   0.00000  Uiso   1.00
H1333  H     0.52357   0.44620   0.67824   0.00000  Uiso   1.00
H1334  H     0.46143   0.44743   0.67387   0.00000  Uiso   1.00
H1335  H     0.49165   0.42152   0.59425   0.00000  Uiso   1.00
H1336  H     0.55194   0.42366   0.60015   0.00000  Uiso   1.00
H1337  H     0.55394   0.49785   0.60617   0.00000  Uiso   1.00
H1338  H     0.49245   0.50381   0.61725   0.00000  Uiso   1.00
C1339  C     0.47932   0.52589   0.90480   0.00000  Uiso   1.00
C1340  C     0.48842   0.57013   0.88606   0.00000  Uiso   1.00
C1341  C     0.50105   0.57073   0.83514   0.00000  Uiso   1.00
H1342  H     0.53575   0.55504   0.82088   0.00000  Uiso   1.00
H1343  H     0.47150   0.55550   0.82328   0.00000  Uiso   1.00
H1344  H     0.50538   0.60300   0.82327   0.00000  Uiso   1.00
H1345  H     0.45554   0.58850   0.89895   0.00000  Uiso   1.00
H1346  H     0.51784   0.58634   0.89728   0.00000  Uiso   1.00
H1347  H     0.50530   0.50340   0.88567   0.00000  Uiso   1.00
H1348  H     0.44474   0.51385   0.89876   0.00000  Uiso   1.00
C1349  C     0.58962   0.36725   0.71844   0.00000  Uiso   1.00
C1350  C     0.54767   0.36365   0.76156   0.00000  Uiso   1.00
C1351  C     0.49803   0.36896   0.75349   0.00000  Uiso   1.00
H1352  H     0.49478   0.40069   0.74275   0.00000  Uiso   1.00
H1353  H     0.49203   0.34670   0.72794   0.00000  Uiso   1.00
H1354  H     0.46963   0.36337   0.78526   0.00000  Uiso   1.00
H1355  H     0.54747   0.66608   0.77656   0.00000  Uiso   1.00
H1356  H     0.55310   0.38684   0.78646   0.00000  Uiso   1.00
H1357  H     0.59394   0.39867   0.70450   0.00000  Uiso   1.00
H1358  H     0.58039   0.34812   0.69178   0.00000  Uiso   1.00
C1359  C     0.37812   0.62734   0.81380   0.00000  Uiso   1.00
C1360  C     0.33632   0.61139   0.85275   0.00000  Uiso   1.00
C1361  C     0.35528   0.59189   0.88895   0.00000  Uiso   1.00
H1362  H     0.37862   0.56563   0.87490   0.00000  Uiso   1.00
H1363  H     0.37638   0.61503   0.90314   0.00000  Uiso   1.00
H1364  H     0.65755   0.58041   0.91634   0.00000  Uiso   1.00
H1365  H     0.64618   0.63734   0.86779   0.00000  Uiso   1.00
H1366  H     0.64683   0.58823   0.84066   0.00000  Uiso   1.00
H1367  H     0.40339   0.60254   0.79927   0.00000  Uiso   1.00
H1368  H     0.40036   0.64986   0.82754   0.00000  Uiso   1.00
F1369  F     0.61877   0.62021   0.69976   0.00000  Uiso   1.00
F1370  F     0.37948   0.37957   0.80262   0.00000  Uiso   1.00
F1371  F     0.43306   0.45385   0.81058   0.00000  Uiso   1.00
F1372  F     0.56677   0.54680   0.69001   0.00000  Uiso   1.00
C1373  C     0.99915   0.42063   0.74996   0.00000  Uiso   1.00
C1374  C     0.66722   0.57920   0.75057   0.00000  Uiso   1.00
C1375  C     0.86190   0.48769   0.54686   0.00000  Uiso   1.00
C1376  C     0.80799   0.52541   0.95510   0.00000  Uiso   1.00
C1377  C     0.90838   0.47693   0.52180   0.00000  Uiso   1.00
C1378  C     0.76275   0.53845   0.98105   0.00000  Uiso   1.00
C1379  C     0.96853   0.35196   0.72872   0.00000  Uiso   1.00
C1380  C     0.69142   0.64698   0.77843   0.00000  Uiso   1.00
C1381  C     0.97511   0.64310   0.72532   0.00000  Uiso   1.00
C1382  C     0.69104   0.35647   0.77629   0.00000  Uiso   1.00
C1383  C     0.66838   0.62377   0.75072   0.00000  Uiso   1.00
C1384  C     0.99718   0.37582   0.75115   0.00000  Uiso   1.00
C1385  C     0.84866   0.47694   0.78008   0.00000  Uiso   1.00
C1386  C     0.81787   0.52361   0.72041   0.00000  Uiso   1.00
C1387  C     0.79907   0.47699   0.78017   0.00000  Uiso   1.00
C1388  C     0.86748   0.52347   0.72024   0.00000  Uiso   1.00
C1389  C     0.97290   0.50012   0.83593   0.00000  Uiso   1.00
C1390  C     0.69387   0.50022   0.66396   0.00000  Uiso   1.00
C1391  C     0.95864   0.49688   0.88461   0.00000  Uiso   1.00
C1392  C     0.70860   0.50647   0.61544   0.00000  Uiso   1.00
C1393  C     0.96992   0.46853   0.95191   0.00000  Uiso   1.00
C1394  C     0.69970   0.54222   0.55093   0.00000  Uiso   1.00
C1395  C     0.98645   0.47480   0.90623   0.00000  Uiso   1.00
C1396  C     0.68170   0.53142   0.59555   0.00000  Uiso   1.00
C1397  C     0.91507   0.51341   0.90913   0.00000  Uiso   1.00
C1398  C     0.75307   0.49198   0.59006   0.00000  Uiso   1.00
C1399  C     0.89287   0.50165   0.95363   0.00000  Uiso   1.00
C1400  C     0.77635   0.50802   0.54741   0.00000  Uiso   1.00
C1401  C     0.92327   0.48170   0.97586   0.00000  Uiso   1.00
C1402  C     0.74680   0.53045   0.52650   0.00000  Uiso   1.00
C1403  C     0.84299   0.50999   0.97690   0.00000  Uiso   1.00
C1404  C     0.82667   0.50141   0.52448   0.00000  Uiso   1.00
Cu1405 Cu    0.71355   0.50001   0.75000   0.00000  Uiso   1.00
Cu1406 Cu    0.95311   0.49999   0.75000   0.00000  Uiso   1.00
H1407  H     0.76780   0.46745   0.60436   0.00000  Uiso   1.00
H1408  H     0.90081   0.53643   0.89255   0.00000  Uiso   1.00
H1409  H     0.98031   0.54288   0.61458   0.00000  Uiso   1.00
H1410  H     0.68753   0.46232   0.88784   0.00000  Uiso   1.00
H1411  H     0.85971   0.45853   0.80424   0.00000  Uiso   1.00
H1412  H     0.80669   0.54245   0.69665   0.00000  Uiso   1.00
N1413  N     0.78403   0.50001   0.74999   0.00000  Uiso   1.00
N1414  N     0.88264   0.49999   0.75001   0.00000  Uiso   1.00
O1415  O     0.70625   0.43989   0.75000   0.00000  Uiso   1.00
O1416  O     0.96042   0.56011   0.75000   0.00000  Uiso   1.00
O1417  O     0.96039   0.43988   0.75001   0.00000  Uiso   1.00
O1418  O     0.70628   0.56012   0.74999   0.00000  Uiso   1.00
O1419  O     0.68519   0.50001   0.81492   0.00000  Uiso   1.00
O1420  O     0.98148   0.49999   0.68509   0.00000  Uiso   1.00
O1421  O     0.93933   0.50000   0.81492   0.00000  Uiso   1.00
O1422  O     0.72733   0.50000   0.68508   0.00000  Uiso   1.00
F1423  F     0.94091   0.46366   0.54330   0.00000  Uiso   1.00
F1424  F     0.73148   0.55538   0.96048   0.00000  Uiso   1.00
F1425  F     0.99906   0.44802   0.97197   0.00000  Uiso   1.00
F1426  F     0.67129   0.56525   0.53242   0.00000  Uiso   1.00
C1427  C     0.85485   0.48434   0.59724   0.00000  Uiso   1.00
C1428  C     0.84954   0.43858   0.61097   0.00000  Uiso   1.00
C1429  C     0.83044   0.43292   0.66113   0.00000  Uiso   1.00
H1430  H     0.82550   0.39955   0.66823   0.00000  Uiso   1.00
H1431  H     0.85690   0.44620   0.67824   0.00000  Uiso   1.00
H1432  H     0.79477   0.44743   0.67387   0.00000  Uiso   1.00
H1433  H     0.82499   0.42152   0.59425   0.00000  Uiso   1.00
H1434  H     0.88528   0.42366   0.60015   0.00000  Uiso   1.00
H1435  H     0.88728   0.49785   0.60617   0.00000  Uiso   1.00
H1436  H     0.82579   0.50381   0.61725   0.00000  Uiso   1.00
C1437  C     0.81266   0.52589   0.90480   0.00000  Uiso   1.00
C1438  C     0.82176   0.57013   0.88606   0.00000  Uiso   1.00
C1439  C     0.83438   0.57073   0.83514   0.00000  Uiso   1.00
H1440  H     0.86908   0.55504   0.82088   0.00000  Uiso   1.00
H1441  H     0.80483   0.55550   0.82328   0.00000  Uiso   1.00
H1442  H     0.83872   0.60300   0.82327   0.00000  Uiso   1.00
H1443  H     0.78888   0.58850   0.89895   0.00000  Uiso   1.00
H1444  H     0.85117   0.58634   0.89728   0.00000  Uiso   1.00
H1445  H     0.83864   0.50340   0.88567   0.00000  Uiso   1.00
H1446  H     0.77808   0.51385   0.89876   0.00000  Uiso   1.00
C1447  C     0.92295   0.36725   0.71844   0.00000  Uiso   1.00
C1448  C     0.88101   0.36365   0.76156   0.00000  Uiso   1.00
C1449  C     0.83137   0.36896   0.75349   0.00000  Uiso   1.00
H1450  H     0.82811   0.40069   0.74275   0.00000  Uiso   1.00
H1451  H     0.82536   0.34670   0.72794   0.00000  Uiso   1.00
H1452  H     0.80297   0.36337   0.78526   0.00000  Uiso   1.00
H1453  H     0.88080   0.66608   0.77656   0.00000  Uiso   1.00
H1454  H     0.88643   0.38684   0.78646   0.00000  Uiso   1.00
H1455  H     0.92728   0.39867   0.70450   0.00000  Uiso   1.00
H1456  H     0.91372   0.34812   0.69178   0.00000  Uiso   1.00
C1457  C     0.71145   0.62734   0.81380   0.00000  Uiso   1.00
C1458  C     0.66966   0.61139   0.85275   0.00000  Uiso   1.00
C1459  C     0.68861   0.59189   0.88895   0.00000  Uiso   1.00
H1460  H     0.71195   0.56563   0.87490   0.00000  Uiso   1.00
H1461  H     0.70971   0.61503   0.90314   0.00000  Uiso   1.00
H1462  H     0.99089   0.58041   0.91634   0.00000  Uiso   1.00
H1463  H     0.97951   0.63734   0.86779   0.00000  Uiso   1.00
H1464  H     0.98016   0.58823   0.84066   0.00000  Uiso   1.00
H1465  H     0.73672   0.60254   0.79927   0.00000  Uiso   1.00
H1466  H     0.73369   0.64986   0.82754   0.00000  Uiso   1.00
F1467  F     0.95210   0.62021   0.69976   0.00000  Uiso   1.00
F1468  F     0.71281   0.37957   0.80262   0.00000  Uiso   1.00
F1469  F     0.76639   0.45385   0.81058   0.00000  Uiso   1.00
F1470  F     0.90010   0.54680   0.69001   0.00000  Uiso   1.00
C1471  C     0.33248   0.75396   0.74996   0.00000  Uiso   1.00
C1472  C     0.00055   0.91254   0.75057   0.00000  Uiso   1.00
C1473  C     0.19523   0.82102   0.54686   0.00000  Uiso   1.00
C1474  C     0.14132   0.85874   0.95510   0.00000  Uiso   1.00
C1475  C     0.24171   0.81026   0.52180   0.00000  Uiso   1.00
C1476  C     0.09609   0.87179   0.98105   0.00000  Uiso   1.00
C1477  C     0.30187   0.68530   0.72872   0.00000  Uiso   1.00
C1478  C     0.02475   0.98032   0.77843   0.00000  Uiso   1.00
C1479  C     0.30845   0.97644   0.72532   0.00000  Uiso   1.00
C1480  C     0.02437   0.68981   0.77629   0.00000  Uiso   1.00
C1481  C     0.00171   0.95710   0.75072   0.00000  Uiso   1.00
C1482  C     0.33052   0.70915   0.75115   0.00000  Uiso   1.00
C1483  C     0.18199   0.81027   0.78008   0.00000  Uiso   1.00
C1484  C     0.15120   0.85695   0.72041   0.00000  Uiso   1.00
C1485  C     0.13241   0.81032   0.78017   0.00000  Uiso   1.00
C1486  C     0.20081   0.85680   0.72024   0.00000  Uiso   1.00
C1487  C     0.30624   0.83345   0.83593   0.00000  Uiso   1.00
C1488  C     0.02720   0.83355   0.66396   0.00000  Uiso   1.00
C1489  C     0.29198   0.83021   0.88461   0.00000  Uiso   1.00
C1490  C     0.04194   0.83980   0.61544   0.00000  Uiso   1.00
C1491  C     0.30326   0.80186   0.95191   0.00000  Uiso   1.00
C1492  C     0.03303   0.87556   0.55093   0.00000  Uiso   1.00
C1493  C     0.31978   0.80813   0.90623   0.00000  Uiso   1.00
C1494  C     0.01503   0.86475   0.59555   0.00000  Uiso   1.00
C1495  C     0.24841   0.84674   0.90913   0.00000  Uiso   1.00
C1496  C     0.08640   0.82531   0.59006   0.00000  Uiso   1.00
C1497  C     0.22620   0.83498   0.95363   0.00000  Uiso   1.00
C1498  C     0.10969   0.84135   0.54741   0.00000  Uiso   1.00
C1499  C     0.25660   0.81504   0.97586   0.00000  Uiso   1.00
C1500  C     0.08013   0.86378   0.52650   0.00000  Uiso   1.00
C1501  C     0.17632   0.84333   0.97690   0.00000  Uiso   1.00
C1502  C     0.16000   0.83474   0.52448   0.00000  Uiso   1.00
Cu1503 Cu    0.04689   0.83334   0.75000   0.00000  Uiso   1.00
Cu1504 Cu    0.28645   0.83333   0.75000   0.00000  Uiso   1.00
H1505  H     0.10113   0.80079   0.60436   0.00000  Uiso   1.00
H1506  H     0.23414   0.86977   0.89255   0.00000  Uiso   1.00
H1507  H     0.31364   0.87621   0.61458   0.00000  Uiso   1.00
H1508  H     0.02086   0.79565   0.88784   0.00000  Uiso   1.00
H1509  H     0.19304   0.79186   0.80424   0.00000  Uiso   1.00
H1510  H     0.14002   0.87578   0.69665   0.00000  Uiso   1.00
N1511  N     0.11736   0.83334   0.74999   0.00000  Uiso   1.00
N1512  N     0.21597   0.83332   0.75001   0.00000  Uiso   1.00
O1513  O     0.03958   0.77322   0.75000   0.00000  Uiso   1.00
O1514  O     0.29375   0.89345   0.75000   0.00000  Uiso   1.00
O1515  O     0.29372   0.77321   0.75001   0.00000  Uiso   1.00
O1516  O     0.03961   0.89346   0.74999   0.00000  Uiso   1.00
O1517  O     0.01852   0.83334   0.81492   0.00000  Uiso   1.00
O1518  O     0.31481   0.83332   0.68509   0.00000  Uiso   1.00
O1519  O     0.27267   0.83333   0.81492   0.00000  Uiso   1.00
O1520  O     0.06067   0.83333   0.68508   0.00000  Uiso   1.00
F1521  F     0.27424   0.79700   0.54330   0.00000  Uiso   1.00
F1522  F     0.06482   0.88871   0.96048   0.00000  Uiso   1.00
F1523  F     0.33240   0.78135   0.97197   0.00000  Uiso   1.00
F1524  F     0.00463   0.89858   0.53242   0.00000  Uiso   1.00
C1525  C     0.18818   0.81767   0.59724   0.00000  Uiso   1.00
C1526  C     0.18287   0.77192   0.61097   0.00000  Uiso   1.00
C1527  C     0.16377   0.76626   0.66113   0.00000  Uiso   1.00
H1528  H     0.15884   0.73288   0.66823   0.00000  Uiso   1.00
H1529  H     0.19024   0.77953   0.67824   0.00000  Uiso   1.00
H1530  H     0.12810   0.78077   0.67387   0.00000  Uiso   1.00
H1531  H     0.15832   0.75485   0.59425   0.00000  Uiso   1.00
H1532  H     0.21861   0.75700   0.60015   0.00000  Uiso   1.00
H1533  H     0.22061   0.83119   0.60617   0.00000  Uiso   1.00
H1534  H     0.15912   0.83714   0.61725   0.00000  Uiso   1.00
C1535  C     0.14599   0.85922   0.90480   0.00000  Uiso   1.00
C1536  C     0.15509   0.90346   0.88606   0.00000  Uiso   1.00
C1537  C     0.16771   0.90406   0.83514   0.00000  Uiso   1.00
H1538  H     0.20241   0.88837   0.82088   0.00000  Uiso   1.00
H1539  H     0.13817   0.88883   0.82328   0.00000  Uiso   1.00
H1540  H     0.17205   0.93634   0.82327   0.00000  Uiso   1.00
H1541  H     0.12221   0.92184   0.89895   0.00000  Uiso   1.00
H1542  H     0.18450   0.91967   0.89728   0.00000  Uiso   1.00
H1543  H     0.17197   0.83674   0.88567   0.00000  Uiso   1.00
H1544  H     0.11141   0.84719   0.89876   0.00000  Uiso   1.00
C1545  C     0.25628   0.70059   0.71844   0.00000  Uiso   1.00
C1546  C     0.21434   0.69698   0.76156   0.00000  Uiso   1.00
C1547  C     0.16470   0.70229   0.75349   0.00000  Uiso   1.00
H1548  H     0.16145   0.73402   0.74275   0.00000  Uiso   1.00
H1549  H     0.15870   0.68003   0.72794   0.00000  Uiso   1.00
H1550  H     0.13630   0.69671   0.78526   0.00000  Uiso   1.00
H1551  H     0.21414   0.99942   0.77656   0.00000  Uiso   1.00
H1552  H     0.21976   0.72017   0.78646   0.00000  Uiso   1.00
H1553  H     0.26061   0.73201   0.70450   0.00000  Uiso   1.00
H1554  H     0.24705   0.68146   0.69178   0.00000  Uiso   1.00
C1555  C     0.04479   0.96067   0.81380   0.00000  Uiso   1.00
C1556  C     0.00299   0.94472   0.85275   0.00000  Uiso   1.00
C1557  C     0.02195   0.92523   0.88895   0.00000  Uiso   1.00
H1558  H     0.04529   0.89896   0.87490   0.00000  Uiso   1.00
H1559  H     0.04304   0.94837   0.90314   0.00000  Uiso   1.00
H1560  H     0.32422   0.91375   0.91634   0.00000  Uiso   1.00
H1561  H     0.31284   0.97068   0.86779   0.00000  Uiso   1.00
H1562  H     0.31349   0.92156   0.84066   0.00000  Uiso   1.00
H1563  H     0.07005   0.93587   0.79927   0.00000  Uiso   1.00
H1564  H     0.06702   0.98320   0.82754   0.00000  Uiso   1.00
F1565  F     0.28544   0.95354   0.69976   0.00000  Uiso   1.00
F1566  F     0.04614   0.71291   0.80262   0.00000  Uiso   1.00
F1567  F     0.09973   0.78718   0.81058   0.00000  Uiso   1.00
F1568  F     0.23344   0.88013   0.69001   0.00000  Uiso   1.00
C1569  C     0.66582   0.75396   0.74996   0.00000  Uiso   1.00
C1570  C     0.33389   0.91254   0.75057   0.00000  Uiso   1.00
C1571  C     0.52857   0.82102   0.54686   0.00000  Uiso   1.00
C1572  C     0.47466   0.85874   0.95510   0.00000  Uiso   1.00
C1573  C     0.57505   0.81026   0.52180   0.00000  Uiso   1.00
C1574  C     0.42942   0.87179   0.98105   0.00000  Uiso   1.00
C1575  C     0.63520   0.68530   0.72872   0.00000  Uiso   1.00
C1576  C     0.35809   0.98032   0.77843   0.00000  Uiso   1.00
C1577  C     0.64178   0.97644   0.72532   0.00000  Uiso   1.00
C1578  C     0.35770   0.68981   0.77629   0.00000  Uiso   1.00
C1579  C     0.33505   0.95710   0.75072   0.00000  Uiso   1.00
C1580  C     0.66385   0.70915   0.75115   0.00000  Uiso   1.00
C1581  C     0.51532   0.81027   0.78008   0.00000  Uiso   1.00
C1582  C     0.48454   0.85695   0.72041   0.00000  Uiso   1.00
C1583  C     0.46574   0.81032   0.78017   0.00000  Uiso   1.00
C1584  C     0.53414   0.85680   0.72024   0.00000  Uiso   1.00
C1585  C     0.63957   0.83345   0.83593   0.00000  Uiso   1.00
C1586  C     0.36053   0.83355   0.66396   0.00000  Uiso   1.00
C1587  C     0.62531   0.83021   0.88461   0.00000  Uiso   1.00
C1588  C     0.37527   0.83980   0.61544   0.00000  Uiso   1.00
C1589  C     0.63659   0.80186   0.95191   0.00000  Uiso   1.00
C1590  C     0.36636   0.87556   0.55093   0.00000  Uiso   1.00
C1591  C     0.65312   0.80813   0.90623   0.00000  Uiso   1.00
C1592  C     0.34837   0.86475   0.59555   0.00000  Uiso   1.00
C1593  C     0.58174   0.84674   0.90913   0.00000  Uiso   1.00
C1594  C     0.41973   0.82531   0.59006   0.00000  Uiso   1.00
C1595  C     0.55954   0.83498   0.95363   0.00000  Uiso   1.00
C1596  C     0.44302   0.84135   0.54741   0.00000  Uiso   1.00
C1597  C     0.58993   0.81504   0.97586   0.00000  Uiso   1.00
C1598  C     0.41346   0.86378   0.52650   0.00000  Uiso   1.00
C1599  C     0.50966   0.84333   0.97690   0.00000  Uiso   1.00
C1600  C     0.49334   0.83474   0.52448   0.00000  Uiso   1.00
Cu1601 Cu    0.38022   0.83334   0.75000   0.00000  Uiso   1.00
Cu1602 Cu    0.61978   0.83333   0.75000   0.00000  Uiso   1.00
H1603  H     0.43446   0.80079   0.60436   0.00000  Uiso   1.00
H1604  H     0.56748   0.86977   0.89255   0.00000  Uiso   1.00
H1605  H     0.64697   0.87621   0.61458   0.00000  Uiso   1.00
H1606  H     0.35420   0.79565   0.88784   0.00000  Uiso   1.00
H1607  H     0.52637   0.79186   0.80424   0.00000  Uiso   1.00
H1608  H     0.47336   0.87578   0.69665   0.00000  Uiso   1.00
N1609  N     0.45069   0.83334   0.74999   0.00000  Uiso   1.00
N1610  N     0.54931   0.83332   0.75001   0.00000  Uiso   1.00
O1611  O     0.37291   0.77322   0.75000   0.00000  Uiso   1.00
O1612  O     0.62709   0.89345   0.75000   0.00000  Uiso   1.00
O1613  O     0.62706   0.77321   0.75001   0.00000  Uiso   1.00
O1614  O     0.37294   0.89346   0.74999   0.00000  Uiso   1.00
O1615  O     0.35186   0.83334   0.81492   0.00000  Uiso   1.00
O1616  O     0.64814   0.83332   0.68509   0.00000  Uiso   1.00
O1617  O     0.60600   0.83333   0.81492   0.00000  Uiso   1.00
O1618  O     0.39400   0.83333   0.68508   0.00000  Uiso   1.00
F1619  F     0.60758   0.79700   0.54330   0.00000  Uiso   1.00
F1620  F     0.39815   0.88871   0.96048   0.00000  Uiso   1.00
F1621  F     0.66573   0.78135   0.97197   0.00000  Uiso   1.00
F1622  F     0.33796   0.89858   0.53242   0.00000  Uiso   1.00
C1623  C     0.52152   0.81767   0.59724   0.00000  Uiso   1.00
C1624  C     0.51621   0.77192   0.61097   0.00000  Uiso   1.00
C1625  C     0.49710   0.76626   0.66113   0.00000  Uiso   1.00
H1626  H     0.49217   0.73288   0.66823   0.00000  Uiso   1.00
H1627  H     0.52357   0.77953   0.67824   0.00000  Uiso   1.00
H1628  H     0.46143   0.78077   0.67387   0.00000  Uiso   1.00
H1629  H     0.49165   0.75485   0.59425   0.00000  Uiso   1.00
H1630  H     0.55194   0.75700   0.60015   0.00000  Uiso   1.00
H1631  H     0.55394   0.83119   0.60617   0.00000  Uiso   1.00
H1632  H     0.49245   0.83714   0.61725   0.00000  Uiso   1.00
C1633  C     0.47932   0.85922   0.90480   0.00000  Uiso   1.00
C1634  C     0.48842   0.90346   0.88606   0.00000  Uiso   1.00
C1635  C     0.50105   0.90406   0.83514   0.00000  Uiso   1.00
H1636  H     0.53575   0.88837   0.82088   0.00000  Uiso   1.00
H1637  H     0.47150   0.88883   0.82328   0.00000  Uiso   1.00
H1638  H     0.50538   0.93634   0.82327   0.00000  Uiso   1.00
H1639  H     0.45554   0.92184   0.89895   0.00000  Uiso   1.00
H1640  H     0.51784   0.91967   0.89728   0.00000  Uiso   1.00
H1641  H     0.50530   0.83674   0.88567   0.00000  Uiso   1.00
H1642  H     0.44474   0.84719   0.89876   0.00000  Uiso   1.00
C1643  C     0.58962   0.70059   0.71844   0.00000  Uiso   1.00
C1644  C     0.54767   0.69698   0.76156   0.00000  Uiso   1.00
C1645  C     0.49803   0.70229   0.75349   0.00000  Uiso   1.00
H1646  H     0.49478   0.73402   0.74275   0.00000  Uiso   1.00
H1647  H     0.49203   0.68003   0.72794   0.00000  Uiso   1.00
H1648  H     0.46963   0.69671   0.78526   0.00000  Uiso   1.00
H1649  H     0.54747   0.99942   0.77656   0.00000  Uiso   1.00
H1650  H     0.55310   0.72017   0.78646   0.00000  Uiso   1.00
H1651  H     0.59394   0.73201   0.70450   0.00000  Uiso   1.00
H1652  H     0.58039   0.68146   0.69178   0.00000  Uiso   1.00
C1653  C     0.37812   0.96067   0.81380   0.00000  Uiso   1.00
C1654  C     0.33632   0.94472   0.85275   0.00000  Uiso   1.00
C1655  C     0.35528   0.92523   0.88895   0.00000  Uiso   1.00
H1656  H     0.37862   0.89896   0.87490   0.00000  Uiso   1.00
H1657  H     0.37638   0.94837   0.90314   0.00000  Uiso   1.00
H1658  H     0.65755   0.91375   0.91634   0.00000  Uiso   1.00
H1659  H     0.64618   0.97068   0.86779   0.00000  Uiso   1.00
H1660  H     0.64683   0.92156   0.84066   0.00000  Uiso   1.00
H1661  H     0.40339   0.93587   0.79927   0.00000  Uiso   1.00
H1662  H     0.40036   0.98320   0.82754   0.00000  Uiso   1.00
F1663  F     0.61877   0.95354   0.69976   0.00000  Uiso   1.00
F1664  F     0.37948   0.71291   0.80262   0.00000  Uiso   1.00
F1665  F     0.43306   0.78718   0.81058   0.00000  Uiso   1.00
F1666  F     0.56677   0.88013   0.69001   0.00000  Uiso   1.00
C1667  C     0.99915   0.75396   0.74996   0.00000  Uiso   1.00
C1668  C     0.66722   0.91254   0.75057   0.00000  Uiso   1.00
C1669  C     0.86190   0.82102   0.54686   0.00000  Uiso   1.00
C1670  C     0.80799   0.85874   0.95510   0.00000  Uiso   1.00
C1671  C     0.90838   0.81026   0.52180   0.00000  Uiso   1.00
C1672  C     0.76275   0.87179   0.98105   0.00000  Uiso   1.00
C1673  C     0.96853   0.68530   0.72872   0.00000  Uiso   1.00
C1674  C     0.69142   0.98032   0.77843   0.00000  Uiso   1.00
C1675  C     0.97511   0.97644   0.72532   0.00000  Uiso   1.00
C1676  C     0.69104   0.68981   0.77629   0.00000  Uiso   1.00
C1677  C     0.66838   0.95710   0.75072   0.00000  Uiso   1.00
C1678  C     0.99718   0.70915   0.75115   0.00000  Uiso   1.00
C1679  C     0.84866   0.81027   0.78008   0.00000  Uiso   1.00
C1680  C     0.81787   0.85695   0.72041   0.00000  Uiso   1.00
C1681  C     0.79907   0.81032   0.78017   0.00000  Uiso   1.00
C1682  C     0.86748   0.85680   0.72024   0.00000  Uiso   1.00
C1683  C     0.97290   0.83345   0.83593   0.00000  Uiso   1.00
C1684  C     0.69387   0.83355   0.66396   0.00000  Uiso   1.00
C1685  C     0.95864   0.83021   0.88461   0.00000  Uiso   1.00
C1686  C     0.70860   0.83980   0.61544   0.00000  Uiso   1.00
C1687  C     0.96992   0.80186   0.95191   0.00000  Uiso   1.00
C1688  C     0.69970   0.87556   0.55093   0.00000  Uiso   1.00
C1689  C     0.98645   0.80813   0.90623   0.00000  Uiso   1.00
C1690  C     0.68170   0.86475   0.59555   0.00000  Uiso   1.00
C1691  C     0.91507   0.84674   0.90913   0.00000  Uiso   1.00
C1692  C     0.75307   0.82531   0.59006   0.00000  Uiso   1.00
C1693  C     0.89287   0.83498   0.95363   0.00000  Uiso   1.00
C1694  C     0.77635   0.84135   0.54741   0.00000  Uiso   1.00
C1695  C     0.92327   0.81504   0.97586   0.00000  Uiso   1.00
C1696  C     0.74680   0.86378   0.52650   0.00000  Uiso   1.00
C1697  C     0.84299   0.84333   0.97690   0.00000  Uiso   1.00
C1698  C     0.82667   0.83474   0.52448   0.00000  Uiso   1.00
Cu1699 Cu    0.71355   0.83334   0.75000   0.00000  Uiso   1.00
Cu1700 Cu    0.95311   0.83333   0.75000   0.00000  Uiso   1.00
H1701  H     0.76780   0.80079   0.60436   0.00000  Uiso   1.00
H1702  H     0.90081   0.86977   0.89255   0.00000  Uiso   1.00
H1703  H     0.98031   0.87621   0.61458   0.00000  Uiso   1.00
H1704  H     0.68753   0.79565   0.88784   0.00000  Uiso   1.00
H1705  H     0.85971   0.79186   0.80424   0.00000  Uiso   1.00
H1706  H     0.80669   0.87578   0.69665   0.00000  Uiso   1.00
N1707  N     0.78403   0.83334   0.74999   0.00000  Uiso   1.00
N1708  N     0.88264   0.83332   0.75001   0.00000  Uiso   1.00
O1709  O     0.70625   0.77322   0.75000   0.00000  Uiso   1.00
O1710  O     0.96042   0.89345   0.75000   0.00000  Uiso   1.00
O1711  O     0.96039   0.77321   0.75001   0.00000  Uiso   1.00
O1712  O     0.70628   0.89346   0.74999   0.00000  Uiso   1.00
O1713  O     0.68519   0.83334   0.81492   0.00000  Uiso   1.00
O1714  O     0.98148   0.83332   0.68509   0.00000  Uiso   1.00
O1715  O     0.93933   0.83333   0.81492   0.00000  Uiso   1.00
O1716  O     0.72733   0.83333   0.68508   0.00000  Uiso   1.00
F1717  F     0.94091   0.79700   0.54330   0.00000  Uiso   1.00
F1718  F     0.73148   0.88871   0.96048   0.00000  Uiso   1.00
F1719  F     0.99906   0.78135   0.97197   0.00000  Uiso   1.00
F1720  F     0.67129   0.89858   0.53242   0.00000  Uiso   1.00
C1721  C     0.85485   0.81767   0.59724   0.00000  Uiso   1.00
C1722  C     0.84954   0.77192   0.61097   0.00000  Uiso   1.00
C1723  C     0.83044   0.76626   0.66113   0.00000  Uiso   1.00
H1724  H     0.82550   0.73288   0.66823   0.00000  Uiso   1.00
H1725  H     0.85690   0.77953   0.67824   0.00000  Uiso   1.00
H1726  H     0.79477   0.78077   0.67387   0.00000  Uiso   1.00
H1727  H     0.82499   0.75485   0.59425   0.00000  Uiso   1.00
H1728  H     0.88528   0.75700   0.60015   0.00000  Uiso   1.00
H1729  H     0.88728   0.83119   0.60617   0.00000  Uiso   1.00
H1730  H     0.82579   0.83714   0.61725   0.00000  Uiso   1.00
C1731  C     0.81266   0.85922   0.90480   0.00000  Uiso   1.00
C1732  C     0.82176   0.90346   0.88606   0.00000  Uiso   1.00
C1733  C     0.83438   0.90406   0.83514   0.00000  Uiso   1.00
H1734  H     0.86908   0.88837   0.82088   0.00000  Uiso   1.00
H1735  H     0.80483   0.88883   0.82328   0.00000  Uiso   1.00
H1736  H     0.83872   0.93634   0.82327   0.00000  Uiso   1.00
H1737  H     0.78888   0.92184   0.89895   0.00000  Uiso   1.00
H1738  H     0.85117   0.91967   0.89728   0.00000  Uiso   1.00
H1739  H     0.83864   0.83674   0.88567   0.00000  Uiso   1.00
H1740  H     0.77808   0.84719   0.89876   0.00000  Uiso   1.00
C1741  C     0.92295   0.70059   0.71844   0.00000  Uiso   1.00
C1742  C     0.88101   0.69698   0.76156   0.00000  Uiso   1.00
C1743  C     0.83137   0.70229   0.75349   0.00000  Uiso   1.00
H1744  H     0.82811   0.73402   0.74275   0.00000  Uiso   1.00
H1745  H     0.82536   0.68003   0.72794   0.00000  Uiso   1.00
H1746  H     0.80297   0.69671   0.78526   0.00000  Uiso   1.00
H1747  H     0.88080   0.99942   0.77656   0.00000  Uiso   1.00
H1748  H     0.88643   0.72017   0.78646   0.00000  Uiso   1.00
H1749  H     0.92728   0.73201   0.70450   0.00000  Uiso   1.00
H1750  H     0.91372   0.68146   0.69178   0.00000  Uiso   1.00
C1751  C     0.71145   0.96067   0.81380   0.00000  Uiso   1.00
C1752  C     0.66966   0.94472   0.85275   0.00000  Uiso   1.00
C1753  C     0.68861   0.92523   0.88895   0.00000  Uiso   1.00
H1754  H     0.71195   0.89896   0.87490   0.00000  Uiso   1.00
H1755  H     0.70971   0.94837   0.90314   0.00000  Uiso   1.00
H1756  H     0.99089   0.91375   0.91634   0.00000  Uiso   1.00
H1757  H     0.97951   0.97068   0.86779   0.00000  Uiso   1.00
H1758  H     0.98016   0.92156   0.84066   0.00000  Uiso   1.00
H1759  H     0.73672   0.93587   0.79927   0.00000  Uiso   1.00
H1760  H     0.73369   0.98320   0.82754   0.00000  Uiso   1.00
F1761  F     0.95210   0.95354   0.69976   0.00000  Uiso   1.00
F1762  F     0.71281   0.71291   0.80262   0.00000  Uiso   1.00
F1763  F     0.76639   0.78718   0.81058   0.00000  Uiso   1.00
F1764  F     0.90010   0.88013   0.69001   0.00000  Uiso   1.00
loop_
_geom_bond_atom_site_label_1
_geom_bond_atom_site_label_2
_geom_bond_distance
_geom_bond_site_symmetry_2
_ccdc_geom_bond_type
C1     C12     1.459   .     S
C1     O45     1.288   .     A
C1     O141    1.298   .     S
C2     O46     1.289   .     A
C2     C11     1.450   .     S
C2     O240    1.292   1_455 S
C3     C55     1.525   .     S
C3     C5      1.399   .     A
C3     C32     1.450   .     A
C4     C65     1.529   .     S
C4     C6      1.401   .     A
C4     C31     1.452   .     A
C5     F51     1.363   .     S
C5     C911    1.382   1_554 S
C6     F52     1.360   .     S
C6     C912    1.385   .     S
C7     C12     1.419   .     A
C7     C75     1.520   .     S
C7     C597    1.391   1_545 S
C8     C85     1.521   .     S
C8     C11     1.415   .     A
C8     C304    1.397   .     S
C9     F95     1.361   .     S
C9     C301    1.391   .     S
C9     C109    1.398   .     S
C10    F96     1.360   .     S
C10    C596    1.397   1_545 S
C10    C208    1.404   1_455 S
C11    C205    1.398   1_455 S
C12    C108    1.404   .     S
C13    N42     1.366   .     A
C13    C15     1.416   .     A
C13    H39     1.081   .     S
C14    N41     1.366   .     A
C14    C16     1.416   .     A
C14    H40     1.082   .     S
C15    F97     1.354   .     S
C15    N41     1.369   .     A
C16    N42     1.369   .     A
C16    F98     1.354   .     S
C17    O49     1.296   .     A
C17    C19     1.458   .     S
C17    O145    1.291   .     S
C18    O50     1.296   .     A
C18    C20     1.464   .     S
C18    O244    1.295   1_455 S
C19    C23     1.388   .     A
C19    C25     1.392   .     A
C20    C24     1.390   .     A
C20    C26     1.395   .     A
C21    C29     1.417   .     A
C21    C23     1.383   .     A
C21    F53     1.359   .     S
C22    F54     1.358   .     S
C22    C24     1.386   .     A
C22    C30     1.417   .     A
C23    H136    1.083   .     S
C24    H233    1.083   1_455 S
C25    C27     1.408   .     A
C25    H36     1.064   .     S
C26    C28     1.410   .     A
C26    H35     1.067   .     S
C27    C29     1.420   .     A
C27    C31     1.446   .     A
C28    C32     1.444   .     A
C28    C30     1.417   .     A
C29    C887    1.382   .     S
C30    C888    1.385   1_554 S
C31    C914    1.451   .     S
C32    C913    1.451   1_554 S
Cu33   O46     1.974   .     S
Cu33   O43     1.963   .     S
Cu33   O50     1.945   .     S
Cu33   O47     1.958   .     S
Cu33   N41     2.013   .     S
Cu33   Cu230   2.679   1_455 S
Cu34   N42     2.013   .     S
Cu34   O44     1.963   .     S
Cu34   O45     1.974   .     S
Cu34   O48     1.958   .     S
Cu34   O49     1.945   .     S
Cu34   Cu131   2.679   .     S
H37    C122    1.083   .     S
H38    C219    1.083   1_455 S
O43    C197    1.298   1_455 S
O44    C100    1.292   .     S
O47    C213    1.291   1_455 S
O48    C116    1.295   .     S
C55    C56     1.547   .     S
C55    H63     1.113   .     S
C55    H64     1.105   .     S
C56    C57     1.515   .     S
C56    H62     1.110   .     S
C56    H61     1.111   .     S
C57    H59     1.109   .     S
C57    H60     1.107   .     S
C57    H58     1.109   .     S
C65    H73     1.106   .     S
C65    H74     1.113   .     S
C65    C66     1.548   .     S
C66    H72     1.110   .     S
C66    H71     1.107   .     S
C66    C67     1.522   .     S
C67    H68     1.108   .     S
C67    H69     1.110   .     S
C67    H70     1.110   .     S
C75    H83     1.106   .     S
C75    H84     1.111   .     S
C75    C76     1.541   .     S
C76    C77     1.520   .     S
C76    H82     1.111   .     S
C76    H669    1.113   1_545 S
C77    H78     1.103   .     S
C77    H79     1.111   .     S
C77    H80     1.109   .     S
H81    C370    1.113   .     S
C85    H93     1.108   .     S
C85    C86     1.536   .     S
C85    H94     1.111   .     S
C86    C87     1.523   .     S
C86    H287    1.112   1_455 S
C86    H288    1.109   1_455 S
C87    H88     1.111   .     S
C87    H89     1.110   .     S
C87    H286    1.110   1_455 S
H90    C185    1.110   .     S
H91    C184    1.112   .     S
H92    C184    1.109   .     S
C99    C110    1.459   .     S
C99    O143    1.288   .     A
C99    O239    1.298   .     S
C100   O144    1.289   .     A
C100   C109    1.450   .     S
C101   C153    1.525   .     S
C101   C103    1.399   .     A
C101   C130    1.450   .     A
C102   C163    1.529   .     S
C102   C104    1.401   .     A
C102   C129    1.452   .     A
C103   F149    1.363   .     S
C103   C1009   1.382   1_554 S
C104   F150    1.360   .     S
C104   C1010   1.385   .     S
C105   C110    1.419   .     A
C105   C173    1.520   .     S
C105   C695    1.391   1_545 S
C106   C183    1.521   .     S
C106   C109    1.415   .     A
C106   C402    1.397   .     S
C107   F193    1.361   .     S
C107   C399    1.391   .     S
C107   C207    1.398   .     S
C108   F194    1.360   .     S
C108   C694    1.397   1_545 S
C110   C206    1.404   .     S
C111   N140    1.366   .     A
C111   C113    1.416   .     A
C111   H137    1.081   .     S
C112   N139    1.366   .     A
C112   C114    1.416   .     A
C112   H138    1.082   .     S
C113   F195    1.354   .     S
C113   N139    1.369   .     A
C114   N140    1.369   .     A
C114   F196    1.354   .     S
C115   O147    1.296   .     A
C115   C117    1.458   .     S
C115   O243    1.291   .     S
C116   O148    1.296   .     A
C116   C118    1.464   .     S
C117   C121    1.388   .     A
C117   C123    1.392   .     A
C118   C122    1.390   .     A
C118   C124    1.395   .     A
C119   C127    1.417   .     A
C119   C121    1.383   .     A
C119   F151    1.359   .     S
C120   F152    1.358   .     S
C120   C122    1.386   .     A
C120   C128    1.417   .     A
C121   H234    1.083   .     S
C123   C125    1.408   .     A
C123   H134    1.064   .     S
C124   C126    1.410   .     A
C124   H133    1.067   .     S
C125   C127    1.420   .     A
C125   C129    1.446   .     A
C126   C130    1.444   .     A
C126   C128    1.417   .     A
C127   C985    1.382   .     S
C128   C986    1.385   1_554 S
C129   C1012   1.451   .     S
C130   C1011   1.451   1_554 S
Cu131  O144    1.974   .     S
Cu131  O141    1.963   .     S
Cu131  O148    1.945   .     S
Cu131  O145    1.958   .     S
Cu131  N139    2.013   .     S
Cu132  N140    2.013   .     S
Cu132  O142    1.963   .     S
Cu132  O143    1.974   .     S
Cu132  O146    1.958   .     S
Cu132  O147    1.945   .     S
Cu132  Cu229   2.679   .     S
H135   C220    1.083   .     S
O142   C198    1.292   .     S
O146   C214    1.295   .     S
C153   C154    1.547   .     S
C153   H161    1.113   .     S
C153   H162    1.105   .     S
C154   C155    1.515   .     S
C154   H160    1.110   .     S
C154   H159    1.111   .     S
C155   H157    1.109   .     S
C155   H158    1.107   .     S
C155   H156    1.109   .     S
C163   H171    1.106   .     S
C163   H172    1.113   .     S
C163   C164    1.548   .     S
C164   H170    1.110   .     S
C164   H169    1.107   .     S
C164   C165    1.522   .     S
C165   H166    1.108   .     S
C165   H167    1.110   .     S
C165   H168    1.110   .     S
C173   H181    1.106   .     S
C173   H182    1.111   .     S
C173   C174    1.541   .     S
C174   C175    1.520   .     S
C174   H180    1.111   .     S
C174   H767    1.113   1_545 S
C175   H176    1.103   .     S
C175   H177    1.111   .     S
C175   H178    1.109   .     S
H179   C468    1.113   .     S
C183   H191    1.108   .     S
C183   C184    1.536   .     S
C183   H192    1.111   .     S
C184   C185    1.523   .     S
C185   H186    1.111   .     S
C185   H187    1.110   .     S
H188   C283    1.110   .     S
H189   C282    1.112   .     S
H190   C282    1.109   .     S
C197   C208    1.459   .     S
C197   O241    1.288   .     A
C197   O43     1.298   1_655 S
C198   O242    1.289   .     A
C198   C207    1.450   .     S
C199   C251    1.525   .     S
C199   C201    1.399   .     A
C199   C228    1.450   .     A
C200   C261    1.529   .     S
C200   C202    1.401   .     A
C200   C227    1.452   .     A
C201   F247    1.363   .     S
C201   C1107   1.382   1_554 S
C202   F248    1.360   .     S
C202   C1108   1.385   .     S
C203   C208    1.419   .     A
C203   C271    1.520   .     S
C203   C793    1.391   1_545 S
C204   C281    1.521   .     S
C204   C207    1.415   .     A
C204   C500    1.397   .     S
C205   F291    1.361   .     S
C205   C497    1.391   .     S
C205   C11     1.398   1_655 S
C206   F292    1.360   .     S
C206   C792    1.397   1_545 S
C208   C10     1.404   1_655 S
C209   N238    1.366   .     A
C209   C211    1.416   .     A
C209   H235    1.081   .     S
C210   N237    1.366   .     A
C210   C212    1.416   .     A
C210   H236    1.082   .     S
C211   F293    1.354   .     S
C211   N237    1.369   .     A
C212   N238    1.369   .     A
C212   F294    1.354   .     S
C213   O245    1.296   .     A
C213   C215    1.458   .     S
C213   O47     1.291   1_655 S
C214   O246    1.296   .     A
C214   C216    1.464   .     S
C215   C219    1.388   .     A
C215   C221    1.392   .     A
C216   C220    1.390   .     A
C216   C222    1.395   .     A
C217   C225    1.417   .     A
C217   C219    1.383   .     A
C217   F249    1.359   .     S
C218   F250    1.358   .     S
C218   C220    1.386   .     A
C218   C226    1.417   .     A
C219   H38     1.083   1_655 S
C221   C223    1.408   .     A
C221   H232    1.064   .     S
C222   C224    1.410   .     A
C222   H231    1.067   .     S
C223   C225    1.420   .     A
C223   C227    1.446   .     A
C224   C228    1.444   .     A
C224   C226    1.417   .     A
C225   C1083   1.382   .     S
C226   C1084   1.385   1_554 S
C227   C1110   1.451   .     S
C228   C1109   1.451   1_554 S
Cu229  O242    1.974   .     S
Cu229  O239    1.963   .     S
Cu229  O246    1.945   .     S
Cu229  O243    1.958   .     S
Cu229  N237    2.013   .     S
Cu230  N238    2.013   .     S
Cu230  O240    1.963   .     S
Cu230  O241    1.974   .     S
Cu230  O244    1.958   .     S
Cu230  O245    1.945   .     S
Cu230  Cu33    2.679   1_655 S
H233   C24     1.083   1_655 S
O240   C2      1.292   1_655 S
O244   C18     1.295   1_655 S
C251   C252    1.547   .     S
C251   H259    1.113   .     S
C251   H260    1.105   .     S
C252   C253    1.515   .     S
C252   H258    1.110   .     S
C252   H257    1.111   .     S
C253   H255    1.109   .     S
C253   H256    1.107   .     S
C253   H254    1.109   .     S
C261   H269    1.106   .     S
C261   H270    1.113   .     S
C261   C262    1.548   .     S
C262   H268    1.110   .     S
C262   H267    1.107   .     S
C262   C263    1.522   .     S
C263   H264    1.108   .     S
C263   H265    1.110   .     S
C263   H266    1.110   .     S
C271   H279    1.106   .     S
C271   H280    1.111   .     S
C271   C272    1.541   .     S
C272   C273    1.520   .     S
C272   H278    1.111   .     S
C272   H865    1.113   1_545 S
C273   H274    1.103   .     S
C273   H275    1.111   .     S
C273   H276    1.109   .     S
H277   C566    1.113   .     S
C281   H289    1.108   .     S
C281   C282    1.536   .     S
C281   H290    1.111   .     S
C282   C283    1.523   .     S
C283   H284    1.111   .     S
C283   H285    1.110   .     S
H286   C87     1.110   1_655 S
H287   C86     1.112   1_655 S
H288   C86     1.109   1_655 S
C295   C306    1.459   .     S
C295   O339    1.288   .     A
C295   O435    1.298   .     S
C296   O340    1.289   .     A
C296   C305    1.450   .     S
C296   O534    1.292   1_455 S
C297   C349    1.525   .     S
C297   C299    1.399   .     A
C297   C326    1.450   .     A
C298   C359    1.529   .     S
C298   C300    1.401   .     A
C298   C325    1.452   .     A
C299   F345    1.363   .     S
C299   C1205   1.382   1_554 S
C300   F346    1.360   .     S
C300   C1206   1.385   .     S
C301   C306    1.419   .     A
C301   C369    1.520   .     S
C302   C379    1.521   .     S
C302   C305    1.415   .     A
C302   C598    1.397   .     S
C303   F389    1.361   .     S
C303   C595    1.391   .     S
C303   C403    1.398   .     S
C304   F390    1.360   .     S
C304   C502    1.404   1_455 S
C305   C499    1.398   1_455 S
C306   C402    1.404   .     S
C307   N336    1.366   .     A
C307   C309    1.416   .     A
C307   H333    1.081   .     S
C308   N335    1.366   .     A
C308   C310    1.416   .     A
C308   H334    1.082   .     S
C309   F391    1.354   .     S
C309   N335    1.369   .     A
C310   N336    1.369   .     A
C310   F392    1.354   .     S
C311   O343    1.296   .     A
C311   C313    1.458   .     S
C311   O439    1.291   .     S
C312   O344    1.296   .     A
C312   C314    1.464   .     S
C312   O538    1.295   1_455 S
C313   C317    1.388   .     A
C313   C319    1.392   .     A
C314   C318    1.390   .     A
C314   C320    1.395   .     A
C315   C323    1.417   .     A
C315   C317    1.383   .     A
C315   F347    1.359   .     S
C316   F348    1.358   .     S
C316   C318    1.386   .     A
C316   C324    1.417   .     A
C317   H430    1.083   .     S
C318   H527    1.083   1_455 S
C319   C321    1.408   .     A
C319   H330    1.064   .     S
C320   C322    1.410   .     A
C320   H329    1.067   .     S
C321   C323    1.420   .     A
C321   C325    1.446   .     A
C322   C326    1.444   .     A
C322   C324    1.417   .     A
C323   C1181   1.382   .     S
C324   C1182   1.385   1_554 S
C325   C1208   1.451   .     S
C326   C1207   1.451   1_554 S
Cu327  O340    1.974   .     S
Cu327  O337    1.963   .     S
Cu327  O344    1.945   .     S
Cu327  O341    1.958   .     S
Cu327  N335    2.013   .     S
Cu327  Cu524   2.679   1_455 S
Cu328  N336    2.013   .     S
Cu328  O338    1.963   .     S
Cu328  O339    1.974   .     S
Cu328  O342    1.958   .     S
Cu328  O343    1.945   .     S
Cu328  Cu425   2.679   .     S
H331   C416    1.083   .     S
H332   C513    1.083   1_455 S
O337   C491    1.298   1_455 S
O338   C394    1.292   .     S
O341   C507    1.291   1_455 S
O342   C410    1.295   .     S
C349   C350    1.547   .     S
C349   H357    1.113   .     S
C349   H358    1.105   .     S
C350   C351    1.515   .     S
C350   H356    1.110   .     S
C350   H355    1.111   .     S
C351   H353    1.109   .     S
C351   H354    1.107   .     S
C351   H352    1.109   .     S
C359   H367    1.106   .     S
C359   H368    1.113   .     S
C359   C360    1.548   .     S
C360   H366    1.110   .     S
C360   H365    1.107   .     S
C360   C361    1.522   .     S
C361   H362    1.108   .     S
C361   H363    1.110   .     S
C361   H364    1.110   .     S
C369   H377    1.106   .     S
C369   H378    1.111   .     S
C369   C370    1.541   .     S
C370   C371    1.520   .     S
C370   H376    1.111   .     S
C371   H372    1.103   .     S
C371   H373    1.111   .     S
C371   H374    1.109   .     S
H375   C664    1.113   .     S
C379   H387    1.108   .     S
C379   C380    1.536   .     S
C379   H388    1.111   .     S
C380   C381    1.523   .     S
C380   H581    1.112   1_455 S
C380   H582    1.109   1_455 S
C381   H382    1.111   .     S
C381   H383    1.110   .     S
C381   H580    1.110   1_455 S
H384   C479    1.110   .     S
H385   C478    1.112   .     S
H386   C478    1.109   .     S
C393   C404    1.459   .     S
C393   O437    1.288   .     A
C393   O533    1.298   .     S
C394   O438    1.289   .     A
C394   C403    1.450   .     S
C395   C447    1.525   .     S
C395   C397    1.399   .     A
C395   C424    1.450   .     A
C396   C457    1.529   .     S
C396   C398    1.401   .     A
C396   C423    1.452   .     A
C397   F443    1.363   .     S
C397   C1303   1.382   1_554 S
C398   F444    1.360   .     S
C398   C1304   1.385   .     S
C399   C404    1.419   .     A
C399   C467    1.520   .     S
C400   C477    1.521   .     S
C400   C403    1.415   .     A
C400   C696    1.397   .     S
C401   F487    1.361   .     S
C401   C693    1.391   .     S
C401   C501    1.398   .     S
C402   F488    1.360   .     S
C404   C500    1.404   .     S
C405   N434    1.366   .     A
C405   C407    1.416   .     A
C405   H431    1.081   .     S
C406   N433    1.366   .     A
C406   C408    1.416   .     A
C406   H432    1.082   .     S
C407   F489    1.354   .     S
C407   N433    1.369   .     A
C408   N434    1.369   .     A
C408   F490    1.354   .     S
C409   O441    1.296   .     A
C409   C411    1.458   .     S
C409   O537    1.291   .     S
C410   O442    1.296   .     A
C410   C412    1.464   .     S
C411   C415    1.388   .     A
C411   C417    1.392   .     A
C412   C416    1.390   .     A
C412   C418    1.395   .     A
C413   C421    1.417   .     A
C413   C415    1.383   .     A
C413   F445    1.359   .     S
C414   F446    1.358   .     S
C414   C416    1.386   .     A
C414   C422    1.417   .     A
C415   H528    1.083   .     S
C417   C419    1.408   .     A
C417   H428    1.064   .     S
C418   C420    1.410   .     A
C418   H427    1.067   .     S
C419   C421    1.420   .     A
C419   C423    1.446   .     A
C420   C424    1.444   .     A
C420   C422    1.417   .     A
C421   C1279   1.382   .     S
C422   C1280   1.385   1_554 S
C423   C1306   1.451   .     S
C424   C1305   1.451   1_554 S
Cu425  O438    1.974   .     S
Cu425  O435    1.963   .     S
Cu425  O442    1.945   .     S
Cu425  O439    1.958   .     S
Cu425  N433    2.013   .     S
Cu426  N434    2.013   .     S
Cu426  O436    1.963   .     S
Cu426  O437    1.974   .     S
Cu426  O440    1.958   .     S
Cu426  O441    1.945   .     S
Cu426  Cu523   2.679   .     S
H429   C514    1.083   .     S
O436   C492    1.292   .     S
O440   C508    1.295   .     S
C447   C448    1.547   .     S
C447   H455    1.113   .     S
C447   H456    1.105   .     S
C448   C449    1.515   .     S
C448   H454    1.110   .     S
C448   H453    1.111   .     S
C449   H451    1.109   .     S
C449   H452    1.107   .     S
C449   H450    1.109   .     S
C457   H465    1.106   .     S
C457   H466    1.113   .     S
C457   C458    1.548   .     S
C458   H464    1.110   .     S
C458   H463    1.107   .     S
C458   C459    1.522   .     S
C459   H460    1.108   .     S
C459   H461    1.110   .     S
C459   H462    1.110   .     S
C467   H475    1.106   .     S
C467   H476    1.111   .     S
C467   C468    1.541   .     S
C468   C469    1.520   .     S
C468   H474    1.111   .     S
C469   H470    1.103   .     S
C469   H471    1.111   .     S
C469   H472    1.109   .     S
H473   C762    1.113   .     S
C477   H485    1.108   .     S
C477   C478    1.536   .     S
C477   H486    1.111   .     S
C478   C479    1.523   .     S
C479   H480    1.111   .     S
C479   H481    1.110   .     S
H482   C577    1.110   .     S
H483   C576    1.112   .     S
H484   C576    1.109   .     S
C491   C502    1.459   .     S
C491   O535    1.288   .     A
C491   O337    1.298   1_655 S
C492   O536    1.289   .     A
C492   C501    1.450   .     S
C493   C545    1.525   .     S
C493   C495    1.399   .     A
C493   C522    1.450   .     A
C494   C555    1.529   .     S
C494   C496    1.401   .     A
C494   C521    1.452   .     A
C495   F541    1.363   .     S
C495   C1401   1.382   1_554 S
C496   F542    1.360   .     S
C496   C1402   1.385   .     S
C497   C502    1.419   .     A
C497   C565    1.520   .     S
C498   C575    1.521   .     S
C498   C501    1.415   .     A
C498   C794    1.397   .     S
C499   F585    1.361   .     S
C499   C791    1.391   .     S
C499   C305    1.398   1_655 S
C500   F586    1.360   .     S
C502   C304    1.404   1_655 S
C503   N532    1.366   .     A
C503   C505    1.416   .     A
C503   H529    1.081   .     S
C504   N531    1.366   .     A
C504   C506    1.416   .     A
C504   H530    1.082   .     S
C505   F587    1.354   .     S
C505   N531    1.369   .     A
C506   N532    1.369   .     A
C506   F588    1.354   .     S
C507   O539    1.296   .     A
C507   C509    1.458   .     S
C507   O341    1.291   1_655 S
C508   O540    1.296   .     A
C508   C510    1.464   .     S
C509   C513    1.388   .     A
C509   C515    1.392   .     A
C510   C514    1.390   .     A
C510   C516    1.395   .     A
C511   C519    1.417   .     A
C511   C513    1.383   .     A
C511   F543    1.359   .     S
C512   F544    1.358   .     S
C512   C514    1.386   .     A
C512   C520    1.417   .     A
C513   H332    1.083   1_655 S
C515   C517    1.408   .     A
C515   H526    1.064   .     S
C516   C518    1.410   .     A
C516   H525    1.067   .     S
C517   C519    1.420   .     A
C517   C521    1.446   .     A
C518   C522    1.444   .     A
C518   C520    1.417   .     A
C519   C1377   1.382   .     S
C520   C1378   1.385   1_554 S
C521   C1404   1.451   .     S
C522   C1403   1.451   1_554 S
Cu523  O536    1.974   .     S
Cu523  O533    1.963   .     S
Cu523  O540    1.945   .     S
Cu523  O537    1.958   .     S
Cu523  N531    2.013   .     S
Cu524  N532    2.013   .     S
Cu524  O534    1.963   .     S
Cu524  O535    1.974   .     S
Cu524  O538    1.958   .     S
Cu524  O539    1.945   .     S
Cu524  Cu327   2.679   1_655 S
H527   C318    1.083   1_655 S
O534   C296    1.292   1_655 S
O538   C312    1.295   1_655 S
C545   C546    1.547   .     S
C545   H553    1.113   .     S
C545   H554    1.105   .     S
C546   C547    1.515   .     S
C546   H552    1.110   .     S
C546   H551    1.111   .     S
C547   H549    1.109   .     S
C547   H550    1.107   .     S
C547   H548    1.109   .     S
C555   H563    1.106   .     S
C555   H564    1.113   .     S
C555   C556    1.548   .     S
C556   H562    1.110   .     S
C556   H561    1.107   .     S
C556   C557    1.522   .     S
C557   H558    1.108   .     S
C557   H559    1.110   .     S
C557   H560    1.110   .     S
C565   H573    1.106   .     S
C565   H574    1.111   .     S
C565   C566    1.541   .     S
C566   C567    1.520   .     S
C566   H572    1.111   .     S
C567   H568    1.103   .     S
C567   H569    1.111   .     S
C567   H570    1.109   .     S
H571   C860    1.113   .     S
C575   H583    1.108   .     S
C575   C576    1.536   .     S
C575   H584    1.111   .     S
C576   C577    1.523   .     S
C577   H578    1.111   .     S
C577   H579    1.110   .     S
H580   C381    1.110   1_655 S
H581   C380    1.112   1_655 S
H582   C380    1.109   1_655 S
C589   C600    1.459   .     S
C589   O633    1.288   .     A
C589   O729    1.298   .     S
C590   O634    1.289   .     A
C590   C599    1.450   .     S
C590   O828    1.292   1_455 S
C591   C643    1.525   .     S
C591   C593    1.399   .     A
C591   C620    1.450   .     A
C592   C653    1.529   .     S
C592   C594    1.401   .     A
C592   C619    1.452   .     A
C593   F639    1.363   .     S
C593   C1499   1.382   1_554 S
C594   F640    1.360   .     S
C594   C1500   1.385   .     S
C595   C600    1.419   .     A
C595   C663    1.520   .     S
C596   C673    1.521   .     S
C596   C599    1.415   .     A
C596   C10     1.397   1_565 S
C597   F683    1.361   .     S
C597   C7      1.391   1_565 S
C597   C697    1.398   .     S
C598   F684    1.360   .     S
C598   C796    1.404   1_455 S
C599   C793    1.398   1_455 S
C600   C696    1.404   .     S
C601   N630    1.366   .     A
C601   C603    1.416   .     A
C601   H627    1.081   .     S
C602   N629    1.366   .     A
C602   C604    1.416   .     A
C602   H628    1.082   .     S
C603   F685    1.354   .     S
C603   N629    1.369   .     A
C604   N630    1.369   .     A
C604   F686    1.354   .     S
C605   O637    1.296   .     A
C605   C607    1.458   .     S
C605   O733    1.291   .     S
C606   O638    1.296   .     A
C606   C608    1.464   .     S
C606   O832    1.295   1_455 S
C607   C611    1.388   .     A
C607   C613    1.392   .     A
C608   C612    1.390   .     A
C608   C614    1.395   .     A
C609   C617    1.417   .     A
C609   C611    1.383   .     A
C609   F641    1.359   .     S
C610   F642    1.358   .     S
C610   C612    1.386   .     A
C610   C618    1.417   .     A
C611   H724    1.083   .     S
C612   H821    1.083   1_455 S
C613   C615    1.408   .     A
C613   H624    1.064   .     S
C614   C616    1.410   .     A
C614   H623    1.067   .     S
C615   C617    1.420   .     A
C615   C619    1.446   .     A
C616   C620    1.444   .     A
C616   C618    1.417   .     A
C617   C1475   1.382   .     S
C618   C1476   1.385   1_554 S
C619   C1502   1.451   .     S
C620   C1501   1.451   1_554 S
Cu621  O634    1.974   .     S
Cu621  O631    1.963   .     S
Cu621  O638    1.945   .     S
Cu621  O635    1.958   .     S
Cu621  N629    2.013   .     S
Cu621  Cu818   2.679   1_455 S
Cu622  N630    2.013   .     S
Cu622  O632    1.963   .     S
Cu622  O633    1.974   .     S
Cu622  O636    1.958   .     S
Cu622  O637    1.945   .     S
Cu622  Cu719   2.679   .     S
H625   C710    1.083   .     S
H626   C807    1.083   1_455 S
O631   C785    1.298   1_455 S
O632   C688    1.292   .     S
O635   C801    1.291   1_455 S
O636   C704    1.295   .     S
C643   C644    1.547   .     S
C643   H651    1.113   .     S
C643   H652    1.105   .     S
C644   C645    1.515   .     S
C644   H650    1.110   .     S
C644   H649    1.111   .     S
C645   H647    1.109   .     S
C645   H648    1.107   .     S
C645   H646    1.109   .     S
C653   H661    1.106   .     S
C653   H662    1.113   .     S
C653   C654    1.548   .     S
C654   H660    1.110   .     S
C654   H659    1.107   .     S
C654   C655    1.522   .     S
C655   H656    1.108   .     S
C655   H657    1.110   .     S
C655   H658    1.110   .     S
C663   H671    1.106   .     S
C663   H672    1.111   .     S
C663   C664    1.541   .     S
C664   C665    1.520   .     S
C664   H670    1.111   .     S
C665   H666    1.103   .     S
C665   H667    1.111   .     S
C665   H668    1.109   .     S
H669   C76     1.113   1_565 S
C673   H681    1.108   .     S
C673   C674    1.536   .     S
C673   H682    1.111   .     S
C674   C675    1.523   .     S
C674   H875    1.112   1_455 S
C674   H876    1.109   1_455 S
C675   H676    1.111   .     S
C675   H677    1.110   .     S
C675   H874    1.110   1_455 S
H678   C773    1.110   .     S
H679   C772    1.112   .     S
H680   C772    1.109   .     S
C687   C698    1.459   .     S
C687   O731    1.288   .     A
C687   O827    1.298   .     S
C688   O732    1.289   .     A
C688   C697    1.450   .     S
C689   C741    1.525   .     S
C689   C691    1.399   .     A
C689   C718    1.450   .     A
C690   C751    1.529   .     S
C690   C692    1.401   .     A
C690   C717    1.452   .     A
C691   F737    1.363   .     S
C691   C1597   1.382   1_554 S
C692   F738    1.360   .     S
C692   C1598   1.385   .     S
C693   C698    1.419   .     A
C693   C761    1.520   .     S
C694   C771    1.521   .     S
C694   C697    1.415   .     A
C694   C108    1.397   1_565 S
C695   F781    1.361   .     S
C695   C105    1.391   1_565 S
C695   C795    1.398   .     S
C696   F782    1.360   .     S
C698   C794    1.404   .     S
C699   N728    1.366   .     A
C699   C701    1.416   .     A
C699   H725    1.081   .     S
C700   N727    1.366   .     A
C700   C702    1.416   .     A
C700   H726    1.082   .     S
C701   F783    1.354   .     S
C701   N727    1.369   .     A
C702   N728    1.369   .     A
C702   F784    1.354   .     S
C703   O735    1.296   .     A
C703   C705    1.458   .     S
C703   O831    1.291   .     S
C704   O736    1.296   .     A
C704   C706    1.464   .     S
C705   C709    1.388   .     A
C705   C711    1.392   .     A
C706   C710    1.390   .     A
C706   C712    1.395   .     A
C707   C715    1.417   .     A
C707   C709    1.383   .     A
C707   F739    1.359   .     S
C708   F740    1.358   .     S
C708   C710    1.386   .     A
C708   C716    1.417   .     A
C709   H822    1.083   .     S
C711   C713    1.408   .     A
C711   H722    1.064   .     S
C712   C714    1.410   .     A
C712   H721    1.067   .     S
C713   C715    1.420   .     A
C713   C717    1.446   .     A
C714   C718    1.444   .     A
C714   C716    1.417   .     A
C715   C1573   1.382   .     S
C716   C1574   1.385   1_554 S
C717   C1600   1.451   .     S
C718   C1599   1.451   1_554 S
Cu719  O732    1.974   .     S
Cu719  O729    1.963   .     S
Cu719  O736    1.945   .     S
Cu719  O733    1.958   .     S
Cu719  N727    2.013   .     S
Cu720  N728    2.013   .     S
Cu720  O730    1.963   .     S
Cu720  O731    1.974   .     S
Cu720  O734    1.958   .     S
Cu720  O735    1.945   .     S
Cu720  Cu817   2.679   .     S
H723   C808    1.083   .     S
O730   C786    1.292   .     S
O734   C802    1.295   .     S
C741   C742    1.547   .     S
C741   H749    1.113   .     S
C741   H750    1.105   .     S
C742   C743    1.515   .     S
C742   H748    1.110   .     S
C742   H747    1.111   .     S
C743   H745    1.109   .     S
C743   H746    1.107   .     S
C743   H744    1.109   .     S
C751   H759    1.106   .     S
C751   H760    1.113   .     S
C751   C752    1.548   .     S
C752   H758    1.110   .     S
C752   H757    1.107   .     S
C752   C753    1.522   .     S
C753   H754    1.108   .     S
C753   H755    1.110   .     S
C753   H756    1.110   .     S
C761   H769    1.106   .     S
C761   H770    1.111   .     S
C761   C762    1.541   .     S
C762   C763    1.520   .     S
C762   H768    1.111   .     S
C763   H764    1.103   .     S
C763   H765    1.111   .     S
C763   H766    1.109   .     S
H767   C174    1.113   1_565 S
C771   H779    1.108   .     S
C771   C772    1.536   .     S
C771   H780    1.111   .     S
C772   C773    1.523   .     S
C773   H774    1.111   .     S
C773   H775    1.110   .     S
H776   C871    1.110   .     S
H777   C870    1.112   .     S
H778   C870    1.109   .     S
C785   C796    1.459   .     S
C785   O829    1.288   .     A
C785   O631    1.298   1_655 S
C786   O830    1.289   .     A
C786   C795    1.450   .     S
C787   C839    1.525   .     S
C787   C789    1.399   .     A
C787   C816    1.450   .     A
C788   C849    1.529   .     S
C788   C790    1.401   .     A
C788   C815    1.452   .     A
C789   F835    1.363   .     S
C789   C1695   1.382   1_554 S
C790   F836    1.360   .     S
C790   C1696   1.385   .     S
C791   C796    1.419   .     A
C791   C859    1.520   .     S
C792   C869    1.521   .     S
C792   C795    1.415   .     A
C792   C206    1.397   1_565 S
C793   F879    1.361   .     S
C793   C203    1.391   1_565 S
C793   C599    1.398   1_655 S
C794   F880    1.360   .     S
C796   C598    1.404   1_655 S
C797   N826    1.366   .     A
C797   C799    1.416   .     A
C797   H823    1.081   .     S
C798   N825    1.366   .     A
C798   C800    1.416   .     A
C798   H824    1.082   .     S
C799   F881    1.354   .     S
C799   N825    1.369   .     A
C800   N826    1.369   .     A
C800   F882    1.354   .     S
C801   O833    1.296   .     A
C801   C803    1.458   .     S
C801   O635    1.291   1_655 S
C802   O834    1.296   .     A
C802   C804    1.464   .     S
C803   C807    1.388   .     A
C803   C809    1.392   .     A
C804   C808    1.390   .     A
C804   C810    1.395   .     A
C805   C813    1.417   .     A
C805   C807    1.383   .     A
C805   F837    1.359   .     S
C806   F838    1.358   .     S
C806   C808    1.386   .     A
C806   C814    1.417   .     A
C807   H626    1.083   1_655 S
C809   C811    1.408   .     A
C809   H820    1.064   .     S
C810   C812    1.410   .     A
C810   H819    1.067   .     S
C811   C813    1.420   .     A
C811   C815    1.446   .     A
C812   C816    1.444   .     A
C812   C814    1.417   .     A
C813   C1671   1.382   .     S
C814   C1672   1.385   1_554 S
C815   C1698   1.451   .     S
C816   C1697   1.451   1_554 S
Cu817  O830    1.974   .     S
Cu817  O827    1.963   .     S
Cu817  O834    1.945   .     S
Cu817  O831    1.958   .     S
Cu817  N825    2.013   .     S
Cu818  N826    2.013   .     S
Cu818  O828    1.963   .     S
Cu818  O829    1.974   .     S
Cu818  O832    1.958   .     S
Cu818  O833    1.945   .     S
Cu818  Cu621   2.679   1_655 S
H821   C612    1.083   1_655 S
O828   C590    1.292   1_655 S
O832   C606    1.295   1_655 S
C839   C840    1.547   .     S
C839   H847    1.113   .     S
C839   H848    1.105   .     S
C840   C841    1.515   .     S
C840   H846    1.110   .     S
C840   H845    1.111   .     S
C841   H843    1.109   .     S
C841   H844    1.107   .     S
C841   H842    1.109   .     S
C849   H857    1.106   .     S
C849   H858    1.113   .     S
C849   C850    1.548   .     S
C850   H856    1.110   .     S
C850   H855    1.107   .     S
C850   C851    1.522   .     S
C851   H852    1.108   .     S
C851   H853    1.110   .     S
C851   H854    1.110   .     S
C859   H867    1.106   .     S
C859   H868    1.111   .     S
C859   C860    1.541   .     S
C860   C861    1.520   .     S
C860   H866    1.111   .     S
C861   H862    1.103   .     S
C861   H863    1.111   .     S
C861   H864    1.109   .     S
H865   C272    1.113   1_565 S
C869   H877    1.108   .     S
C869   C870    1.536   .     S
C869   H878    1.111   .     S
C870   C871    1.523   .     S
C871   H872    1.111   .     S
C871   H873    1.110   .     S
H874   C675    1.110   1_655 S
H875   C674    1.112   1_655 S
H876   C674    1.109   1_655 S
C883   C894    1.459   .     S
C883   O927    1.288   .     A
C883   O1023   1.298   .     S
C884   O928    1.289   .     A
C884   C893    1.450   .     S
C884   O1122   1.292   1_455 S
C885   C937    1.525   .     S
C885   C887    1.399   .     A
C885   C914    1.450   .     A
C886   C947    1.529   .     S
C886   C888    1.401   .     A
C886   C913    1.452   .     A
C887   F933    1.363   .     S
C888   F934    1.360   .     S
C888   C30     1.385   1_556 S
C889   C894    1.419   .     A
C889   C957    1.520   .     S
C889   C1479   1.391   1_545 S
C890   C967    1.521   .     S
C890   C893    1.415   .     A
C890   C1186   1.397   .     S
C891   F977    1.361   .     S
C891   C1183   1.391   .     S
C891   C991    1.398   .     S
C892   F978    1.360   .     S
C892   C1478   1.397   1_545 S
C892   C1090   1.404   1_455 S
C893   C1087   1.398   1_455 S
C894   C990    1.404   .     S
C895   N924    1.366   .     A
C895   C897    1.416   .     A
C895   H921    1.081   .     S
C896   N923    1.366   .     A
C896   C898    1.416   .     A
C896   H922    1.082   .     S
C897   F979    1.354   .     S
C897   N923    1.369   .     A
C898   N924    1.369   .     A
C898   F980    1.354   .     S
C899   O931    1.296   .     A
C899   C901    1.458   .     S
C899   O1027   1.291   .     S
C900   O932    1.296   .     A
C900   C902    1.464   .     S
C900   O1126   1.295   1_455 S
C901   C905    1.388   .     A
C901   C907    1.392   .     A
C902   C906    1.390   .     A
C902   C908    1.395   .     A
C903   C911    1.417   .     A
C903   C905    1.383   .     A
C903   F935    1.359   .     S
C904   F936    1.358   .     S
C904   C906    1.386   .     A
C904   C912    1.417   .     A
C905   H1018   1.083   .     S
C906   H1115   1.083   1_455 S
C907   C909    1.408   .     A
C907   H918    1.064   .     S
C908   C910    1.410   .     A
C908   H917    1.067   .     S
C909   C911    1.420   .     A
C909   C913    1.446   .     A
C910   C914    1.444   .     A
C910   C912    1.417   .     A
C911   C5      1.382   1_556 S
C913   C32     1.451   1_556 S
Cu915  O928    1.974   .     S
Cu915  O925    1.963   .     S
Cu915  O932    1.945   .     S
Cu915  O929    1.958   .     S
Cu915  N923    2.013   .     S
Cu915  Cu1112  2.679   1_455 S
Cu916  N924    2.013   .     S
Cu916  O926    1.963   .     S
Cu916  O927    1.974   .     S
Cu916  O930    1.958   .     S
Cu916  O931    1.945   .     S
Cu916  Cu1013  2.679   .     S
H919   C1004   1.083   .     S
H920   C1101   1.083   1_455 S
O925   C1079   1.298   1_455 S
O926   C982    1.292   .     S
O929   C1095   1.291   1_455 S
O930   C998    1.295   .     S
C937   C938    1.547   .     S
C937   H945    1.113   .     S
C937   H946    1.105   .     S
C938   C939    1.515   .     S
C938   H944    1.110   .     S
C938   H943    1.111   .     S
C939   H941    1.109   .     S
C939   H942    1.107   .     S
C939   H940    1.109   .     S
C947   H955    1.106   .     S
C947   H956    1.113   .     S
C947   C948    1.548   .     S
C948   H954    1.110   .     S
C948   H953    1.107   .     S
C948   C949    1.522   .     S
C949   H950    1.108   .     S
C949   H951    1.110   .     S
C949   H952    1.110   .     S
C957   H965    1.106   .     S
C957   H966    1.111   .     S
C957   C958    1.541   .     S
C958   C959    1.520   .     S
C958   H964    1.111   .     S
C958   H1551   1.113   1_545 S
C959   H960    1.103   .     S
C959   H961    1.111   .     S
C959   H962    1.109   .     S
H963   C1252   1.113   .     S
C967   H975    1.108   .     S
C967   C968    1.536   .     S
C967   H976    1.111   .     S
C968   C969    1.523   .     S
C968   H1169   1.112   1_455 S
C968   H1170   1.109   1_455 S
C969   H970    1.111   .     S
C969   H971    1.110   .     S
C969   H1168   1.110   1_455 S
H972   C1067   1.110   .     S
H973   C1066   1.112   .     S
H974   C1066   1.109   .     S
C981   C992    1.459   .     S
C981   O1025   1.288   .     A
C981   O1121   1.298   .     S
C982   O1026   1.289   .     A
C982   C991    1.450   .     S
C983   C1035   1.525   .     S
C983   C985    1.399   .     A
C983   C1012   1.450   .     A
C984   C1045   1.529   .     S
C984   C986    1.401   .     A
C984   C1011   1.452   .     A
C985   F1031   1.363   .     S
C986   F1032   1.360   .     S
C986   C128    1.385   1_556 S
C987   C992    1.419   .     A
C987   C1055   1.520   .     S
C987   C1577   1.391   1_545 S
C988   C1065   1.521   .     S
C988   C991    1.415   .     A
C988   C1284   1.397   .     S
C989   F1075   1.361   .     S
C989   C1281   1.391   .     S
C989   C1089   1.398   .     S
C990   F1076   1.360   .     S
C990   C1576   1.397   1_545 S
C992   C1088   1.404   .     S
C993   N1022   1.366   .     A
C993   C995    1.416   .     A
C993   H1019   1.081   .     S
C994   N1021   1.366   .     A
C994   C996    1.416   .     A
C994   H1020   1.082   .     S
C995   F1077   1.354   .     S
C995   N1021   1.369   .     A
C996   N1022   1.369   .     A
C996   F1078   1.354   .     S
C997   O1029   1.296   .     A
C997   C999    1.458   .     S
C997   O1125   1.291   .     S
C998   O1030   1.296   .     A
C998   C1000   1.464   .     S
C999   C1003   1.388   .     A
C999   C1005   1.392   .     A
C1000  C1004   1.390   .     A
C1000  C1006   1.395   .     A
C1001  C1009   1.417   .     A
C1001  C1003   1.383   .     A
C1001  F1033   1.359   .     S
C1002  F1034   1.358   .     S
C1002  C1004   1.386   .     A
C1002  C1010   1.417   .     A
C1003  H1116   1.083   .     S
C1005  C1007   1.408   .     A
C1005  H1016   1.064   .     S
C1006  C1008   1.410   .     A
C1006  H1015   1.067   .     S
C1007  C1009   1.420   .     A
C1007  C1011   1.446   .     A
C1008  C1012   1.444   .     A
C1008  C1010   1.417   .     A
C1009  C103    1.382   1_556 S
C1011  C130    1.451   1_556 S
Cu1013 O1026   1.974   .     S
Cu1013 O1023   1.963   .     S
Cu1013 O1030   1.945   .     S
Cu1013 O1027   1.958   .     S
Cu1013 N1021   2.013   .     S
Cu1014 N1022   2.013   .     S
Cu1014 O1024   1.963   .     S
Cu1014 O1025   1.974   .     S
Cu1014 O1028   1.958   .     S
Cu1014 O1029   1.945   .     S
Cu1014 Cu1111  2.679   .     S
H1017  C1102   1.083   .     S
O1024  C1080   1.292   .     S
O1028  C1096   1.295   .     S
C1035  C1036   1.547   .     S
C1035  H1043   1.113   .     S
C1035  H1044   1.105   .     S
C1036  C1037   1.515   .     S
C1036  H1042   1.110   .     S
C1036  H1041   1.111   .     S
C1037  H1039   1.109   .     S
C1037  H1040   1.107   .     S
C1037  H1038   1.109   .     S
C1045  H1053   1.106   .     S
C1045  H1054   1.113   .     S
C1045  C1046   1.548   .     S
C1046  H1052   1.110   .     S
C1046  H1051   1.107   .     S
C1046  C1047   1.522   .     S
C1047  H1048   1.108   .     S
C1047  H1049   1.110   .     S
C1047  H1050   1.110   .     S
C1055  H1063   1.106   .     S
C1055  H1064   1.111   .     S
C1055  C1056   1.541   .     S
C1056  C1057   1.520   .     S
C1056  H1062   1.111   .     S
C1056  H1649   1.113   1_545 S
C1057  H1058   1.103   .     S
C1057  H1059   1.111   .     S
C1057  H1060   1.109   .     S
H1061  C1350   1.113   .     S
C1065  H1073   1.108   .     S
C1065  C1066   1.536   .     S
C1065  H1074   1.111   .     S
C1066  C1067   1.523   .     S
C1067  H1068   1.111   .     S
C1067  H1069   1.110   .     S
H1070  C1165   1.110   .     S
H1071  C1164   1.112   .     S
H1072  C1164   1.109   .     S
C1079  C1090   1.459   .     S
C1079  O1123   1.288   .     A
C1079  O925    1.298   1_655 S
C1080  O1124   1.289   .     A
C1080  C1089   1.450   .     S
C1081  C1133   1.525   .     S
C1081  C1083   1.399   .     A
C1081  C1110   1.450   .     A
C1082  C1143   1.529   .     S
C1082  C1084   1.401   .     A
C1082  C1109   1.452   .     A
C1083  F1129   1.363   .     S
C1084  F1130   1.360   .     S
C1084  C226    1.385   1_556 S
C1085  C1090   1.419   .     A
C1085  C1153   1.520   .     S
C1085  C1675   1.391   1_545 S
C1086  C1163   1.521   .     S
C1086  C1089   1.415   .     A
C1086  C1382   1.397   .     S
C1087  F1173   1.361   .     S
C1087  C1379   1.391   .     S
C1087  C893    1.398   1_655 S
C1088  F1174   1.360   .     S
C1088  C1674   1.397   1_545 S
C1090  C892    1.404   1_655 S
C1091  N1120   1.366   .     A
C1091  C1093   1.416   .     A
C1091  H1117   1.081   .     S
C1092  N1119   1.366   .     A
C1092  C1094   1.416   .     A
C1092  H1118   1.082   .     S
C1093  F1175   1.354   .     S
C1093  N1119   1.369   .     A
C1094  N1120   1.369   .     A
C1094  F1176   1.354   .     S
C1095  O1127   1.296   .     A
C1095  C1097   1.458   .     S
C1095  O929    1.291   1_655 S
C1096  O1128   1.296   .     A
C1096  C1098   1.464   .     S
C1097  C1101   1.388   .     A
C1097  C1103   1.392   .     A
C1098  C1102   1.390   .     A
C1098  C1104   1.395   .     A
C1099  C1107   1.417   .     A
C1099  C1101   1.383   .     A
C1099  F1131   1.359   .     S
C1100  F1132   1.358   .     S
C1100  C1102   1.386   .     A
C1100  C1108   1.417   .     A
C1101  H920    1.083   1_655 S
C1103  C1105   1.408   .     A
C1103  H1114   1.064   .     S
C1104  C1106   1.410   .     A
C1104  H1113   1.067   .     S
C1105  C1107   1.420   .     A
C1105  C1109   1.446   .     A
C1106  C1110   1.444   .     A
C1106  C1108   1.417   .     A
C1107  C201    1.382   1_556 S
C1109  C228    1.451   1_556 S
Cu1111 O1124   1.974   .     S
Cu1111 O1121   1.963   .     S
Cu1111 O1128   1.945   .     S
Cu1111 O1125   1.958   .     S
Cu1111 N1119   2.013   .     S
Cu1112 N1120   2.013   .     S
Cu1112 O1122   1.963   .     S
Cu1112 O1123   1.974   .     S
Cu1112 O1126   1.958   .     S
Cu1112 O1127   1.945   .     S
Cu1112 Cu915   2.679   1_655 S
H1115  C906    1.083   1_655 S
O1122  C884    1.292   1_655 S
O1126  C900    1.295   1_655 S
C1133  C1134   1.547   .     S
C1133  H1141   1.113   .     S
C1133  H1142   1.105   .     S
C1134  C1135   1.515   .     S
C1134  H1140   1.110   .     S
C1134  H1139   1.111   .     S
C1135  H1137   1.109   .     S
C1135  H1138   1.107   .     S
C1135  H1136   1.109   .     S
C1143  H1151   1.106   .     S
C1143  H1152   1.113   .     S
C1143  C1144   1.548   .     S
C1144  H1150   1.110   .     S
C1144  H1149   1.107   .     S
C1144  C1145   1.522   .     S
C1145  H1146   1.108   .     S
C1145  H1147   1.110   .     S
C1145  H1148   1.110   .     S
C1153  H1161   1.106   .     S
C1153  H1162   1.111   .     S
C1153  C1154   1.541   .     S
C1154  C1155   1.520   .     S
C1154  H1160   1.111   .     S
C1154  H1747   1.113   1_545 S
C1155  H1156   1.103   .     S
C1155  H1157   1.111   .     S
C1155  H1158   1.109   .     S
H1159  C1448   1.113   .     S
C1163  H1171   1.108   .     S
C1163  C1164   1.536   .     S
C1163  H1172   1.111   .     S
C1164  C1165   1.523   .     S
C1165  H1166   1.111   .     S
C1165  H1167   1.110   .     S
H1168  C969    1.110   1_655 S
H1169  C968    1.112   1_655 S
H1170  C968    1.109   1_655 S
C1177  C1188   1.459   .     S
C1177  O1221   1.288   .     A
C1177  O1317   1.298   .     S
C1178  O1222   1.289   .     A
C1178  C1187   1.450   .     S
C1178  O1416   1.292   1_455 S
C1179  C1231   1.525   .     S
C1179  C1181   1.399   .     A
C1179  C1208   1.450   .     A
C1180  C1241   1.529   .     S
C1180  C1182   1.401   .     A
C1180  C1207   1.452   .     A
C1181  F1227   1.363   .     S
C1182  F1228   1.360   .     S
C1182  C324    1.385   1_556 S
C1183  C1188   1.419   .     A
C1183  C1251   1.520   .     S
C1184  C1261   1.521   .     S
C1184  C1187   1.415   .     A
C1184  C1480   1.397   .     S
C1185  F1271   1.361   .     S
C1185  C1477   1.391   .     S
C1185  C1285   1.398   .     S
C1186  F1272   1.360   .     S
C1186  C1384   1.404   1_455 S
C1187  C1381   1.398   1_455 S
C1188  C1284   1.404   .     S
C1189  N1218   1.366   .     A
C1189  C1191   1.416   .     A
C1189  H1215   1.081   .     S
C1190  N1217   1.366   .     A
C1190  C1192   1.416   .     A
C1190  H1216   1.082   .     S
C1191  F1273   1.354   .     S
C1191  N1217   1.369   .     A
C1192  N1218   1.369   .     A
C1192  F1274   1.354   .     S
C1193  O1225   1.296   .     A
C1193  C1195   1.458   .     S
C1193  O1321   1.291   .     S
C1194  O1226   1.296   .     A
C1194  C1196   1.464   .     S
C1194  O1420   1.295   1_455 S
C1195  C1199   1.388   .     A
C1195  C1201   1.392   .     A
C1196  C1200   1.390   .     A
C1196  C1202   1.395   .     A
C1197  C1205   1.417   .     A
C1197  C1199   1.383   .     A
C1197  F1229   1.359   .     S
C1198  F1230   1.358   .     S
C1198  C1200   1.386   .     A
C1198  C1206   1.417   .     A
C1199  H1312   1.083   .     S
C1200  H1409   1.083   1_455 S
C1201  C1203   1.408   .     A
C1201  H1212   1.064   .     S
C1202  C1204   1.410   .     A
C1202  H1211   1.067   .     S
C1203  C1205   1.420   .     A
C1203  C1207   1.446   .     A
C1204  C1208   1.444   .     A
C1204  C1206   1.417   .     A
C1205  C299    1.382   1_556 S
C1207  C326    1.451   1_556 S
Cu1209 O1222   1.974   .     S
Cu1209 O1219   1.963   .     S
Cu1209 O1226   1.945   .     S
Cu1209 O1223   1.958   .     S
Cu1209 N1217   2.013   .     S
Cu1209 Cu1406  2.679   1_455 S
Cu1210 N1218   2.013   .     S
Cu1210 O1220   1.963   .     S
Cu1210 O1221   1.974   .     S
Cu1210 O1224   1.958   .     S
Cu1210 O1225   1.945   .     S
Cu1210 Cu1307  2.679   .     S
H1213  C1298   1.083   .     S
H1214  C1395   1.083   1_455 S
O1219  C1373   1.298   1_455 S
O1220  C1276   1.292   .     S
O1223  C1389   1.291   1_455 S
O1224  C1292   1.295   .     S
C1231  C1232   1.547   .     S
C1231  H1239   1.113   .     S
C1231  H1240   1.105   .     S
C1232  C1233   1.515   .     S
C1232  H1238   1.110   .     S
C1232  H1237   1.111   .     S
C1233  H1235   1.109   .     S
C1233  H1236   1.107   .     S
C1233  H1234   1.109   .     S
C1241  H1249   1.106   .     S
C1241  H1250   1.113   .     S
C1241  C1242   1.548   .     S
C1242  H1248   1.110   .     S
C1242  H1247   1.107   .     S
C1242  C1243   1.522   .     S
C1243  H1244   1.108   .     S
C1243  H1245   1.110   .     S
C1243  H1246   1.110   .     S
C1251  H1259   1.106   .     S
C1251  H1260   1.111   .     S
C1251  C1252   1.541   .     S
C1252  C1253   1.520   .     S
C1252  H1258   1.111   .     S
C1253  H1254   1.103   .     S
C1253  H1255   1.111   .     S
C1253  H1256   1.109   .     S
H1257  C1546   1.113   .     S
C1261  H1269   1.108   .     S
C1261  C1262   1.536   .     S
C1261  H1270   1.111   .     S
C1262  C1263   1.523   .     S
C1262  H1463   1.112   1_455 S
C1262  H1464   1.109   1_455 S
C1263  H1264   1.111   .     S
C1263  H1265   1.110   .     S
C1263  H1462   1.110   1_455 S
H1266  C1361   1.110   .     S
H1267  C1360   1.112   .     S
H1268  C1360   1.109   .     S
C1275  C1286   1.459   .     S
C1275  O1319   1.288   .     A
C1275  O1415   1.298   .     S
C1276  O1320   1.289   .     A
C1276  C1285   1.450   .     S
C1277  C1329   1.525   .     S
C1277  C1279   1.399   .     A
C1277  C1306   1.450   .     A
C1278  C1339   1.529   .     S
C1278  C1280   1.401   .     A
C1278  C1305   1.452   .     A
C1279  F1325   1.363   .     S
C1280  F1326   1.360   .     S
C1280  C422    1.385   1_556 S
C1281  C1286   1.419   .     A
C1281  C1349   1.520   .     S
C1282  C1359   1.521   .     S
C1282  C1285   1.415   .     A
C1282  C1578   1.397   .     S
C1283  F1369   1.361   .     S
C1283  C1575   1.391   .     S
C1283  C1383   1.398   .     S
C1284  F1370   1.360   .     S
C1286  C1382   1.404   .     S
C1287  N1316   1.366   .     A
C1287  C1289   1.416   .     A
C1287  H1313   1.081   .     S
C1288  N1315   1.366   .     A
C1288  C1290   1.416   .     A
C1288  H1314   1.082   .     S
C1289  F1371   1.354   .     S
C1289  N1315   1.369   .     A
C1290  N1316   1.369   .     A
C1290  F1372   1.354   .     S
C1291  O1323   1.296   .     A
C1291  C1293   1.458   .     S
C1291  O1419   1.291   .     S
C1292  O1324   1.296   .     A
C1292  C1294   1.464   .     S
C1293  C1297   1.388   .     A
C1293  C1299   1.392   .     A
C1294  C1298   1.390   .     A
C1294  C1300   1.395   .     A
C1295  C1303   1.417   .     A
C1295  C1297   1.383   .     A
C1295  F1327   1.359   .     S
C1296  F1328   1.358   .     S
C1296  C1298   1.386   .     A
C1296  C1304   1.417   .     A
C1297  H1410   1.083   .     S
C1299  C1301   1.408   .     A
C1299  H1310   1.064   .     S
C1300  C1302   1.410   .     A
C1300  H1309   1.067   .     S
C1301  C1303   1.420   .     A
C1301  C1305   1.446   .     A
C1302  C1306   1.444   .     A
C1302  C1304   1.417   .     A
C1303  C397    1.382   1_556 S
C1305  C424    1.451   1_556 S
Cu1307 O1320   1.974   .     S
Cu1307 O1317   1.963   .     S
Cu1307 O1324   1.945   .     S
Cu1307 O1321   1.958   .     S
Cu1307 N1315   2.013   .     S
Cu1308 N1316   2.013   .     S
Cu1308 O1318   1.963   .     S
Cu1308 O1319   1.974   .     S
Cu1308 O1322   1.958   .     S
Cu1308 O1323   1.945   .     S
Cu1308 Cu1405  2.679   .     S
H1311  C1396   1.083   .     S
O1318  C1374   1.292   .     S
O1322  C1390   1.295   .     S
C1329  C1330   1.547   .     S
C1329  H1337   1.113   .     S
C1329  H1338   1.105   .     S
C1330  C1331   1.515   .     S
C1330  H1336   1.110   .     S
C1330  H1335   1.111   .     S
C1331  H1333   1.109   .     S
C1331  H1334   1.107   .     S
C1331  H1332   1.109   .     S
C1339  H1347   1.106   .     S
C1339  H1348   1.113   .     S
C1339  C1340   1.548   .     S
C1340  H1346   1.110   .     S
C1340  H1345   1.107   .     S
C1340  C1341   1.522   .     S
C1341  H1342   1.108   .     S
C1341  H1343   1.110   .     S
C1341  H1344   1.110   .     S
C1349  H1357   1.106   .     S
C1349  H1358   1.111   .     S
C1349  C1350   1.541   .     S
C1350  C1351   1.520   .     S
C1350  H1356   1.111   .     S
C1351  H1352   1.103   .     S
C1351  H1353   1.111   .     S
C1351  H1354   1.109   .     S
H1355  C1644   1.113   .     S
C1359  H1367   1.108   .     S
C1359  C1360   1.536   .     S
C1359  H1368   1.111   .     S
C1360  C1361   1.523   .     S
C1361  H1362   1.111   .     S
C1361  H1363   1.110   .     S
H1364  C1459   1.110   .     S
H1365  C1458   1.112   .     S
H1366  C1458   1.109   .     S
C1373  C1384   1.459   .     S
C1373  O1417   1.288   .     A
C1373  O1219   1.298   1_655 S
C1374  O1418   1.289   .     A
C1374  C1383   1.450   .     S
C1375  C1427   1.525   .     S
C1375  C1377   1.399   .     A
C1375  C1404   1.450   .     A
C1376  C1437   1.529   .     S
C1376  C1378   1.401   .     A
C1376  C1403   1.452   .     A
C1377  F1423   1.363   .     S
C1378  F1424   1.360   .     S
C1378  C520    1.385   1_556 S
C1379  C1384   1.419   .     A
C1379  C1447   1.520   .     S
C1380  C1457   1.521   .     S
C1380  C1383   1.415   .     A
C1380  C1676   1.397   .     S
C1381  F1467   1.361   .     S
C1381  C1673   1.391   .     S
C1381  C1187   1.398   1_655 S
C1382  F1468   1.360   .     S
C1384  C1186   1.404   1_655 S
C1385  N1414   1.366   .     A
C1385  C1387   1.416   .     A
C1385  H1411   1.081   .     S
C1386  N1413   1.366   .     A
C1386  C1388   1.416   .     A
C1386  H1412   1.082   .     S
C1387  F1469   1.354   .     S
C1387  N1413   1.369   .     A
C1388  N1414   1.369   .     A
C1388  F1470   1.354   .     S
C1389  O1421   1.296   .     A
C1389  C1391   1.458   .     S
C1389  O1223   1.291   1_655 S
C1390  O1422   1.296   .     A
C1390  C1392   1.464   .     S
C1391  C1395   1.388   .     A
C1391  C1397   1.392   .     A
C1392  C1396   1.390   .     A
C1392  C1398   1.395   .     A
C1393  C1401   1.417   .     A
C1393  C1395   1.383   .     A
C1393  F1425   1.359   .     S
C1394  F1426   1.358   .     S
C1394  C1396   1.386   .     A
C1394  C1402   1.417   .     A
C1395  H1214   1.083   1_655 S
C1397  C1399   1.408   .     A
C1397  H1408   1.064   .     S
C1398  C1400   1.410   .     A
C1398  H1407   1.067   .     S
C1399  C1401   1.420   .     A
C1399  C1403   1.446   .     A
C1400  C1404   1.444   .     A
C1400  C1402   1.417   .     A
C1401  C495    1.382   1_556 S
C1403  C522    1.451   1_556 S
Cu1405 O1418   1.974   .     S
Cu1405 O1415   1.963   .     S
Cu1405 O1422   1.945   .     S
Cu1405 O1419   1.958   .     S
Cu1405 N1413   2.013   .     S
Cu1406 N1414   2.013   .     S
Cu1406 O1416   1.963   .     S
Cu1406 O1417   1.974   .     S
Cu1406 O1420   1.958   .     S
Cu1406 O1421   1.945   .     S
Cu1406 Cu1209  2.679   1_655 S
H1409  C1200   1.083   1_655 S
O1416  C1178   1.292   1_655 S
O1420  C1194   1.295   1_655 S
C1427  C1428   1.547   .     S
C1427  H1435   1.113   .     S
C1427  H1436   1.105   .     S
C1428  C1429   1.515   .     S
C1428  H1434   1.110   .     S
C1428  H1433   1.111   .     S
C1429  H1431   1.109   .     S
C1429  H1432   1.107   .     S
C1429  H1430   1.109   .     S
C1437  H1445   1.106   .     S
C1437  H1446   1.113   .     S
C1437  C1438   1.548   .     S
C1438  H1444   1.110   .     S
C1438  H1443   1.107   .     S
C1438  C1439   1.522   .     S
C1439  H1440   1.108   .     S
C1439  H1441   1.110   .     S
C1439  H1442   1.110   .     S
C1447  H1455   1.106   .     S
C1447  H1456   1.111   .     S
C1447  C1448   1.541   .     S
C1448  C1449   1.520   .     S
C1448  H1454   1.111   .     S
C1449  H1450   1.103   .     S
C1449  H1451   1.111   .     S
C1449  H1452   1.109   .     S
H1453  C1742   1.113   .     S
C1457  H1465   1.108   .     S
C1457  C1458   1.536   .     S
C1457  H1466   1.111   .     S
C1458  C1459   1.523   .     S
C1459  H1460   1.111   .     S
C1459  H1461   1.110   .     S
H1462  C1263   1.110   1_655 S
H1463  C1262   1.112   1_655 S
H1464  C1262   1.109   1_655 S
C1471  C1482   1.459   .     S
C1471  O1515   1.288   .     A
C1471  O1611   1.298   .     S
C1472  O1516   1.289   .     A
C1472  C1481   1.450   .     S
C1472  O1710   1.292   1_455 S
C1473  C1525   1.525   .     S
C1473  C1475   1.399   .     A
C1473  C1502   1.450   .     A
C1474  C1535   1.529   .     S
C1474  C1476   1.401   .     A
C1474  C1501   1.452   .     A
C1475  F1521   1.363   .     S
C1476  F1522   1.360   .     S
C1476  C618    1.385   1_556 S
C1477  C1482   1.419   .     A
C1477  C1545   1.520   .     S
C1478  C1555   1.521   .     S
C1478  C1481   1.415   .     A
C1478  C892    1.397   1_565 S
C1479  F1565   1.361   .     S
C1479  C889    1.391   1_565 S
C1479  C1579   1.398   .     S
C1480  F1566   1.360   .     S
C1480  C1678   1.404   1_455 S
C1481  C1675   1.398   1_455 S
C1482  C1578   1.404   .     S
C1483  N1512   1.366   .     A
C1483  C1485   1.416   .     A
C1483  H1509   1.081   .     S
C1484  N1511   1.366   .     A
C1484  C1486   1.416   .     A
C1484  H1510   1.082   .     S
C1485  F1567   1.354   .     S
C1485  N1511   1.369   .     A
C1486  N1512   1.369   .     A
C1486  F1568   1.354   .     S
C1487  O1519   1.296   .     A
C1487  C1489   1.458   .     S
C1487  O1615   1.291   .     S
C1488  O1520   1.296   .     A
C1488  C1490   1.464   .     S
C1488  O1714   1.295   1_455 S
C1489  C1493   1.388   .     A
C1489  C1495   1.392   .     A
C1490  C1494   1.390   .     A
C1490  C1496   1.395   .     A
C1491  C1499   1.417   .     A
C1491  C1493   1.383   .     A
C1491  F1523   1.359   .     S
C1492  F1524   1.358   .     S
C1492  C1494   1.386   .     A
C1492  C1500   1.417   .     A
C1493  H1606   1.083   .     S
C1494  H1703   1.083   1_455 S
C1495  C1497   1.408   .     A
C1495  H1506   1.064   .     S
C1496  C1498   1.410   .     A
C1496  H1505   1.067   .     S
C1497  C1499   1.420   .     A
C1497  C1501   1.446   .     A
C1498  C1502   1.444   .     A
C1498  C1500   1.417   .     A
C1499  C593    1.382   1_556 S
C1501  C620    1.451   1_556 S
Cu1503 O1516   1.974   .     S
Cu1503 O1513   1.963   .     S
Cu1503 O1520   1.945   .     S
Cu1503 O1517   1.958   .     S
Cu1503 N1511   2.013   .     S
Cu1503 Cu1700  2.679   1_455 S
Cu1504 N1512   2.013   .     S
Cu1504 O1514   1.963   .     S
Cu1504 O1515   1.974   .     S
Cu1504 O1518   1.958   .     S
Cu1504 O1519   1.945   .     S
Cu1504 Cu1601  2.679   .     S
H1507  C1592   1.083   .     S
H1508  C1689   1.083   1_455 S
O1513  C1667   1.298   1_455 S
O1514  C1570   1.292   .     S
O1517  C1683   1.291   1_455 S
O1518  C1586   1.295   .     S
C1525  C1526   1.547   .     S
C1525  H1533   1.113   .     S
C1525  H1534   1.105   .     S
C1526  C1527   1.515   .     S
C1526  H1532   1.110   .     S
C1526  H1531   1.111   .     S
C1527  H1529   1.109   .     S
C1527  H1530   1.107   .     S
C1527  H1528   1.109   .     S
C1535  H1543   1.106   .     S
C1535  H1544   1.113   .     S
C1535  C1536   1.548   .     S
C1536  H1542   1.110   .     S
C1536  H1541   1.107   .     S
C1536  C1537   1.522   .     S
C1537  H1538   1.108   .     S
C1537  H1539   1.110   .     S
C1537  H1540   1.110   .     S
C1545  H1553   1.106   .     S
C1545  H1554   1.111   .     S
C1545  C1546   1.541   .     S
C1546  C1547   1.520   .     S
C1546  H1552   1.111   .     S
C1547  H1548   1.103   .     S
C1547  H1549   1.111   .     S
C1547  H1550   1.109   .     S
H1551  C958    1.113   1_565 S
C1555  H1563   1.108   .     S
C1555  C1556   1.536   .     S
C1555  H1564   1.111   .     S
C1556  C1557   1.523   .     S
C1556  H1757   1.112   1_455 S
C1556  H1758   1.109   1_455 S
C1557  H1558   1.111   .     S
C1557  H1559   1.110   .     S
C1557  H1756   1.110   1_455 S
H1560  C1655   1.110   .     S
H1561  C1654   1.112   .     S
H1562  C1654   1.109   .     S
C1569  C1580   1.459   .     S
C1569  O1613   1.288   .     A
C1569  O1709   1.298   .     S
C1570  O1614   1.289   .     A
C1570  C1579   1.450   .     S
C1571  C1623   1.525   .     S
C1571  C1573   1.399   .     A
C1571  C1600   1.450   .     A
C1572  C1633   1.529   .     S
C1572  C1574   1.401   .     A
C1572  C1599   1.452   .     A
C1573  F1619   1.363   .     S
C1574  F1620   1.360   .     S
C1574  C716    1.385   1_556 S
C1575  C1580   1.419   .     A
C1575  C1643   1.520   .     S
C1576  C1653   1.521   .     S
C1576  C1579   1.415   .     A
C1576  C990    1.397   1_565 S
C1577  F1663   1.361   .     S
C1577  C987    1.391   1_565 S
C1577  C1677   1.398   .     S
C1578  F1664   1.360   .     S
C1580  C1676   1.404   .     S
C1581  N1610   1.366   .     A
C1581  C1583   1.416   .     A
C1581  H1607   1.081   .     S
C1582  N1609   1.366   .     A
C1582  C1584   1.416   .     A
C1582  H1608   1.082   .     S
C1583  F1665   1.354   .     S
C1583  N1609   1.369   .     A
C1584  N1610   1.369   .     A
C1584  F1666   1.354   .     S
C1585  O1617   1.296   .     A
C1585  C1587   1.458   .     S
C1585  O1713   1.291   .     S
C1586  O1618   1.296   .     A
C1586  C1588   1.464   .     S
C1587  C1591   1.388   .     A
C1587  C1593   1.392   .     A
C1588  C1592   1.390   .     A
C1588  C1594   1.395   .     A
C1589  C1597   1.417   .     A
C1589  C1591   1.383   .     A
C1589  F1621   1.359   .     S
C1590  F1622   1.358   .     S
C1590  C1592   1.386   .     A
C1590  C1598   1.417   .     A
C1591  H1704   1.083   .     S
C1593  C1595   1.408   .     A
C1593  H1604   1.064   .     S
C1594  C1596   1.410   .     A
C1594  H1603   1.067   .     S
C1595  C1597   1.420   .     A
C1595  C1599   1.446   .     A
C1596  C1600   1.444   .     A
C1596  C1598   1.417   .     A
C1597  C691    1.382   1_556 S
C1599  C718    1.451   1_556 S
Cu1601 O1614   1.974   .     S
Cu1601 O1611   1.963   .     S
Cu1601 O1618   1.945   .     S
Cu1601 O1615   1.958   .     S
Cu1601 N1609   2.013   .     S
Cu1602 N1610   2.013   .     S
Cu1602 O1612   1.963   .     S
Cu1602 O1613   1.974   .     S
Cu1602 O1616   1.958   .     S
Cu1602 O1617   1.945   .     S
Cu1602 Cu1699  2.679   .     S
H1605  C1690   1.083   .     S
O1612  C1668   1.292   .     S
O1616  C1684   1.295   .     S
C1623  C1624   1.547   .     S
C1623  H1631   1.113   .     S
C1623  H1632   1.105   .     S
C1624  C1625   1.515   .     S
C1624  H1630   1.110   .     S
C1624  H1629   1.111   .     S
C1625  H1627   1.109   .     S
C1625  H1628   1.107   .     S
C1625  H1626   1.109   .     S
C1633  H1641   1.106   .     S
C1633  H1642   1.113   .     S
C1633  C1634   1.548   .     S
C1634  H1640   1.110   .     S
C1634  H1639   1.107   .     S
C1634  C1635   1.522   .     S
C1635  H1636   1.108   .     S
C1635  H1637   1.110   .     S
C1635  H1638   1.110   .     S
C1643  H1651   1.106   .     S
C1643  H1652   1.111   .     S
C1643  C1644   1.541   .     S
C1644  C1645   1.520   .     S
C1644  H1650   1.111   .     S
C1645  H1646   1.103   .     S
C1645  H1647   1.111   .     S
C1645  H1648   1.109   .     S
H1649  C1056   1.113   1_565 S
C1653  H1661   1.108   .     S
C1653  C1654   1.536   .     S
C1653  H1662   1.111   .     S
C1654  C1655   1.523   .     S
C1655  H1656   1.111   .     S
C1655  H1657   1.110   .     S
H1658  C1753   1.110   .     S
H1659  C1752   1.112   .     S
H1660  C1752   1.109   .     S
C1667  C1678   1.459   .     S
C1667  O1711   1.288   .     A
C1667  O1513   1.298   1_655 S
C1668  O1712   1.289   .     A
C1668  C1677   1.450   .     S
C1669  C1721   1.525   .     S
C1669  C1671   1.399   .     A
C1669  C1698   1.450   .     A
C1670  C1731   1.529   .     S
C1670  C1672   1.401   .     A
C1670  C1697   1.452   .     A
C1671  F1717   1.363   .     S
C1672  F1718   1.360   .     S
C1672  C814    1.385   1_556 S
C1673  C1678   1.419   .     A
C1673  C1741   1.520   .     S
C1674  C1751   1.521   .     S
C1674  C1677   1.415   .     A
C1674  C1088   1.397   1_565 S
C1675  F1761   1.361   .     S
C1675  C1085   1.391   1_565 S
C1675  C1481   1.398   1_655 S
C1676  F1762   1.360   .     S
C1678  C1480   1.404   1_655 S
C1679  N1708   1.366   .     A
C1679  C1681   1.416   .     A
C1679  H1705   1.081   .     S
C1680  N1707   1.366   .     A
C1680  C1682   1.416   .     A
C1680  H1706   1.082   .     S
C1681  F1763   1.354   .     S
C1681  N1707   1.369   .     A
C1682  N1708   1.369   .     A
C1682  F1764   1.354   .     S
C1683  O1715   1.296   .     A
C1683  C1685   1.458   .     S
C1683  O1517   1.291   1_655 S
C1684  O1716   1.296   .     A
C1684  C1686   1.464   .     S
C1685  C1689   1.388   .     A
C1685  C1691   1.392   .     A
C1686  C1690   1.390   .     A
C1686  C1692   1.395   .     A
C1687  C1695   1.417   .     A
C1687  C1689   1.383   .     A
C1687  F1719   1.359   .     S
C1688  F1720   1.358   .     S
C1688  C1690   1.386   .     A
C1688  C1696   1.417   .     A
C1689  H1508   1.083   1_655 S
C1691  C1693   1.408   .     A
C1691  H1702   1.064   .     S
C1692  C1694   1.410   .     A
C1692  H1701   1.067   .     S
C1693  C1695   1.420   .     A
C1693  C1697   1.446   .     A
C1694  C1698   1.444   .     A
C1694  C1696   1.417   .     A
C1695  C789    1.382   1_556 S
C1697  C816    1.451   1_556 S
Cu1699 O1712   1.974   .     S
Cu1699 O1709   1.963   .     S
Cu1699 O1716   1.945   .     S
Cu1699 O1713   1.958   .     S
Cu1699 N1707   2.013   .     S
Cu1700 N1708   2.013   .     S
Cu1700 O1710   1.963   .     S
Cu1700 O1711   1.974   .     S
Cu1700 O1714   1.958   .     S
Cu1700 O1715   1.945   .     S
Cu1700 Cu1503  2.679   1_655 S
H1703  C1494   1.083   1_655 S
O1710  C1472   1.292   1_655 S
O1714  C1488   1.295   1_655 S
C1721  C1722   1.547   .     S
C1721  H1729   1.113   .     S
C1721  H1730   1.105   .     S
C1722  C1723   1.515   .     S
C1722  H1728   1.110   .     S
C1722  H1727   1.111   .     S
C1723  H1725   1.109   .     S
C1723  H1726   1.107   .     S
C1723  H1724   1.109   .     S
C1731  H1739   1.106   .     S
C1731  H1740   1.113   .     S
C1731  C1732   1.548   .     S
C1732  H1738   1.110   .     S
C1732  H1737   1.107   .     S
C1732  C1733   1.522   .     S
C1733  H1734   1.108   .     S
C1733  H1735   1.110   .     S
C1733  H1736   1.110   .     S
C1741  H1749   1.106   .     S
C1741  H1750   1.111   .     S
C1741  C1742   1.541   .     S
C1742  C1743   1.520   .     S
C1742  H1748   1.111   .     S
C1743  H1744   1.103   .     S
C1743  H1745   1.111   .     S
C1743  H1746   1.109   .     S
H1747  C1154   1.113   1_565 S
C1751  H1759   1.108   .     S
C1751  C1752   1.536   .     S
C1751  H1760   1.111   .     S
C1752  C1753   1.523   .     S
C1753  H1754   1.111   .     S
C1753  H1755   1.110   .     S
H1756  C1557   1.110   1_655 S
H1757  C1556   1.112   1_655 S
H1758  C1556   1.109   1_655 S
