data_str_m3_o1_o18_pcu_sym.184
_audit_creation_date              2020-01-03
_audit_creation_method            'Materials Studio'
_symmetry_space_group_name_H-M    'P1'
_symmetry_Int_Tables_number       1
_symmetry_cell_setting            triclinic
loop_
_symmetry_equiv_pos_as_xyz
  x,y,z
_cell_length_a                    29.6952
_cell_length_b                    32.1203
_cell_length_c                    30.6928
_cell_angle_alpha                 90.0946
_cell_angle_beta                  70.3949
_cell_angle_gamma                 90.0143
loop_
_atom_site_label
_atom_site_type_symbol
_atom_site_fract_x
_atom_site_fract_y
_atom_site_fract_z
_atom_site_U_iso_or_equiv
_atom_site_adp_type
_atom_site_occupancy
C1     C     0.16668   0.24664   0.25002   0.00000  Uiso   1.00
C2     C     0.16667   0.08669   0.24994   0.00000  Uiso   1.00
C3     C     0.10520   0.20565   0.05184   0.00000  Uiso   1.00
C4     C     0.21710   0.22342   0.45433   0.00000  Uiso   1.00
C5     C     0.07285   0.19820   0.02936   0.00000  Uiso   1.00
C6     C     0.25000   0.22631   0.47770   0.00000  Uiso   1.00
C7     C     0.21020   0.31200   0.23855   0.00000  Uiso   1.00
C8     C     0.12317   0.02133   0.26130   0.00000  Uiso   1.00
C9     C     0.21020   0.02132   0.23848   0.00000  Uiso   1.00
C10    C     0.12317   0.31200   0.26136   0.00000  Uiso   1.00
C11    C     0.16668   0.04251   0.24989   0.00000  Uiso   1.00
C12    C     0.16669   0.29082   0.24999   0.00000  Uiso   1.00
C13    C     0.31916   0.14027   0.22191   0.00000  Uiso   1.00
C14    C     0.01415   0.19302   0.27816   0.00000  Uiso   1.00
C15    C     0.03367   0.14031   0.22187   0.00000  Uiso   1.00
C16    C     0.29965   0.19300   0.27817   0.00000  Uiso   1.00
C17    C     0.13730   0.16725   0.33775   0.00000  Uiso   1.00
C18    C     0.19604   0.16817   0.16213   0.00000  Uiso   1.00
C19    C     0.12008   0.17367   0.38767   0.00000  Uiso   1.00
C20    C     0.21227   0.17930   0.11290   0.00000  Uiso   1.00
C21    C     0.05708   0.17355   0.46178   0.00000  Uiso   1.00
C22    C     0.27210   0.20744   0.04446   0.00000  Uiso   1.00
C23    C     0.07259   0.16448   0.41448   0.00000  Uiso   1.00
C24    C     0.26038   0.18844   0.08797   0.00000  Uiso   1.00
C25    C     0.15144   0.19134   0.40791   0.00000  Uiso   1.00
C26    C     0.17751   0.18616   0.09248   0.00000  Uiso   1.00
C27    C     0.13670   0.19938   0.45537   0.00000  Uiso   1.00
C28    C     0.18909   0.20343   0.04831   0.00000  Uiso   1.00
C29    C     0.08849   0.19106   0.48204   0.00000  Uiso   1.00
C30    C     0.23722   0.21315   0.02363   0.00000  Uiso   1.00
C31    C     0.16943   0.21103   0.47800   0.00000  Uiso   1.00
C32    C     0.15436   0.20748   0.02668   0.00000  Uiso   1.00
H33    H     0.03595   0.19565   0.04949   0.00000  Uiso   1.00
H34    H     0.28640   0.23559   0.45883   0.00000  Uiso   1.00
H35    H     0.14142   0.17628   0.11097   0.00000  Uiso   1.00
H36    H     0.18788   0.19702   0.38631   0.00000  Uiso   1.00
H37    H     0.02159   0.16422   0.48317   0.00000  Uiso   1.00
H38    H     0.30852   0.21661   0.02622   0.00000  Uiso   1.00
H39    H     0.09118   0.20927   0.08900   0.00000  Uiso   1.00
H40    H     0.22965   0.23108   0.41800   0.00000  Uiso   1.00
H41    H     0.24408   0.29572   0.22933   0.00000  Uiso   1.00
H42    H     0.08929   0.03760   0.27052   0.00000  Uiso   1.00
H43    H     0.24408   0.03760   0.22922   0.00000  Uiso   1.00
H44    H     0.08929   0.29574   0.27063   0.00000  Uiso   1.00
H45    H     0.30893   0.11902   0.19950   0.00000  Uiso   1.00
H46    H     0.02432   0.21413   0.30074   0.00000  Uiso   1.00
H47    H     0.05947   0.11918   0.19931   0.00000  Uiso   1.00
H48    H     0.27382   0.21408   0.30079   0.00000  Uiso   1.00
N49    N     0.04759   0.16668   0.25001   0.00000  Uiso   1.00
N50    N     0.28574   0.16666   0.24999   0.00000  Uiso   1.00
O51    O     0.12846   0.22775   0.25000   0.00000  Uiso   1.00
O52    O     0.20488   0.10558   0.24999   0.00000  Uiso   1.00
O53    O     0.20490   0.22774   0.25000   0.00000  Uiso   1.00
O54    O     0.12843   0.10559   0.25000   0.00000  Uiso   1.00
O55    O     0.10661   0.16667   0.31612   0.00000  Uiso   1.00
O56    O     0.22672   0.16666   0.18387   0.00000  Uiso   1.00
O57    O     0.18305   0.16666   0.31612   0.00000  Uiso   1.00
O58    O     0.15028   0.16667   0.18388   0.00000  Uiso   1.00
Zn59   Zn    0.11562   0.16667   0.25000   0.00000  Uiso   1.00
Zn60   Zn    0.21771   0.16666   0.25000   0.00000  Uiso   1.00
O61    O     0.29584   0.18034   0.10653   0.00000  Uiso   1.00
C62    C     0.30892   0.13797   0.09853   0.00000  Uiso   1.00
H63    H     0.27919   0.11697   0.11791   0.00000  Uiso   1.00
H64    H     0.00606   0.13194   0.11088   0.00000  Uiso   1.00
H65    H     0.32094   0.13016   0.06101   0.00000  Uiso   1.00
O66    O     0.04426   0.14174   0.39512   0.00000  Uiso   1.00
C67    C     0.00113   0.16298   0.40074   0.00000  Uiso   1.00
H68    H     0.31814   0.14961   0.37620   0.00000  Uiso   1.00
H69    H     0.00696   0.19676   0.39259   0.00000  Uiso   1.00
H70    H     0.30869   0.15814   0.43611   0.00000  Uiso   1.00
C71    C     0.50001   0.24664   0.25002   0.00000  Uiso   1.00
C72    C     0.50000   0.08669   0.24994   0.00000  Uiso   1.00
C73    C     0.43853   0.20565   0.05184   0.00000  Uiso   1.00
C74    C     0.55043   0.22342   0.45433   0.00000  Uiso   1.00
C75    C     0.40618   0.19820   0.02936   0.00000  Uiso   1.00
C76    C     0.58334   0.22631   0.47770   0.00000  Uiso   1.00
C77    C     0.54353   0.31200   0.23855   0.00000  Uiso   1.00
C78    C     0.45650   0.02133   0.26130   0.00000  Uiso   1.00
C79    C     0.54353   0.02132   0.23848   0.00000  Uiso   1.00
C80    C     0.45651   0.31200   0.26136   0.00000  Uiso   1.00
C81    C     0.50001   0.04251   0.24989   0.00000  Uiso   1.00
C82    C     0.50002   0.29082   0.24999   0.00000  Uiso   1.00
C83    C     0.65249   0.14027   0.22191   0.00000  Uiso   1.00
C84    C     0.34749   0.19302   0.27816   0.00000  Uiso   1.00
C85    C     0.36700   0.14031   0.22187   0.00000  Uiso   1.00
C86    C     0.63299   0.19300   0.27817   0.00000  Uiso   1.00
C87    C     0.47063   0.16725   0.33775   0.00000  Uiso   1.00
C88    C     0.52937   0.16817   0.16213   0.00000  Uiso   1.00
C89    C     0.45341   0.17367   0.38767   0.00000  Uiso   1.00
C90    C     0.54560   0.17930   0.11290   0.00000  Uiso   1.00
C91    C     0.39041   0.17355   0.46178   0.00000  Uiso   1.00
C92    C     0.60544   0.20744   0.04446   0.00000  Uiso   1.00
C93    C     0.40592   0.16448   0.41448   0.00000  Uiso   1.00
C94    C     0.59371   0.18844   0.08797   0.00000  Uiso   1.00
C95    C     0.48477   0.19134   0.40791   0.00000  Uiso   1.00
C96    C     0.51084   0.18616   0.09248   0.00000  Uiso   1.00
C97    C     0.47003   0.19938   0.45537   0.00000  Uiso   1.00
C98    C     0.52243   0.20343   0.04831   0.00000  Uiso   1.00
C99    C     0.42183   0.19106   0.48204   0.00000  Uiso   1.00
C100   C     0.57055   0.21315   0.02363   0.00000  Uiso   1.00
C101   C     0.50276   0.21103   0.47800   0.00000  Uiso   1.00
C102   C     0.48770   0.20748   0.02668   0.00000  Uiso   1.00
H103   H     0.36929   0.19565   0.04949   0.00000  Uiso   1.00
H104   H     0.61974   0.23559   0.45883   0.00000  Uiso   1.00
H105   H     0.47476   0.17628   0.11097   0.00000  Uiso   1.00
H106   H     0.52121   0.19702   0.38631   0.00000  Uiso   1.00
H107   H     0.35492   0.16422   0.48317   0.00000  Uiso   1.00
H108   H     0.64186   0.21661   0.02622   0.00000  Uiso   1.00
H109   H     0.42451   0.20927   0.08900   0.00000  Uiso   1.00
H110   H     0.56298   0.23108   0.41800   0.00000  Uiso   1.00
H111   H     0.57741   0.29572   0.22933   0.00000  Uiso   1.00
H112   H     0.42262   0.03760   0.27052   0.00000  Uiso   1.00
H113   H     0.57741   0.03760   0.22922   0.00000  Uiso   1.00
H114   H     0.42262   0.29574   0.27063   0.00000  Uiso   1.00
H115   H     0.64226   0.11902   0.19950   0.00000  Uiso   1.00
H116   H     0.35765   0.21413   0.30074   0.00000  Uiso   1.00
H117   H     0.39281   0.11918   0.19931   0.00000  Uiso   1.00
H118   H     0.60715   0.21408   0.30079   0.00000  Uiso   1.00
N119   N     0.38093   0.16668   0.25001   0.00000  Uiso   1.00
N120   N     0.61907   0.16666   0.24999   0.00000  Uiso   1.00
O121   O     0.46179   0.22775   0.25000   0.00000  Uiso   1.00
O122   O     0.53821   0.10558   0.24999   0.00000  Uiso   1.00
O123   O     0.53823   0.22774   0.25000   0.00000  Uiso   1.00
O124   O     0.46177   0.10559   0.25000   0.00000  Uiso   1.00
O125   O     0.43994   0.16667   0.31612   0.00000  Uiso   1.00
O126   O     0.56006   0.16666   0.18387   0.00000  Uiso   1.00
O127   O     0.51639   0.16666   0.31612   0.00000  Uiso   1.00
O128   O     0.48361   0.16667   0.18388   0.00000  Uiso   1.00
Zn129  Zn    0.44896   0.16667   0.25000   0.00000  Uiso   1.00
Zn130  Zn    0.55104   0.16666   0.25000   0.00000  Uiso   1.00
O131   O     0.62918   0.18034   0.10653   0.00000  Uiso   1.00
C132   C     0.64226   0.13797   0.09853   0.00000  Uiso   1.00
H133   H     0.61252   0.11697   0.11791   0.00000  Uiso   1.00
H134   H     0.33940   0.13194   0.11088   0.00000  Uiso   1.00
H135   H     0.65428   0.13016   0.06101   0.00000  Uiso   1.00
O136   O     0.37759   0.14174   0.39512   0.00000  Uiso   1.00
C137   C     0.33446   0.16298   0.40074   0.00000  Uiso   1.00
H138   H     0.65147   0.14961   0.37620   0.00000  Uiso   1.00
H139   H     0.34029   0.19676   0.39259   0.00000  Uiso   1.00
H140   H     0.64203   0.15814   0.43611   0.00000  Uiso   1.00
C141   C     0.83335   0.24664   0.25002   0.00000  Uiso   1.00
C142   C     0.83334   0.08669   0.24994   0.00000  Uiso   1.00
C143   C     0.77187   0.20565   0.05184   0.00000  Uiso   1.00
C144   C     0.88376   0.22342   0.45433   0.00000  Uiso   1.00
C145   C     0.73952   0.19820   0.02936   0.00000  Uiso   1.00
C146   C     0.91667   0.22631   0.47770   0.00000  Uiso   1.00
C147   C     0.87687   0.31200   0.23855   0.00000  Uiso   1.00
C148   C     0.78984   0.02133   0.26130   0.00000  Uiso   1.00
C149   C     0.87686   0.02132   0.23848   0.00000  Uiso   1.00
C150   C     0.78984   0.31200   0.26136   0.00000  Uiso   1.00
C151   C     0.83335   0.04251   0.24989   0.00000  Uiso   1.00
C152   C     0.83335   0.29082   0.24999   0.00000  Uiso   1.00
C153   C     0.98582   0.14027   0.22191   0.00000  Uiso   1.00
C154   C     0.68082   0.19302   0.27816   0.00000  Uiso   1.00
C155   C     0.70033   0.14031   0.22187   0.00000  Uiso   1.00
C156   C     0.96632   0.19300   0.27817   0.00000  Uiso   1.00
C157   C     0.80397   0.16725   0.33775   0.00000  Uiso   1.00
C158   C     0.86271   0.16817   0.16213   0.00000  Uiso   1.00
C159   C     0.78674   0.17367   0.38767   0.00000  Uiso   1.00
C160   C     0.87893   0.17930   0.11290   0.00000  Uiso   1.00
C161   C     0.72375   0.17355   0.46178   0.00000  Uiso   1.00
C162   C     0.93877   0.20744   0.04446   0.00000  Uiso   1.00
C163   C     0.73925   0.16448   0.41448   0.00000  Uiso   1.00
C164   C     0.92704   0.18844   0.08797   0.00000  Uiso   1.00
C165   C     0.81810   0.19134   0.40791   0.00000  Uiso   1.00
C166   C     0.84418   0.18616   0.09248   0.00000  Uiso   1.00
C167   C     0.80336   0.19938   0.45537   0.00000  Uiso   1.00
C168   C     0.85576   0.20343   0.04831   0.00000  Uiso   1.00
C169   C     0.75516   0.19106   0.48204   0.00000  Uiso   1.00
C170   C     0.90388   0.21315   0.02363   0.00000  Uiso   1.00
C171   C     0.83610   0.21103   0.47800   0.00000  Uiso   1.00
C172   C     0.82103   0.20748   0.02668   0.00000  Uiso   1.00
H173   H     0.70262   0.19565   0.04949   0.00000  Uiso   1.00
H174   H     0.95307   0.23559   0.45883   0.00000  Uiso   1.00
H175   H     0.80809   0.17628   0.11097   0.00000  Uiso   1.00
H176   H     0.85455   0.19702   0.38631   0.00000  Uiso   1.00
H177   H     0.68826   0.16422   0.48317   0.00000  Uiso   1.00
H178   H     0.97519   0.21661   0.02622   0.00000  Uiso   1.00
H179   H     0.75784   0.20927   0.08900   0.00000  Uiso   1.00
H180   H     0.89631   0.23108   0.41800   0.00000  Uiso   1.00
H181   H     0.91075   0.29572   0.22933   0.00000  Uiso   1.00
H182   H     0.75595   0.03760   0.27052   0.00000  Uiso   1.00
H183   H     0.91075   0.03760   0.22922   0.00000  Uiso   1.00
H184   H     0.75596   0.29574   0.27063   0.00000  Uiso   1.00
H185   H     0.97559   0.11902   0.19950   0.00000  Uiso   1.00
H186   H     0.69098   0.21413   0.30074   0.00000  Uiso   1.00
H187   H     0.72614   0.11918   0.19931   0.00000  Uiso   1.00
H188   H     0.94049   0.21408   0.30079   0.00000  Uiso   1.00
N189   N     0.71426   0.16668   0.25001   0.00000  Uiso   1.00
N190   N     0.95241   0.16666   0.24999   0.00000  Uiso   1.00
O191   O     0.79512   0.22775   0.25000   0.00000  Uiso   1.00
O192   O     0.87154   0.10558   0.24999   0.00000  Uiso   1.00
O193   O     0.87157   0.22774   0.25000   0.00000  Uiso   1.00
O194   O     0.79510   0.10559   0.25000   0.00000  Uiso   1.00
O195   O     0.77328   0.16667   0.31612   0.00000  Uiso   1.00
O196   O     0.89339   0.16666   0.18387   0.00000  Uiso   1.00
O197   O     0.84972   0.16666   0.31612   0.00000  Uiso   1.00
O198   O     0.81695   0.16667   0.18388   0.00000  Uiso   1.00
Zn199  Zn    0.78229   0.16667   0.25000   0.00000  Uiso   1.00
Zn200  Zn    0.88438   0.16666   0.25000   0.00000  Uiso   1.00
O201   O     0.96251   0.18034   0.10653   0.00000  Uiso   1.00
C202   C     0.97559   0.13797   0.09853   0.00000  Uiso   1.00
H203   H     0.94586   0.11697   0.11791   0.00000  Uiso   1.00
H204   H     0.67273   0.13194   0.11088   0.00000  Uiso   1.00
H205   H     0.98761   0.13016   0.06101   0.00000  Uiso   1.00
O206   O     0.71092   0.14174   0.39512   0.00000  Uiso   1.00
C207   C     0.66779   0.16298   0.40074   0.00000  Uiso   1.00
H208   H     0.98481   0.14961   0.37620   0.00000  Uiso   1.00
H209   H     0.67363   0.19676   0.39259   0.00000  Uiso   1.00
H210   H     0.97536   0.15814   0.43611   0.00000  Uiso   1.00
C211   C     0.16668   0.57998   0.25002   0.00000  Uiso   1.00
C212   C     0.16667   0.42002   0.24994   0.00000  Uiso   1.00
C213   C     0.10520   0.53898   0.05184   0.00000  Uiso   1.00
C214   C     0.21710   0.55675   0.45433   0.00000  Uiso   1.00
C215   C     0.07285   0.53153   0.02936   0.00000  Uiso   1.00
C216   C     0.25000   0.55964   0.47770   0.00000  Uiso   1.00
C217   C     0.21020   0.64533   0.23855   0.00000  Uiso   1.00
C218   C     0.12317   0.35466   0.26130   0.00000  Uiso   1.00
C219   C     0.21020   0.35466   0.23848   0.00000  Uiso   1.00
C220   C     0.12317   0.64534   0.26136   0.00000  Uiso   1.00
C221   C     0.16668   0.37584   0.24989   0.00000  Uiso   1.00
C222   C     0.16669   0.62415   0.24999   0.00000  Uiso   1.00
C223   C     0.31916   0.47360   0.22191   0.00000  Uiso   1.00
C224   C     0.01415   0.52635   0.27816   0.00000  Uiso   1.00
C225   C     0.03367   0.47365   0.22187   0.00000  Uiso   1.00
C226   C     0.29965   0.52633   0.27817   0.00000  Uiso   1.00
C227   C     0.13730   0.50058   0.33775   0.00000  Uiso   1.00
C228   C     0.19604   0.50151   0.16213   0.00000  Uiso   1.00
C229   C     0.12008   0.50701   0.38767   0.00000  Uiso   1.00
C230   C     0.21227   0.51263   0.11290   0.00000  Uiso   1.00
C231   C     0.05708   0.50688   0.46178   0.00000  Uiso   1.00
C232   C     0.27210   0.54078   0.04446   0.00000  Uiso   1.00
C233   C     0.07259   0.49781   0.41448   0.00000  Uiso   1.00
C234   C     0.26038   0.52177   0.08797   0.00000  Uiso   1.00
C235   C     0.15144   0.52467   0.40791   0.00000  Uiso   1.00
C236   C     0.17751   0.51950   0.09248   0.00000  Uiso   1.00
C237   C     0.13670   0.53271   0.45537   0.00000  Uiso   1.00
C238   C     0.18909   0.53676   0.04831   0.00000  Uiso   1.00
C239   C     0.08849   0.52440   0.48204   0.00000  Uiso   1.00
C240   C     0.23722   0.54649   0.02363   0.00000  Uiso   1.00
C241   C     0.16943   0.54437   0.47800   0.00000  Uiso   1.00
C242   C     0.15436   0.54081   0.02668   0.00000  Uiso   1.00
H243   H     0.03595   0.52898   0.04949   0.00000  Uiso   1.00
H244   H     0.28640   0.56893   0.45883   0.00000  Uiso   1.00
H245   H     0.14142   0.50961   0.11097   0.00000  Uiso   1.00
H246   H     0.18788   0.53035   0.38631   0.00000  Uiso   1.00
H247   H     0.02159   0.49756   0.48317   0.00000  Uiso   1.00
H248   H     0.30852   0.54994   0.02622   0.00000  Uiso   1.00
H249   H     0.09118   0.54260   0.08900   0.00000  Uiso   1.00
H250   H     0.22965   0.56441   0.41800   0.00000  Uiso   1.00
H251   H     0.24408   0.62905   0.22933   0.00000  Uiso   1.00
H252   H     0.08929   0.37094   0.27052   0.00000  Uiso   1.00
H253   H     0.24408   0.37093   0.22922   0.00000  Uiso   1.00
H254   H     0.08929   0.62907   0.27063   0.00000  Uiso   1.00
H255   H     0.30893   0.45236   0.19950   0.00000  Uiso   1.00
H256   H     0.02432   0.54747   0.30074   0.00000  Uiso   1.00
H257   H     0.05947   0.45251   0.19931   0.00000  Uiso   1.00
H258   H     0.27382   0.54742   0.30079   0.00000  Uiso   1.00
N259   N     0.04759   0.50001   0.25001   0.00000  Uiso   1.00
N260   N     0.28574   0.49999   0.24999   0.00000  Uiso   1.00
O261   O     0.12846   0.56108   0.25000   0.00000  Uiso   1.00
O262   O     0.20488   0.43892   0.24999   0.00000  Uiso   1.00
O263   O     0.20490   0.56107   0.25000   0.00000  Uiso   1.00
O264   O     0.12843   0.43893   0.25000   0.00000  Uiso   1.00
O265   O     0.10661   0.50001   0.31612   0.00000  Uiso   1.00
O266   O     0.22672   0.49999   0.18387   0.00000  Uiso   1.00
O267   O     0.18305   0.50000   0.31612   0.00000  Uiso   1.00
O268   O     0.15028   0.50000   0.18388   0.00000  Uiso   1.00
Zn269  Zn    0.11562   0.50001   0.25000   0.00000  Uiso   1.00
Zn270  Zn    0.21771   0.49999   0.25000   0.00000  Uiso   1.00
O271   O     0.29584   0.51367   0.10653   0.00000  Uiso   1.00
C272   C     0.30892   0.47130   0.09853   0.00000  Uiso   1.00
H273   H     0.27919   0.45031   0.11791   0.00000  Uiso   1.00
H274   H     0.00606   0.46527   0.11088   0.00000  Uiso   1.00
H275   H     0.32094   0.46350   0.06101   0.00000  Uiso   1.00
O276   O     0.04426   0.47508   0.39512   0.00000  Uiso   1.00
C277   C     0.00113   0.49631   0.40074   0.00000  Uiso   1.00
H278   H     0.31814   0.48294   0.37620   0.00000  Uiso   1.00
H279   H     0.00696   0.53009   0.39259   0.00000  Uiso   1.00
H280   H     0.30869   0.49147   0.43611   0.00000  Uiso   1.00
C281   C     0.50001   0.57998   0.25002   0.00000  Uiso   1.00
C282   C     0.50000   0.42002   0.24994   0.00000  Uiso   1.00
C283   C     0.43853   0.53898   0.05184   0.00000  Uiso   1.00
C284   C     0.55043   0.55675   0.45433   0.00000  Uiso   1.00
C285   C     0.40618   0.53153   0.02936   0.00000  Uiso   1.00
C286   C     0.58334   0.55964   0.47770   0.00000  Uiso   1.00
C287   C     0.54353   0.64533   0.23855   0.00000  Uiso   1.00
C288   C     0.45650   0.35466   0.26130   0.00000  Uiso   1.00
C289   C     0.54353   0.35466   0.23848   0.00000  Uiso   1.00
C290   C     0.45651   0.64534   0.26136   0.00000  Uiso   1.00
C291   C     0.50001   0.37584   0.24989   0.00000  Uiso   1.00
C292   C     0.50002   0.62415   0.24999   0.00000  Uiso   1.00
C293   C     0.65249   0.47360   0.22191   0.00000  Uiso   1.00
C294   C     0.34749   0.52635   0.27816   0.00000  Uiso   1.00
C295   C     0.36700   0.47365   0.22187   0.00000  Uiso   1.00
C296   C     0.63299   0.52633   0.27817   0.00000  Uiso   1.00
C297   C     0.47063   0.50058   0.33775   0.00000  Uiso   1.00
C298   C     0.52937   0.50151   0.16213   0.00000  Uiso   1.00
C299   C     0.45341   0.50701   0.38767   0.00000  Uiso   1.00
C300   C     0.54560   0.51263   0.11290   0.00000  Uiso   1.00
C301   C     0.39041   0.50688   0.46178   0.00000  Uiso   1.00
C302   C     0.60544   0.54078   0.04446   0.00000  Uiso   1.00
C303   C     0.40592   0.49781   0.41448   0.00000  Uiso   1.00
C304   C     0.59371   0.52177   0.08797   0.00000  Uiso   1.00
C305   C     0.48477   0.52467   0.40791   0.00000  Uiso   1.00
C306   C     0.51084   0.51950   0.09248   0.00000  Uiso   1.00
C307   C     0.47003   0.53271   0.45537   0.00000  Uiso   1.00
C308   C     0.52243   0.53676   0.04831   0.00000  Uiso   1.00
C309   C     0.42183   0.52440   0.48204   0.00000  Uiso   1.00
C310   C     0.57055   0.54649   0.02363   0.00000  Uiso   1.00
C311   C     0.50276   0.54437   0.47800   0.00000  Uiso   1.00
C312   C     0.48770   0.54081   0.02668   0.00000  Uiso   1.00
H313   H     0.36929   0.52898   0.04949   0.00000  Uiso   1.00
H314   H     0.61974   0.56893   0.45883   0.00000  Uiso   1.00
H315   H     0.47476   0.50961   0.11097   0.00000  Uiso   1.00
H316   H     0.52121   0.53035   0.38631   0.00000  Uiso   1.00
H317   H     0.35492   0.49756   0.48317   0.00000  Uiso   1.00
H318   H     0.64186   0.54994   0.02622   0.00000  Uiso   1.00
H319   H     0.42451   0.54260   0.08900   0.00000  Uiso   1.00
H320   H     0.56298   0.56441   0.41800   0.00000  Uiso   1.00
H321   H     0.57741   0.62905   0.22933   0.00000  Uiso   1.00
H322   H     0.42262   0.37094   0.27052   0.00000  Uiso   1.00
H323   H     0.57741   0.37093   0.22922   0.00000  Uiso   1.00
H324   H     0.42262   0.62907   0.27063   0.00000  Uiso   1.00
H325   H     0.64226   0.45236   0.19950   0.00000  Uiso   1.00
H326   H     0.35765   0.54747   0.30074   0.00000  Uiso   1.00
H327   H     0.39281   0.45251   0.19931   0.00000  Uiso   1.00
H328   H     0.60715   0.54742   0.30079   0.00000  Uiso   1.00
N329   N     0.38093   0.50001   0.25001   0.00000  Uiso   1.00
N330   N     0.61907   0.49999   0.24999   0.00000  Uiso   1.00
O331   O     0.46179   0.56108   0.25000   0.00000  Uiso   1.00
O332   O     0.53821   0.43892   0.24999   0.00000  Uiso   1.00
O333   O     0.53823   0.56107   0.25000   0.00000  Uiso   1.00
O334   O     0.46177   0.43893   0.25000   0.00000  Uiso   1.00
O335   O     0.43994   0.50001   0.31612   0.00000  Uiso   1.00
O336   O     0.56006   0.49999   0.18387   0.00000  Uiso   1.00
O337   O     0.51639   0.50000   0.31612   0.00000  Uiso   1.00
O338   O     0.48361   0.50000   0.18388   0.00000  Uiso   1.00
Zn339  Zn    0.44896   0.50001   0.25000   0.00000  Uiso   1.00
Zn340  Zn    0.55104   0.49999   0.25000   0.00000  Uiso   1.00
O341   O     0.62918   0.51367   0.10653   0.00000  Uiso   1.00
C342   C     0.64226   0.47130   0.09853   0.00000  Uiso   1.00
H343   H     0.61252   0.45031   0.11791   0.00000  Uiso   1.00
H344   H     0.33940   0.46527   0.11088   0.00000  Uiso   1.00
H345   H     0.65428   0.46350   0.06101   0.00000  Uiso   1.00
O346   O     0.37759   0.47508   0.39512   0.00000  Uiso   1.00
C347   C     0.33446   0.49631   0.40074   0.00000  Uiso   1.00
H348   H     0.65147   0.48294   0.37620   0.00000  Uiso   1.00
H349   H     0.34029   0.53009   0.39259   0.00000  Uiso   1.00
H350   H     0.64203   0.49147   0.43611   0.00000  Uiso   1.00
C351   C     0.83335   0.57998   0.25002   0.00000  Uiso   1.00
C352   C     0.83334   0.42002   0.24994   0.00000  Uiso   1.00
C353   C     0.77187   0.53898   0.05184   0.00000  Uiso   1.00
C354   C     0.88376   0.55675   0.45433   0.00000  Uiso   1.00
C355   C     0.73952   0.53153   0.02936   0.00000  Uiso   1.00
C356   C     0.91667   0.55964   0.47770   0.00000  Uiso   1.00
C357   C     0.87687   0.64533   0.23855   0.00000  Uiso   1.00
C358   C     0.78984   0.35466   0.26130   0.00000  Uiso   1.00
C359   C     0.87686   0.35466   0.23848   0.00000  Uiso   1.00
C360   C     0.78984   0.64534   0.26136   0.00000  Uiso   1.00
C361   C     0.83335   0.37584   0.24989   0.00000  Uiso   1.00
C362   C     0.83335   0.62415   0.24999   0.00000  Uiso   1.00
C363   C     0.98582   0.47360   0.22191   0.00000  Uiso   1.00
C364   C     0.68082   0.52635   0.27816   0.00000  Uiso   1.00
C365   C     0.70033   0.47365   0.22187   0.00000  Uiso   1.00
C366   C     0.96632   0.52633   0.27817   0.00000  Uiso   1.00
C367   C     0.80397   0.50058   0.33775   0.00000  Uiso   1.00
C368   C     0.86271   0.50151   0.16213   0.00000  Uiso   1.00
C369   C     0.78674   0.50701   0.38767   0.00000  Uiso   1.00
C370   C     0.87893   0.51263   0.11290   0.00000  Uiso   1.00
C371   C     0.72375   0.50688   0.46178   0.00000  Uiso   1.00
C372   C     0.93877   0.54078   0.04446   0.00000  Uiso   1.00
C373   C     0.73925   0.49781   0.41448   0.00000  Uiso   1.00
C374   C     0.92704   0.52177   0.08797   0.00000  Uiso   1.00
C375   C     0.81810   0.52467   0.40791   0.00000  Uiso   1.00
C376   C     0.84418   0.51950   0.09248   0.00000  Uiso   1.00
C377   C     0.80336   0.53271   0.45537   0.00000  Uiso   1.00
C378   C     0.85576   0.53676   0.04831   0.00000  Uiso   1.00
C379   C     0.75516   0.52440   0.48204   0.00000  Uiso   1.00
C380   C     0.90388   0.54649   0.02363   0.00000  Uiso   1.00
C381   C     0.83610   0.54437   0.47800   0.00000  Uiso   1.00
C382   C     0.82103   0.54081   0.02668   0.00000  Uiso   1.00
H383   H     0.70262   0.52898   0.04949   0.00000  Uiso   1.00
H384   H     0.95307   0.56893   0.45883   0.00000  Uiso   1.00
H385   H     0.80809   0.50961   0.11097   0.00000  Uiso   1.00
H386   H     0.85455   0.53035   0.38631   0.00000  Uiso   1.00
H387   H     0.68826   0.49756   0.48317   0.00000  Uiso   1.00
H388   H     0.97519   0.54994   0.02622   0.00000  Uiso   1.00
H389   H     0.75784   0.54260   0.08900   0.00000  Uiso   1.00
H390   H     0.89631   0.56441   0.41800   0.00000  Uiso   1.00
H391   H     0.91075   0.62905   0.22933   0.00000  Uiso   1.00
H392   H     0.75595   0.37094   0.27052   0.00000  Uiso   1.00
H393   H     0.91075   0.37093   0.22922   0.00000  Uiso   1.00
H394   H     0.75596   0.62907   0.27063   0.00000  Uiso   1.00
H395   H     0.97559   0.45236   0.19950   0.00000  Uiso   1.00
H396   H     0.69098   0.54747   0.30074   0.00000  Uiso   1.00
H397   H     0.72614   0.45251   0.19931   0.00000  Uiso   1.00
H398   H     0.94049   0.54742   0.30079   0.00000  Uiso   1.00
N399   N     0.71426   0.50001   0.25001   0.00000  Uiso   1.00
N400   N     0.95241   0.49999   0.24999   0.00000  Uiso   1.00
O401   O     0.79512   0.56108   0.25000   0.00000  Uiso   1.00
O402   O     0.87154   0.43892   0.24999   0.00000  Uiso   1.00
O403   O     0.87157   0.56107   0.25000   0.00000  Uiso   1.00
O404   O     0.79510   0.43893   0.25000   0.00000  Uiso   1.00
O405   O     0.77328   0.50001   0.31612   0.00000  Uiso   1.00
O406   O     0.89339   0.49999   0.18387   0.00000  Uiso   1.00
O407   O     0.84972   0.50000   0.31612   0.00000  Uiso   1.00
O408   O     0.81695   0.50000   0.18388   0.00000  Uiso   1.00
Zn409  Zn    0.78229   0.50001   0.25000   0.00000  Uiso   1.00
Zn410  Zn    0.88438   0.49999   0.25000   0.00000  Uiso   1.00
O411   O     0.96251   0.51367   0.10653   0.00000  Uiso   1.00
C412   C     0.97559   0.47130   0.09853   0.00000  Uiso   1.00
H413   H     0.94586   0.45031   0.11791   0.00000  Uiso   1.00
H414   H     0.67273   0.46527   0.11088   0.00000  Uiso   1.00
H415   H     0.98761   0.46350   0.06101   0.00000  Uiso   1.00
O416   O     0.71092   0.47508   0.39512   0.00000  Uiso   1.00
C417   C     0.66779   0.49631   0.40074   0.00000  Uiso   1.00
H418   H     0.98481   0.48294   0.37620   0.00000  Uiso   1.00
H419   H     0.67363   0.53009   0.39259   0.00000  Uiso   1.00
H420   H     0.97536   0.49147   0.43611   0.00000  Uiso   1.00
C421   C     0.16668   0.91331   0.25002   0.00000  Uiso   1.00
C422   C     0.16667   0.75336   0.24994   0.00000  Uiso   1.00
C423   C     0.10520   0.87232   0.05184   0.00000  Uiso   1.00
C424   C     0.21710   0.89008   0.45433   0.00000  Uiso   1.00
C425   C     0.07285   0.86487   0.02936   0.00000  Uiso   1.00
C426   C     0.25000   0.89297   0.47770   0.00000  Uiso   1.00
C427   C     0.21020   0.97866   0.23855   0.00000  Uiso   1.00
C428   C     0.12317   0.68800   0.26130   0.00000  Uiso   1.00
C429   C     0.21020   0.68799   0.23848   0.00000  Uiso   1.00
C430   C     0.12317   0.97867   0.26136   0.00000  Uiso   1.00
C431   C     0.16668   0.70918   0.24989   0.00000  Uiso   1.00
C432   C     0.16669   0.95749   0.24999   0.00000  Uiso   1.00
C433   C     0.31916   0.80694   0.22191   0.00000  Uiso   1.00
C434   C     0.01415   0.85968   0.27816   0.00000  Uiso   1.00
C435   C     0.03367   0.80698   0.22187   0.00000  Uiso   1.00
C436   C     0.29965   0.85966   0.27817   0.00000  Uiso   1.00
C437   C     0.13730   0.83391   0.33775   0.00000  Uiso   1.00
C438   C     0.19604   0.83484   0.16213   0.00000  Uiso   1.00
C439   C     0.12008   0.84034   0.38767   0.00000  Uiso   1.00
C440   C     0.21227   0.84597   0.11290   0.00000  Uiso   1.00
C441   C     0.05708   0.84021   0.46178   0.00000  Uiso   1.00
C442   C     0.27210   0.87411   0.04446   0.00000  Uiso   1.00
C443   C     0.07259   0.83114   0.41448   0.00000  Uiso   1.00
C444   C     0.26038   0.85510   0.08797   0.00000  Uiso   1.00
C445   C     0.15144   0.85800   0.40791   0.00000  Uiso   1.00
C446   C     0.17751   0.85283   0.09248   0.00000  Uiso   1.00
C447   C     0.13670   0.86605   0.45537   0.00000  Uiso   1.00
C448   C     0.18909   0.87009   0.04831   0.00000  Uiso   1.00
C449   C     0.08849   0.85773   0.48204   0.00000  Uiso   1.00
C450   C     0.23722   0.87982   0.02363   0.00000  Uiso   1.00
C451   C     0.16943   0.87770   0.47800   0.00000  Uiso   1.00
C452   C     0.15436   0.87414   0.02668   0.00000  Uiso   1.00
H453   H     0.03595   0.86231   0.04949   0.00000  Uiso   1.00
H454   H     0.28640   0.90226   0.45883   0.00000  Uiso   1.00
H455   H     0.14142   0.84295   0.11097   0.00000  Uiso   1.00
H456   H     0.18788   0.86368   0.38631   0.00000  Uiso   1.00
H457   H     0.02159   0.83089   0.48317   0.00000  Uiso   1.00
H458   H     0.30852   0.88328   0.02622   0.00000  Uiso   1.00
H459   H     0.09118   0.87593   0.08900   0.00000  Uiso   1.00
H460   H     0.22965   0.89774   0.41800   0.00000  Uiso   1.00
H461   H     0.24408   0.96238   0.22933   0.00000  Uiso   1.00
H462   H     0.08929   0.70427   0.27052   0.00000  Uiso   1.00
H463   H     0.24408   0.70426   0.22922   0.00000  Uiso   1.00
H464   H     0.08929   0.96240   0.27063   0.00000  Uiso   1.00
H465   H     0.30893   0.78569   0.19950   0.00000  Uiso   1.00
H466   H     0.02432   0.88080   0.30074   0.00000  Uiso   1.00
H467   H     0.05947   0.78585   0.19931   0.00000  Uiso   1.00
H468   H     0.27382   0.88075   0.30079   0.00000  Uiso   1.00
N469   N     0.04759   0.83334   0.25001   0.00000  Uiso   1.00
N470   N     0.28574   0.83332   0.24999   0.00000  Uiso   1.00
O471   O     0.12846   0.89442   0.25000   0.00000  Uiso   1.00
O472   O     0.20488   0.77225   0.24999   0.00000  Uiso   1.00
O473   O     0.20490   0.89441   0.25000   0.00000  Uiso   1.00
O474   O     0.12843   0.77226   0.25000   0.00000  Uiso   1.00
O475   O     0.10661   0.83334   0.31612   0.00000  Uiso   1.00
O476   O     0.22672   0.83333   0.18387   0.00000  Uiso   1.00
O477   O     0.18305   0.83333   0.31612   0.00000  Uiso   1.00
O478   O     0.15028   0.83334   0.18388   0.00000  Uiso   1.00
Zn479  Zn    0.11562   0.83334   0.25000   0.00000  Uiso   1.00
Zn480  Zn    0.21771   0.83333   0.25000   0.00000  Uiso   1.00
O481   O     0.29584   0.84700   0.10653   0.00000  Uiso   1.00
C482   C     0.30892   0.80464   0.09853   0.00000  Uiso   1.00
H483   H     0.27919   0.78364   0.11791   0.00000  Uiso   1.00
H484   H     0.00606   0.79860   0.11088   0.00000  Uiso   1.00
H485   H     0.32094   0.79683   0.06101   0.00000  Uiso   1.00
O486   O     0.04426   0.80841   0.39512   0.00000  Uiso   1.00
C487   C     0.00113   0.82965   0.40074   0.00000  Uiso   1.00
H488   H     0.31814   0.81627   0.37620   0.00000  Uiso   1.00
H489   H     0.00696   0.86343   0.39259   0.00000  Uiso   1.00
H490   H     0.30869   0.82480   0.43611   0.00000  Uiso   1.00
C491   C     0.50001   0.91331   0.25002   0.00000  Uiso   1.00
C492   C     0.50000   0.75336   0.24994   0.00000  Uiso   1.00
C493   C     0.43853   0.87232   0.05184   0.00000  Uiso   1.00
C494   C     0.55043   0.89008   0.45433   0.00000  Uiso   1.00
C495   C     0.40618   0.86487   0.02936   0.00000  Uiso   1.00
C496   C     0.58334   0.89297   0.47770   0.00000  Uiso   1.00
C497   C     0.54353   0.97866   0.23855   0.00000  Uiso   1.00
C498   C     0.45650   0.68800   0.26130   0.00000  Uiso   1.00
C499   C     0.54353   0.68799   0.23848   0.00000  Uiso   1.00
C500   C     0.45651   0.97867   0.26136   0.00000  Uiso   1.00
C501   C     0.50001   0.70918   0.24989   0.00000  Uiso   1.00
C502   C     0.50002   0.95749   0.24999   0.00000  Uiso   1.00
C503   C     0.65249   0.80694   0.22191   0.00000  Uiso   1.00
C504   C     0.34749   0.85968   0.27816   0.00000  Uiso   1.00
C505   C     0.36700   0.80698   0.22187   0.00000  Uiso   1.00
C506   C     0.63299   0.85966   0.27817   0.00000  Uiso   1.00
C507   C     0.47063   0.83391   0.33775   0.00000  Uiso   1.00
C508   C     0.52937   0.83484   0.16213   0.00000  Uiso   1.00
C509   C     0.45341   0.84034   0.38767   0.00000  Uiso   1.00
C510   C     0.54560   0.84597   0.11290   0.00000  Uiso   1.00
C511   C     0.39041   0.84021   0.46178   0.00000  Uiso   1.00
C512   C     0.60544   0.87411   0.04446   0.00000  Uiso   1.00
C513   C     0.40592   0.83114   0.41448   0.00000  Uiso   1.00
C514   C     0.59371   0.85510   0.08797   0.00000  Uiso   1.00
C515   C     0.48477   0.85800   0.40791   0.00000  Uiso   1.00
C516   C     0.51084   0.85283   0.09248   0.00000  Uiso   1.00
C517   C     0.47003   0.86605   0.45537   0.00000  Uiso   1.00
C518   C     0.52243   0.87009   0.04831   0.00000  Uiso   1.00
C519   C     0.42183   0.85773   0.48204   0.00000  Uiso   1.00
C520   C     0.57055   0.87982   0.02363   0.00000  Uiso   1.00
C521   C     0.50276   0.87770   0.47800   0.00000  Uiso   1.00
C522   C     0.48770   0.87414   0.02668   0.00000  Uiso   1.00
H523   H     0.36929   0.86231   0.04949   0.00000  Uiso   1.00
H524   H     0.61974   0.90226   0.45883   0.00000  Uiso   1.00
H525   H     0.47476   0.84295   0.11097   0.00000  Uiso   1.00
H526   H     0.52121   0.86368   0.38631   0.00000  Uiso   1.00
H527   H     0.35492   0.83089   0.48317   0.00000  Uiso   1.00
H528   H     0.64186   0.88328   0.02622   0.00000  Uiso   1.00
H529   H     0.42451   0.87593   0.08900   0.00000  Uiso   1.00
H530   H     0.56298   0.89774   0.41800   0.00000  Uiso   1.00
H531   H     0.57741   0.96238   0.22933   0.00000  Uiso   1.00
H532   H     0.42262   0.70427   0.27052   0.00000  Uiso   1.00
H533   H     0.57741   0.70426   0.22922   0.00000  Uiso   1.00
H534   H     0.42262   0.96240   0.27063   0.00000  Uiso   1.00
H535   H     0.64226   0.78569   0.19950   0.00000  Uiso   1.00
H536   H     0.35765   0.88080   0.30074   0.00000  Uiso   1.00
H537   H     0.39281   0.78585   0.19931   0.00000  Uiso   1.00
H538   H     0.60715   0.88075   0.30079   0.00000  Uiso   1.00
N539   N     0.38093   0.83334   0.25001   0.00000  Uiso   1.00
N540   N     0.61907   0.83332   0.24999   0.00000  Uiso   1.00
O541   O     0.46179   0.89442   0.25000   0.00000  Uiso   1.00
O542   O     0.53821   0.77225   0.24999   0.00000  Uiso   1.00
O543   O     0.53823   0.89441   0.25000   0.00000  Uiso   1.00
O544   O     0.46177   0.77226   0.25000   0.00000  Uiso   1.00
O545   O     0.43994   0.83334   0.31612   0.00000  Uiso   1.00
O546   O     0.56006   0.83333   0.18387   0.00000  Uiso   1.00
O547   O     0.51639   0.83333   0.31612   0.00000  Uiso   1.00
O548   O     0.48361   0.83334   0.18388   0.00000  Uiso   1.00
Zn549  Zn    0.44896   0.83334   0.25000   0.00000  Uiso   1.00
Zn550  Zn    0.55104   0.83333   0.25000   0.00000  Uiso   1.00
O551   O     0.62918   0.84700   0.10653   0.00000  Uiso   1.00
C552   C     0.64226   0.80464   0.09853   0.00000  Uiso   1.00
H553   H     0.61252   0.78364   0.11791   0.00000  Uiso   1.00
H554   H     0.33940   0.79860   0.11088   0.00000  Uiso   1.00
H555   H     0.65428   0.79683   0.06101   0.00000  Uiso   1.00
O556   O     0.37759   0.80841   0.39512   0.00000  Uiso   1.00
C557   C     0.33446   0.82965   0.40074   0.00000  Uiso   1.00
H558   H     0.65147   0.81627   0.37620   0.00000  Uiso   1.00
H559   H     0.34029   0.86343   0.39259   0.00000  Uiso   1.00
H560   H     0.64203   0.82480   0.43611   0.00000  Uiso   1.00
C561   C     0.83335   0.91331   0.25002   0.00000  Uiso   1.00
C562   C     0.83334   0.75336   0.24994   0.00000  Uiso   1.00
C563   C     0.77187   0.87232   0.05184   0.00000  Uiso   1.00
C564   C     0.88376   0.89008   0.45433   0.00000  Uiso   1.00
C565   C     0.73952   0.86487   0.02936   0.00000  Uiso   1.00
C566   C     0.91667   0.89297   0.47770   0.00000  Uiso   1.00
C567   C     0.87687   0.97866   0.23855   0.00000  Uiso   1.00
C568   C     0.78984   0.68800   0.26130   0.00000  Uiso   1.00
C569   C     0.87686   0.68799   0.23848   0.00000  Uiso   1.00
C570   C     0.78984   0.97867   0.26136   0.00000  Uiso   1.00
C571   C     0.83335   0.70918   0.24989   0.00000  Uiso   1.00
C572   C     0.83335   0.95749   0.24999   0.00000  Uiso   1.00
C573   C     0.98582   0.80694   0.22191   0.00000  Uiso   1.00
C574   C     0.68082   0.85968   0.27816   0.00000  Uiso   1.00
C575   C     0.70033   0.80698   0.22187   0.00000  Uiso   1.00
C576   C     0.96632   0.85966   0.27817   0.00000  Uiso   1.00
C577   C     0.80397   0.83391   0.33775   0.00000  Uiso   1.00
C578   C     0.86271   0.83484   0.16213   0.00000  Uiso   1.00
C579   C     0.78674   0.84034   0.38767   0.00000  Uiso   1.00
C580   C     0.87893   0.84597   0.11290   0.00000  Uiso   1.00
C581   C     0.72375   0.84021   0.46178   0.00000  Uiso   1.00
C582   C     0.93877   0.87411   0.04446   0.00000  Uiso   1.00
C583   C     0.73925   0.83114   0.41448   0.00000  Uiso   1.00
C584   C     0.92704   0.85510   0.08797   0.00000  Uiso   1.00
C585   C     0.81810   0.85800   0.40791   0.00000  Uiso   1.00
C586   C     0.84418   0.85283   0.09248   0.00000  Uiso   1.00
C587   C     0.80336   0.86605   0.45537   0.00000  Uiso   1.00
C588   C     0.85576   0.87009   0.04831   0.00000  Uiso   1.00
C589   C     0.75516   0.85773   0.48204   0.00000  Uiso   1.00
C590   C     0.90388   0.87982   0.02363   0.00000  Uiso   1.00
C591   C     0.83610   0.87770   0.47800   0.00000  Uiso   1.00
C592   C     0.82103   0.87414   0.02668   0.00000  Uiso   1.00
H593   H     0.70262   0.86231   0.04949   0.00000  Uiso   1.00
H594   H     0.95307   0.90226   0.45883   0.00000  Uiso   1.00
H595   H     0.80809   0.84295   0.11097   0.00000  Uiso   1.00
H596   H     0.85455   0.86368   0.38631   0.00000  Uiso   1.00
H597   H     0.68826   0.83089   0.48317   0.00000  Uiso   1.00
H598   H     0.97519   0.88328   0.02622   0.00000  Uiso   1.00
H599   H     0.75784   0.87593   0.08900   0.00000  Uiso   1.00
H600   H     0.89631   0.89774   0.41800   0.00000  Uiso   1.00
H601   H     0.91075   0.96238   0.22933   0.00000  Uiso   1.00
H602   H     0.75595   0.70427   0.27052   0.00000  Uiso   1.00
H603   H     0.91075   0.70426   0.22922   0.00000  Uiso   1.00
H604   H     0.75596   0.96240   0.27063   0.00000  Uiso   1.00
H605   H     0.97559   0.78569   0.19950   0.00000  Uiso   1.00
H606   H     0.69098   0.88080   0.30074   0.00000  Uiso   1.00
H607   H     0.72614   0.78585   0.19931   0.00000  Uiso   1.00
H608   H     0.94049   0.88075   0.30079   0.00000  Uiso   1.00
N609   N     0.71426   0.83334   0.25001   0.00000  Uiso   1.00
N610   N     0.95241   0.83332   0.24999   0.00000  Uiso   1.00
O611   O     0.79512   0.89442   0.25000   0.00000  Uiso   1.00
O612   O     0.87154   0.77225   0.24999   0.00000  Uiso   1.00
O613   O     0.87157   0.89441   0.25000   0.00000  Uiso   1.00
O614   O     0.79510   0.77226   0.25000   0.00000  Uiso   1.00
O615   O     0.77328   0.83334   0.31612   0.00000  Uiso   1.00
O616   O     0.89339   0.83333   0.18387   0.00000  Uiso   1.00
O617   O     0.84972   0.83333   0.31612   0.00000  Uiso   1.00
O618   O     0.81695   0.83334   0.18388   0.00000  Uiso   1.00
Zn619  Zn    0.78229   0.83334   0.25000   0.00000  Uiso   1.00
Zn620  Zn    0.88438   0.83333   0.25000   0.00000  Uiso   1.00
O621   O     0.96251   0.84700   0.10653   0.00000  Uiso   1.00
C622   C     0.97559   0.80464   0.09853   0.00000  Uiso   1.00
H623   H     0.94586   0.78364   0.11791   0.00000  Uiso   1.00
H624   H     0.67273   0.79860   0.11088   0.00000  Uiso   1.00
H625   H     0.98761   0.79683   0.06101   0.00000  Uiso   1.00
O626   O     0.71092   0.80841   0.39512   0.00000  Uiso   1.00
C627   C     0.66779   0.82965   0.40074   0.00000  Uiso   1.00
H628   H     0.98481   0.81627   0.37620   0.00000  Uiso   1.00
H629   H     0.67363   0.86343   0.39259   0.00000  Uiso   1.00
H630   H     0.97536   0.82480   0.43611   0.00000  Uiso   1.00
C631   C     0.16668   0.24664   0.75002   0.00000  Uiso   1.00
C632   C     0.16667   0.08669   0.74994   0.00000  Uiso   1.00
C633   C     0.10520   0.20565   0.55184   0.00000  Uiso   1.00
C634   C     0.21710   0.22342   0.95433   0.00000  Uiso   1.00
C635   C     0.07285   0.19820   0.52936   0.00000  Uiso   1.00
C636   C     0.25000   0.22631   0.97770   0.00000  Uiso   1.00
C637   C     0.21020   0.31200   0.73855   0.00000  Uiso   1.00
C638   C     0.12317   0.02133   0.76130   0.00000  Uiso   1.00
C639   C     0.21020   0.02132   0.73848   0.00000  Uiso   1.00
C640   C     0.12317   0.31200   0.76136   0.00000  Uiso   1.00
C641   C     0.16668   0.04251   0.74989   0.00000  Uiso   1.00
C642   C     0.16669   0.29082   0.74999   0.00000  Uiso   1.00
C643   C     0.31916   0.14027   0.72191   0.00000  Uiso   1.00
C644   C     0.01415   0.19302   0.77816   0.00000  Uiso   1.00
C645   C     0.03367   0.14031   0.72187   0.00000  Uiso   1.00
C646   C     0.29965   0.19300   0.77817   0.00000  Uiso   1.00
C647   C     0.13730   0.16725   0.83775   0.00000  Uiso   1.00
C648   C     0.19604   0.16817   0.66213   0.00000  Uiso   1.00
C649   C     0.12008   0.17367   0.88767   0.00000  Uiso   1.00
C650   C     0.21227   0.17930   0.61290   0.00000  Uiso   1.00
C651   C     0.05708   0.17355   0.96178   0.00000  Uiso   1.00
C652   C     0.27210   0.20744   0.54446   0.00000  Uiso   1.00
C653   C     0.07259   0.16448   0.91448   0.00000  Uiso   1.00
C654   C     0.26038   0.18844   0.58797   0.00000  Uiso   1.00
C655   C     0.15144   0.19134   0.90791   0.00000  Uiso   1.00
C656   C     0.17751   0.18616   0.59248   0.00000  Uiso   1.00
C657   C     0.13670   0.19938   0.95537   0.00000  Uiso   1.00
C658   C     0.18909   0.20343   0.54831   0.00000  Uiso   1.00
C659   C     0.08849   0.19106   0.98204   0.00000  Uiso   1.00
C660   C     0.23722   0.21315   0.52363   0.00000  Uiso   1.00
C661   C     0.16943   0.21103   0.97800   0.00000  Uiso   1.00
C662   C     0.15436   0.20748   0.52668   0.00000  Uiso   1.00
H663   H     0.03595   0.19565   0.54949   0.00000  Uiso   1.00
H664   H     0.28640   0.23559   0.95883   0.00000  Uiso   1.00
H665   H     0.14142   0.17628   0.61097   0.00000  Uiso   1.00
H666   H     0.18788   0.19702   0.88631   0.00000  Uiso   1.00
H667   H     0.02159   0.16422   0.98317   0.00000  Uiso   1.00
H668   H     0.30852   0.21661   0.52622   0.00000  Uiso   1.00
H669   H     0.09118   0.20927   0.58900   0.00000  Uiso   1.00
H670   H     0.22965   0.23108   0.91800   0.00000  Uiso   1.00
H671   H     0.24408   0.29572   0.72933   0.00000  Uiso   1.00
H672   H     0.08929   0.03760   0.77052   0.00000  Uiso   1.00
H673   H     0.24408   0.03760   0.72922   0.00000  Uiso   1.00
H674   H     0.08929   0.29574   0.77063   0.00000  Uiso   1.00
H675   H     0.30893   0.11902   0.69950   0.00000  Uiso   1.00
H676   H     0.02432   0.21413   0.80074   0.00000  Uiso   1.00
H677   H     0.05947   0.11918   0.69931   0.00000  Uiso   1.00
H678   H     0.27382   0.21408   0.80079   0.00000  Uiso   1.00
N679   N     0.04759   0.16668   0.75001   0.00000  Uiso   1.00
N680   N     0.28574   0.16666   0.74999   0.00000  Uiso   1.00
O681   O     0.12846   0.22775   0.75000   0.00000  Uiso   1.00
O682   O     0.20488   0.10558   0.74999   0.00000  Uiso   1.00
O683   O     0.20490   0.22774   0.75000   0.00000  Uiso   1.00
O684   O     0.12843   0.10559   0.75000   0.00000  Uiso   1.00
O685   O     0.10661   0.16667   0.81612   0.00000  Uiso   1.00
O686   O     0.22672   0.16666   0.68387   0.00000  Uiso   1.00
O687   O     0.18305   0.16666   0.81612   0.00000  Uiso   1.00
O688   O     0.15028   0.16667   0.68388   0.00000  Uiso   1.00
Zn689  Zn    0.11562   0.16667   0.75000   0.00000  Uiso   1.00
Zn690  Zn    0.21771   0.16666   0.75000   0.00000  Uiso   1.00
O691   O     0.29584   0.18034   0.60653   0.00000  Uiso   1.00
C692   C     0.30892   0.13797   0.59853   0.00000  Uiso   1.00
H693   H     0.27919   0.11697   0.61791   0.00000  Uiso   1.00
H694   H     0.00606   0.13194   0.61088   0.00000  Uiso   1.00
H695   H     0.32094   0.13016   0.56101   0.00000  Uiso   1.00
O696   O     0.04426   0.14174   0.89512   0.00000  Uiso   1.00
C697   C     0.00113   0.16298   0.90074   0.00000  Uiso   1.00
H698   H     0.31814   0.14961   0.87620   0.00000  Uiso   1.00
H699   H     0.00696   0.19676   0.89259   0.00000  Uiso   1.00
H700   H     0.30869   0.15814   0.93611   0.00000  Uiso   1.00
C701   C     0.50001   0.24664   0.75002   0.00000  Uiso   1.00
C702   C     0.50000   0.08669   0.74994   0.00000  Uiso   1.00
C703   C     0.43853   0.20565   0.55184   0.00000  Uiso   1.00
C704   C     0.55043   0.22342   0.95433   0.00000  Uiso   1.00
C705   C     0.40618   0.19820   0.52936   0.00000  Uiso   1.00
C706   C     0.58334   0.22631   0.97770   0.00000  Uiso   1.00
C707   C     0.54353   0.31200   0.73855   0.00000  Uiso   1.00
C708   C     0.45650   0.02133   0.76130   0.00000  Uiso   1.00
C709   C     0.54353   0.02132   0.73848   0.00000  Uiso   1.00
C710   C     0.45651   0.31200   0.76136   0.00000  Uiso   1.00
C711   C     0.50001   0.04251   0.74989   0.00000  Uiso   1.00
C712   C     0.50002   0.29082   0.74999   0.00000  Uiso   1.00
C713   C     0.65249   0.14027   0.72191   0.00000  Uiso   1.00
C714   C     0.34749   0.19302   0.77816   0.00000  Uiso   1.00
C715   C     0.36700   0.14031   0.72187   0.00000  Uiso   1.00
C716   C     0.63299   0.19300   0.77817   0.00000  Uiso   1.00
C717   C     0.47063   0.16725   0.83775   0.00000  Uiso   1.00
C718   C     0.52937   0.16817   0.66213   0.00000  Uiso   1.00
C719   C     0.45341   0.17367   0.88767   0.00000  Uiso   1.00
C720   C     0.54560   0.17930   0.61290   0.00000  Uiso   1.00
C721   C     0.39041   0.17355   0.96178   0.00000  Uiso   1.00
C722   C     0.60544   0.20744   0.54446   0.00000  Uiso   1.00
C723   C     0.40592   0.16448   0.91448   0.00000  Uiso   1.00
C724   C     0.59371   0.18844   0.58797   0.00000  Uiso   1.00
C725   C     0.48477   0.19134   0.90791   0.00000  Uiso   1.00
C726   C     0.51084   0.18616   0.59248   0.00000  Uiso   1.00
C727   C     0.47003   0.19938   0.95537   0.00000  Uiso   1.00
C728   C     0.52243   0.20343   0.54831   0.00000  Uiso   1.00
C729   C     0.42183   0.19106   0.98204   0.00000  Uiso   1.00
C730   C     0.57055   0.21315   0.52363   0.00000  Uiso   1.00
C731   C     0.50276   0.21103   0.97800   0.00000  Uiso   1.00
C732   C     0.48770   0.20748   0.52668   0.00000  Uiso   1.00
H733   H     0.36929   0.19565   0.54949   0.00000  Uiso   1.00
H734   H     0.61974   0.23559   0.95883   0.00000  Uiso   1.00
H735   H     0.47476   0.17628   0.61097   0.00000  Uiso   1.00
H736   H     0.52121   0.19702   0.88631   0.00000  Uiso   1.00
H737   H     0.35492   0.16422   0.98317   0.00000  Uiso   1.00
H738   H     0.64186   0.21661   0.52622   0.00000  Uiso   1.00
H739   H     0.42451   0.20927   0.58900   0.00000  Uiso   1.00
H740   H     0.56298   0.23108   0.91800   0.00000  Uiso   1.00
H741   H     0.57741   0.29572   0.72933   0.00000  Uiso   1.00
H742   H     0.42262   0.03760   0.77052   0.00000  Uiso   1.00
H743   H     0.57741   0.03760   0.72922   0.00000  Uiso   1.00
H744   H     0.42262   0.29574   0.77063   0.00000  Uiso   1.00
H745   H     0.64226   0.11902   0.69950   0.00000  Uiso   1.00
H746   H     0.35765   0.21413   0.80074   0.00000  Uiso   1.00
H747   H     0.39281   0.11918   0.69931   0.00000  Uiso   1.00
H748   H     0.60715   0.21408   0.80079   0.00000  Uiso   1.00
N749   N     0.38093   0.16668   0.75001   0.00000  Uiso   1.00
N750   N     0.61907   0.16666   0.74999   0.00000  Uiso   1.00
O751   O     0.46179   0.22775   0.75000   0.00000  Uiso   1.00
O752   O     0.53821   0.10558   0.74999   0.00000  Uiso   1.00
O753   O     0.53823   0.22774   0.75000   0.00000  Uiso   1.00
O754   O     0.46177   0.10559   0.75000   0.00000  Uiso   1.00
O755   O     0.43994   0.16667   0.81612   0.00000  Uiso   1.00
O756   O     0.56006   0.16666   0.68387   0.00000  Uiso   1.00
O757   O     0.51639   0.16666   0.81612   0.00000  Uiso   1.00
O758   O     0.48361   0.16667   0.68388   0.00000  Uiso   1.00
Zn759  Zn    0.44896   0.16667   0.75000   0.00000  Uiso   1.00
Zn760  Zn    0.55104   0.16666   0.75000   0.00000  Uiso   1.00
O761   O     0.62918   0.18034   0.60653   0.00000  Uiso   1.00
C762   C     0.64226   0.13797   0.59853   0.00000  Uiso   1.00
H763   H     0.61252   0.11697   0.61791   0.00000  Uiso   1.00
H764   H     0.33940   0.13194   0.61088   0.00000  Uiso   1.00
H765   H     0.65428   0.13016   0.56101   0.00000  Uiso   1.00
O766   O     0.37759   0.14174   0.89512   0.00000  Uiso   1.00
C767   C     0.33446   0.16298   0.90074   0.00000  Uiso   1.00
H768   H     0.65147   0.14961   0.87620   0.00000  Uiso   1.00
H769   H     0.34029   0.19676   0.89259   0.00000  Uiso   1.00
H770   H     0.64203   0.15814   0.93611   0.00000  Uiso   1.00
C771   C     0.83335   0.24664   0.75002   0.00000  Uiso   1.00
C772   C     0.83334   0.08669   0.74994   0.00000  Uiso   1.00
C773   C     0.77187   0.20565   0.55184   0.00000  Uiso   1.00
C774   C     0.88376   0.22342   0.95433   0.00000  Uiso   1.00
C775   C     0.73952   0.19820   0.52936   0.00000  Uiso   1.00
C776   C     0.91667   0.22631   0.97770   0.00000  Uiso   1.00
C777   C     0.87687   0.31200   0.73855   0.00000  Uiso   1.00
C778   C     0.78984   0.02133   0.76130   0.00000  Uiso   1.00
C779   C     0.87686   0.02132   0.73848   0.00000  Uiso   1.00
C780   C     0.78984   0.31200   0.76136   0.00000  Uiso   1.00
C781   C     0.83335   0.04251   0.74989   0.00000  Uiso   1.00
C782   C     0.83335   0.29082   0.74999   0.00000  Uiso   1.00
C783   C     0.98582   0.14027   0.72191   0.00000  Uiso   1.00
C784   C     0.68082   0.19302   0.77816   0.00000  Uiso   1.00
C785   C     0.70033   0.14031   0.72187   0.00000  Uiso   1.00
C786   C     0.96632   0.19300   0.77817   0.00000  Uiso   1.00
C787   C     0.80397   0.16725   0.83775   0.00000  Uiso   1.00
C788   C     0.86271   0.16817   0.66213   0.00000  Uiso   1.00
C789   C     0.78674   0.17367   0.88767   0.00000  Uiso   1.00
C790   C     0.87893   0.17930   0.61290   0.00000  Uiso   1.00
C791   C     0.72375   0.17355   0.96178   0.00000  Uiso   1.00
C792   C     0.93877   0.20744   0.54446   0.00000  Uiso   1.00
C793   C     0.73925   0.16448   0.91448   0.00000  Uiso   1.00
C794   C     0.92704   0.18844   0.58797   0.00000  Uiso   1.00
C795   C     0.81810   0.19134   0.90791   0.00000  Uiso   1.00
C796   C     0.84418   0.18616   0.59248   0.00000  Uiso   1.00
C797   C     0.80336   0.19938   0.95537   0.00000  Uiso   1.00
C798   C     0.85576   0.20343   0.54831   0.00000  Uiso   1.00
C799   C     0.75516   0.19106   0.98204   0.00000  Uiso   1.00
C800   C     0.90388   0.21315   0.52363   0.00000  Uiso   1.00
C801   C     0.83610   0.21103   0.97800   0.00000  Uiso   1.00
C802   C     0.82103   0.20748   0.52668   0.00000  Uiso   1.00
H803   H     0.70262   0.19565   0.54949   0.00000  Uiso   1.00
H804   H     0.95307   0.23559   0.95883   0.00000  Uiso   1.00
H805   H     0.80809   0.17628   0.61097   0.00000  Uiso   1.00
H806   H     0.85455   0.19702   0.88631   0.00000  Uiso   1.00
H807   H     0.68826   0.16422   0.98317   0.00000  Uiso   1.00
H808   H     0.97519   0.21661   0.52622   0.00000  Uiso   1.00
H809   H     0.75784   0.20927   0.58900   0.00000  Uiso   1.00
H810   H     0.89631   0.23108   0.91800   0.00000  Uiso   1.00
H811   H     0.91075   0.29572   0.72933   0.00000  Uiso   1.00
H812   H     0.75595   0.03760   0.77052   0.00000  Uiso   1.00
H813   H     0.91075   0.03760   0.72922   0.00000  Uiso   1.00
H814   H     0.75596   0.29574   0.77063   0.00000  Uiso   1.00
H815   H     0.97559   0.11902   0.69950   0.00000  Uiso   1.00
H816   H     0.69098   0.21413   0.80074   0.00000  Uiso   1.00
H817   H     0.72614   0.11918   0.69931   0.00000  Uiso   1.00
H818   H     0.94049   0.21408   0.80079   0.00000  Uiso   1.00
N819   N     0.71426   0.16668   0.75001   0.00000  Uiso   1.00
N820   N     0.95241   0.16666   0.74999   0.00000  Uiso   1.00
O821   O     0.79512   0.22775   0.75000   0.00000  Uiso   1.00
O822   O     0.87154   0.10558   0.74999   0.00000  Uiso   1.00
O823   O     0.87157   0.22774   0.75000   0.00000  Uiso   1.00
O824   O     0.79510   0.10559   0.75000   0.00000  Uiso   1.00
O825   O     0.77328   0.16667   0.81612   0.00000  Uiso   1.00
O826   O     0.89339   0.16666   0.68387   0.00000  Uiso   1.00
O827   O     0.84972   0.16666   0.81612   0.00000  Uiso   1.00
O828   O     0.81695   0.16667   0.68388   0.00000  Uiso   1.00
Zn829  Zn    0.78229   0.16667   0.75000   0.00000  Uiso   1.00
Zn830  Zn    0.88438   0.16666   0.75000   0.00000  Uiso   1.00
O831   O     0.96251   0.18034   0.60653   0.00000  Uiso   1.00
C832   C     0.97559   0.13797   0.59853   0.00000  Uiso   1.00
H833   H     0.94586   0.11697   0.61791   0.00000  Uiso   1.00
H834   H     0.67273   0.13194   0.61088   0.00000  Uiso   1.00
H835   H     0.98761   0.13016   0.56101   0.00000  Uiso   1.00
O836   O     0.71092   0.14174   0.89512   0.00000  Uiso   1.00
C837   C     0.66779   0.16298   0.90074   0.00000  Uiso   1.00
H838   H     0.98481   0.14961   0.87620   0.00000  Uiso   1.00
H839   H     0.67363   0.19676   0.89259   0.00000  Uiso   1.00
H840   H     0.97536   0.15814   0.93611   0.00000  Uiso   1.00
C841   C     0.16668   0.57998   0.75002   0.00000  Uiso   1.00
C842   C     0.16667   0.42002   0.74994   0.00000  Uiso   1.00
C843   C     0.10520   0.53898   0.55184   0.00000  Uiso   1.00
C844   C     0.21710   0.55675   0.95433   0.00000  Uiso   1.00
C845   C     0.07285   0.53153   0.52936   0.00000  Uiso   1.00
C846   C     0.25000   0.55964   0.97770   0.00000  Uiso   1.00
C847   C     0.21020   0.64533   0.73855   0.00000  Uiso   1.00
C848   C     0.12317   0.35466   0.76130   0.00000  Uiso   1.00
C849   C     0.21020   0.35466   0.73848   0.00000  Uiso   1.00
C850   C     0.12317   0.64534   0.76136   0.00000  Uiso   1.00
C851   C     0.16668   0.37584   0.74989   0.00000  Uiso   1.00
C852   C     0.16669   0.62415   0.74999   0.00000  Uiso   1.00
C853   C     0.31916   0.47360   0.72191   0.00000  Uiso   1.00
C854   C     0.01415   0.52635   0.77816   0.00000  Uiso   1.00
C855   C     0.03367   0.47365   0.72187   0.00000  Uiso   1.00
C856   C     0.29965   0.52633   0.77817   0.00000  Uiso   1.00
C857   C     0.13730   0.50058   0.83775   0.00000  Uiso   1.00
C858   C     0.19604   0.50151   0.66213   0.00000  Uiso   1.00
C859   C     0.12008   0.50701   0.88767   0.00000  Uiso   1.00
C860   C     0.21227   0.51263   0.61290   0.00000  Uiso   1.00
C861   C     0.05708   0.50688   0.96178   0.00000  Uiso   1.00
C862   C     0.27210   0.54078   0.54446   0.00000  Uiso   1.00
C863   C     0.07259   0.49781   0.91448   0.00000  Uiso   1.00
C864   C     0.26038   0.52177   0.58797   0.00000  Uiso   1.00
C865   C     0.15144   0.52467   0.90791   0.00000  Uiso   1.00
C866   C     0.17751   0.51950   0.59248   0.00000  Uiso   1.00
C867   C     0.13670   0.53271   0.95537   0.00000  Uiso   1.00
C868   C     0.18909   0.53676   0.54831   0.00000  Uiso   1.00
C869   C     0.08849   0.52440   0.98204   0.00000  Uiso   1.00
C870   C     0.23722   0.54649   0.52363   0.00000  Uiso   1.00
C871   C     0.16943   0.54437   0.97800   0.00000  Uiso   1.00
C872   C     0.15436   0.54081   0.52668   0.00000  Uiso   1.00
H873   H     0.03595   0.52898   0.54949   0.00000  Uiso   1.00
H874   H     0.28640   0.56893   0.95883   0.00000  Uiso   1.00
H875   H     0.14142   0.50961   0.61097   0.00000  Uiso   1.00
H876   H     0.18788   0.53035   0.88631   0.00000  Uiso   1.00
H877   H     0.02159   0.49756   0.98317   0.00000  Uiso   1.00
H878   H     0.30852   0.54994   0.52622   0.00000  Uiso   1.00
H879   H     0.09118   0.54260   0.58900   0.00000  Uiso   1.00
H880   H     0.22965   0.56441   0.91800   0.00000  Uiso   1.00
H881   H     0.24408   0.62905   0.72933   0.00000  Uiso   1.00
H882   H     0.08929   0.37094   0.77052   0.00000  Uiso   1.00
H883   H     0.24408   0.37093   0.72922   0.00000  Uiso   1.00
H884   H     0.08929   0.62907   0.77063   0.00000  Uiso   1.00
H885   H     0.30893   0.45236   0.69950   0.00000  Uiso   1.00
H886   H     0.02432   0.54747   0.80074   0.00000  Uiso   1.00
H887   H     0.05947   0.45251   0.69931   0.00000  Uiso   1.00
H888   H     0.27382   0.54742   0.80079   0.00000  Uiso   1.00
N889   N     0.04759   0.50001   0.75001   0.00000  Uiso   1.00
N890   N     0.28574   0.49999   0.74999   0.00000  Uiso   1.00
O891   O     0.12846   0.56108   0.75000   0.00000  Uiso   1.00
O892   O     0.20488   0.43892   0.74999   0.00000  Uiso   1.00
O893   O     0.20490   0.56107   0.75000   0.00000  Uiso   1.00
O894   O     0.12843   0.43893   0.75000   0.00000  Uiso   1.00
O895   O     0.10661   0.50001   0.81612   0.00000  Uiso   1.00
O896   O     0.22672   0.49999   0.68387   0.00000  Uiso   1.00
O897   O     0.18305   0.50000   0.81612   0.00000  Uiso   1.00
O898   O     0.15028   0.50000   0.68388   0.00000  Uiso   1.00
Zn899  Zn    0.11562   0.50001   0.75000   0.00000  Uiso   1.00
Zn900  Zn    0.21771   0.49999   0.75000   0.00000  Uiso   1.00
O901   O     0.29584   0.51367   0.60653   0.00000  Uiso   1.00
C902   C     0.30892   0.47130   0.59853   0.00000  Uiso   1.00
H903   H     0.27919   0.45031   0.61791   0.00000  Uiso   1.00
H904   H     0.00606   0.46527   0.61088   0.00000  Uiso   1.00
H905   H     0.32094   0.46350   0.56101   0.00000  Uiso   1.00
O906   O     0.04426   0.47508   0.89512   0.00000  Uiso   1.00
C907   C     0.00113   0.49631   0.90074   0.00000  Uiso   1.00
H908   H     0.31814   0.48294   0.87620   0.00000  Uiso   1.00
H909   H     0.00696   0.53009   0.89259   0.00000  Uiso   1.00
H910   H     0.30869   0.49147   0.93611   0.00000  Uiso   1.00
C911   C     0.50001   0.57998   0.75002   0.00000  Uiso   1.00
C912   C     0.50000   0.42002   0.74994   0.00000  Uiso   1.00
C913   C     0.43853   0.53898   0.55184   0.00000  Uiso   1.00
C914   C     0.55043   0.55675   0.95433   0.00000  Uiso   1.00
C915   C     0.40618   0.53153   0.52936   0.00000  Uiso   1.00
C916   C     0.58334   0.55964   0.97770   0.00000  Uiso   1.00
C917   C     0.54353   0.64533   0.73855   0.00000  Uiso   1.00
C918   C     0.45650   0.35466   0.76130   0.00000  Uiso   1.00
C919   C     0.54353   0.35466   0.73848   0.00000  Uiso   1.00
C920   C     0.45651   0.64534   0.76136   0.00000  Uiso   1.00
C921   C     0.50001   0.37584   0.74989   0.00000  Uiso   1.00
C922   C     0.50002   0.62415   0.74999   0.00000  Uiso   1.00
C923   C     0.65249   0.47360   0.72191   0.00000  Uiso   1.00
C924   C     0.34749   0.52635   0.77816   0.00000  Uiso   1.00
C925   C     0.36700   0.47365   0.72187   0.00000  Uiso   1.00
C926   C     0.63299   0.52633   0.77817   0.00000  Uiso   1.00
C927   C     0.47063   0.50058   0.83775   0.00000  Uiso   1.00
C928   C     0.52937   0.50151   0.66213   0.00000  Uiso   1.00
C929   C     0.45341   0.50701   0.88767   0.00000  Uiso   1.00
C930   C     0.54560   0.51263   0.61290   0.00000  Uiso   1.00
C931   C     0.39041   0.50688   0.96178   0.00000  Uiso   1.00
C932   C     0.60544   0.54078   0.54446   0.00000  Uiso   1.00
C933   C     0.40592   0.49781   0.91448   0.00000  Uiso   1.00
C934   C     0.59371   0.52177   0.58797   0.00000  Uiso   1.00
C935   C     0.48477   0.52467   0.90791   0.00000  Uiso   1.00
C936   C     0.51084   0.51950   0.59248   0.00000  Uiso   1.00
C937   C     0.47003   0.53271   0.95537   0.00000  Uiso   1.00
C938   C     0.52243   0.53676   0.54831   0.00000  Uiso   1.00
C939   C     0.42183   0.52440   0.98204   0.00000  Uiso   1.00
C940   C     0.57055   0.54649   0.52363   0.00000  Uiso   1.00
C941   C     0.50276   0.54437   0.97800   0.00000  Uiso   1.00
C942   C     0.48770   0.54081   0.52668   0.00000  Uiso   1.00
H943   H     0.36929   0.52898   0.54949   0.00000  Uiso   1.00
H944   H     0.61974   0.56893   0.95883   0.00000  Uiso   1.00
H945   H     0.47476   0.50961   0.61097   0.00000  Uiso   1.00
H946   H     0.52121   0.53035   0.88631   0.00000  Uiso   1.00
H947   H     0.35492   0.49756   0.98317   0.00000  Uiso   1.00
H948   H     0.64186   0.54994   0.52622   0.00000  Uiso   1.00
H949   H     0.42451   0.54260   0.58900   0.00000  Uiso   1.00
H950   H     0.56298   0.56441   0.91800   0.00000  Uiso   1.00
H951   H     0.57741   0.62905   0.72933   0.00000  Uiso   1.00
H952   H     0.42262   0.37094   0.77052   0.00000  Uiso   1.00
H953   H     0.57741   0.37093   0.72922   0.00000  Uiso   1.00
H954   H     0.42262   0.62907   0.77063   0.00000  Uiso   1.00
H955   H     0.64226   0.45236   0.69950   0.00000  Uiso   1.00
H956   H     0.35765   0.54747   0.80074   0.00000  Uiso   1.00
H957   H     0.39281   0.45251   0.69931   0.00000  Uiso   1.00
H958   H     0.60715   0.54742   0.80079   0.00000  Uiso   1.00
N959   N     0.38093   0.50001   0.75001   0.00000  Uiso   1.00
N960   N     0.61907   0.49999   0.74999   0.00000  Uiso   1.00
O961   O     0.46179   0.56108   0.75000   0.00000  Uiso   1.00
O962   O     0.53821   0.43892   0.74999   0.00000  Uiso   1.00
O963   O     0.53823   0.56107   0.75000   0.00000  Uiso   1.00
O964   O     0.46177   0.43893   0.75000   0.00000  Uiso   1.00
O965   O     0.43994   0.50001   0.81612   0.00000  Uiso   1.00
O966   O     0.56006   0.49999   0.68387   0.00000  Uiso   1.00
O967   O     0.51639   0.50000   0.81612   0.00000  Uiso   1.00
O968   O     0.48361   0.50000   0.68388   0.00000  Uiso   1.00
Zn969  Zn    0.44896   0.50001   0.75000   0.00000  Uiso   1.00
Zn970  Zn    0.55104   0.49999   0.75000   0.00000  Uiso   1.00
O971   O     0.62918   0.51367   0.60653   0.00000  Uiso   1.00
C972   C     0.64226   0.47130   0.59853   0.00000  Uiso   1.00
H973   H     0.61252   0.45031   0.61791   0.00000  Uiso   1.00
H974   H     0.33940   0.46527   0.61088   0.00000  Uiso   1.00
H975   H     0.65428   0.46350   0.56101   0.00000  Uiso   1.00
O976   O     0.37759   0.47508   0.89512   0.00000  Uiso   1.00
C977   C     0.33446   0.49631   0.90074   0.00000  Uiso   1.00
H978   H     0.65147   0.48294   0.87620   0.00000  Uiso   1.00
H979   H     0.34029   0.53009   0.89259   0.00000  Uiso   1.00
H980   H     0.64203   0.49147   0.93611   0.00000  Uiso   1.00
C981   C     0.83335   0.57998   0.75002   0.00000  Uiso   1.00
C982   C     0.83334   0.42002   0.74994   0.00000  Uiso   1.00
C983   C     0.77187   0.53898   0.55184   0.00000  Uiso   1.00
C984   C     0.88376   0.55675   0.95433   0.00000  Uiso   1.00
C985   C     0.73952   0.53153   0.52936   0.00000  Uiso   1.00
C986   C     0.91667   0.55964   0.97770   0.00000  Uiso   1.00
C987   C     0.87687   0.64533   0.73855   0.00000  Uiso   1.00
C988   C     0.78984   0.35466   0.76130   0.00000  Uiso   1.00
C989   C     0.87686   0.35466   0.73848   0.00000  Uiso   1.00
C990   C     0.78984   0.64534   0.76136   0.00000  Uiso   1.00
C991   C     0.83335   0.37584   0.74989   0.00000  Uiso   1.00
C992   C     0.83335   0.62415   0.74999   0.00000  Uiso   1.00
C993   C     0.98582   0.47360   0.72191   0.00000  Uiso   1.00
C994   C     0.68082   0.52635   0.77816   0.00000  Uiso   1.00
C995   C     0.70033   0.47365   0.72187   0.00000  Uiso   1.00
C996   C     0.96632   0.52633   0.77817   0.00000  Uiso   1.00
C997   C     0.80397   0.50058   0.83775   0.00000  Uiso   1.00
C998   C     0.86271   0.50151   0.66213   0.00000  Uiso   1.00
C999   C     0.78674   0.50701   0.88767   0.00000  Uiso   1.00
C1000  C     0.87893   0.51263   0.61290   0.00000  Uiso   1.00
C1001  C     0.72375   0.50688   0.96178   0.00000  Uiso   1.00
C1002  C     0.93877   0.54078   0.54446   0.00000  Uiso   1.00
C1003  C     0.73925   0.49781   0.91448   0.00000  Uiso   1.00
C1004  C     0.92704   0.52177   0.58797   0.00000  Uiso   1.00
C1005  C     0.81810   0.52467   0.90791   0.00000  Uiso   1.00
C1006  C     0.84418   0.51950   0.59248   0.00000  Uiso   1.00
C1007  C     0.80336   0.53271   0.95537   0.00000  Uiso   1.00
C1008  C     0.85576   0.53676   0.54831   0.00000  Uiso   1.00
C1009  C     0.75516   0.52440   0.98204   0.00000  Uiso   1.00
C1010  C     0.90388   0.54649   0.52363   0.00000  Uiso   1.00
C1011  C     0.83610   0.54437   0.97800   0.00000  Uiso   1.00
C1012  C     0.82103   0.54081   0.52668   0.00000  Uiso   1.00
H1013  H     0.70262   0.52898   0.54949   0.00000  Uiso   1.00
H1014  H     0.95307   0.56893   0.95883   0.00000  Uiso   1.00
H1015  H     0.80809   0.50961   0.61097   0.00000  Uiso   1.00
H1016  H     0.85455   0.53035   0.88631   0.00000  Uiso   1.00
H1017  H     0.68826   0.49756   0.98317   0.00000  Uiso   1.00
H1018  H     0.97519   0.54994   0.52622   0.00000  Uiso   1.00
H1019  H     0.75784   0.54260   0.58900   0.00000  Uiso   1.00
H1020  H     0.89631   0.56441   0.91800   0.00000  Uiso   1.00
H1021  H     0.91075   0.62905   0.72933   0.00000  Uiso   1.00
H1022  H     0.75595   0.37094   0.77052   0.00000  Uiso   1.00
H1023  H     0.91075   0.37093   0.72922   0.00000  Uiso   1.00
H1024  H     0.75596   0.62907   0.77063   0.00000  Uiso   1.00
H1025  H     0.97559   0.45236   0.69950   0.00000  Uiso   1.00
H1026  H     0.69098   0.54747   0.80074   0.00000  Uiso   1.00
H1027  H     0.72614   0.45251   0.69931   0.00000  Uiso   1.00
H1028  H     0.94049   0.54742   0.80079   0.00000  Uiso   1.00
N1029  N     0.71426   0.50001   0.75001   0.00000  Uiso   1.00
N1030  N     0.95241   0.49999   0.74999   0.00000  Uiso   1.00
O1031  O     0.79512   0.56108   0.75000   0.00000  Uiso   1.00
O1032  O     0.87154   0.43892   0.74999   0.00000  Uiso   1.00
O1033  O     0.87157   0.56107   0.75000   0.00000  Uiso   1.00
O1034  O     0.79510   0.43893   0.75000   0.00000  Uiso   1.00
O1035  O     0.77328   0.50001   0.81612   0.00000  Uiso   1.00
O1036  O     0.89339   0.49999   0.68387   0.00000  Uiso   1.00
O1037  O     0.84972   0.50000   0.81612   0.00000  Uiso   1.00
O1038  O     0.81695   0.50000   0.68388   0.00000  Uiso   1.00
Zn1039 Zn    0.78229   0.50001   0.75000   0.00000  Uiso   1.00
Zn1040 Zn    0.88438   0.49999   0.75000   0.00000  Uiso   1.00
O1041  O     0.96251   0.51367   0.60653   0.00000  Uiso   1.00
C1042  C     0.97559   0.47130   0.59853   0.00000  Uiso   1.00
H1043  H     0.94586   0.45031   0.61791   0.00000  Uiso   1.00
H1044  H     0.67273   0.46527   0.61088   0.00000  Uiso   1.00
H1045  H     0.98761   0.46350   0.56101   0.00000  Uiso   1.00
O1046  O     0.71092   0.47508   0.89512   0.00000  Uiso   1.00
C1047  C     0.66779   0.49631   0.90074   0.00000  Uiso   1.00
H1048  H     0.98481   0.48294   0.87620   0.00000  Uiso   1.00
H1049  H     0.67363   0.53009   0.89259   0.00000  Uiso   1.00
H1050  H     0.97536   0.49147   0.93611   0.00000  Uiso   1.00
C1051  C     0.16668   0.91331   0.75002   0.00000  Uiso   1.00
C1052  C     0.16667   0.75336   0.74994   0.00000  Uiso   1.00
C1053  C     0.10520   0.87232   0.55184   0.00000  Uiso   1.00
C1054  C     0.21710   0.89008   0.95433   0.00000  Uiso   1.00
C1055  C     0.07285   0.86487   0.52936   0.00000  Uiso   1.00
C1056  C     0.25000   0.89297   0.97770   0.00000  Uiso   1.00
C1057  C     0.21020   0.97866   0.73855   0.00000  Uiso   1.00
C1058  C     0.12317   0.68800   0.76130   0.00000  Uiso   1.00
C1059  C     0.21020   0.68799   0.73848   0.00000  Uiso   1.00
C1060  C     0.12317   0.97867   0.76136   0.00000  Uiso   1.00
C1061  C     0.16668   0.70918   0.74989   0.00000  Uiso   1.00
C1062  C     0.16669   0.95749   0.74999   0.00000  Uiso   1.00
C1063  C     0.31916   0.80694   0.72191   0.00000  Uiso   1.00
C1064  C     0.01415   0.85968   0.77816   0.00000  Uiso   1.00
C1065  C     0.03367   0.80698   0.72187   0.00000  Uiso   1.00
C1066  C     0.29965   0.85966   0.77817   0.00000  Uiso   1.00
C1067  C     0.13730   0.83391   0.83775   0.00000  Uiso   1.00
C1068  C     0.19604   0.83484   0.66213   0.00000  Uiso   1.00
C1069  C     0.12008   0.84034   0.88767   0.00000  Uiso   1.00
C1070  C     0.21227   0.84597   0.61290   0.00000  Uiso   1.00
C1071  C     0.05708   0.84021   0.96178   0.00000  Uiso   1.00
C1072  C     0.27210   0.87411   0.54446   0.00000  Uiso   1.00
C1073  C     0.07259   0.83114   0.91448   0.00000  Uiso   1.00
C1074  C     0.26038   0.85510   0.58797   0.00000  Uiso   1.00
C1075  C     0.15144   0.85800   0.90791   0.00000  Uiso   1.00
C1076  C     0.17751   0.85283   0.59248   0.00000  Uiso   1.00
C1077  C     0.13670   0.86605   0.95537   0.00000  Uiso   1.00
C1078  C     0.18909   0.87009   0.54831   0.00000  Uiso   1.00
C1079  C     0.08849   0.85773   0.98204   0.00000  Uiso   1.00
C1080  C     0.23722   0.87982   0.52363   0.00000  Uiso   1.00
C1081  C     0.16943   0.87770   0.97800   0.00000  Uiso   1.00
C1082  C     0.15436   0.87414   0.52668   0.00000  Uiso   1.00
H1083  H     0.03595   0.86231   0.54949   0.00000  Uiso   1.00
H1084  H     0.28640   0.90226   0.95883   0.00000  Uiso   1.00
H1085  H     0.14142   0.84295   0.61097   0.00000  Uiso   1.00
H1086  H     0.18788   0.86368   0.88631   0.00000  Uiso   1.00
H1087  H     0.02159   0.83089   0.98317   0.00000  Uiso   1.00
H1088  H     0.30852   0.88328   0.52622   0.00000  Uiso   1.00
H1089  H     0.09118   0.87593   0.58900   0.00000  Uiso   1.00
H1090  H     0.22965   0.89774   0.91800   0.00000  Uiso   1.00
H1091  H     0.24408   0.96238   0.72933   0.00000  Uiso   1.00
H1092  H     0.08929   0.70427   0.77052   0.00000  Uiso   1.00
H1093  H     0.24408   0.70426   0.72922   0.00000  Uiso   1.00
H1094  H     0.08929   0.96240   0.77063   0.00000  Uiso   1.00
H1095  H     0.30893   0.78569   0.69950   0.00000  Uiso   1.00
H1096  H     0.02432   0.88080   0.80074   0.00000  Uiso   1.00
H1097  H     0.05947   0.78585   0.69931   0.00000  Uiso   1.00
H1098  H     0.27382   0.88075   0.80079   0.00000  Uiso   1.00
N1099  N     0.04759   0.83334   0.75001   0.00000  Uiso   1.00
N1100  N     0.28574   0.83332   0.74999   0.00000  Uiso   1.00
O1101  O     0.12846   0.89442   0.75000   0.00000  Uiso   1.00
O1102  O     0.20488   0.77225   0.74999   0.00000  Uiso   1.00
O1103  O     0.20490   0.89441   0.75000   0.00000  Uiso   1.00
O1104  O     0.12843   0.77226   0.75000   0.00000  Uiso   1.00
O1105  O     0.10661   0.83334   0.81612   0.00000  Uiso   1.00
O1106  O     0.22672   0.83333   0.68387   0.00000  Uiso   1.00
O1107  O     0.18305   0.83333   0.81612   0.00000  Uiso   1.00
O1108  O     0.15028   0.83334   0.68388   0.00000  Uiso   1.00
Zn1109 Zn    0.11562   0.83334   0.75000   0.00000  Uiso   1.00
Zn1110 Zn    0.21771   0.83333   0.75000   0.00000  Uiso   1.00
O1111  O     0.29584   0.84700   0.60653   0.00000  Uiso   1.00
C1112  C     0.30892   0.80464   0.59853   0.00000  Uiso   1.00
H1113  H     0.27919   0.78364   0.61791   0.00000  Uiso   1.00
H1114  H     0.00606   0.79860   0.61088   0.00000  Uiso   1.00
H1115  H     0.32094   0.79683   0.56101   0.00000  Uiso   1.00
O1116  O     0.04426   0.80841   0.89512   0.00000  Uiso   1.00
C1117  C     0.00113   0.82965   0.90074   0.00000  Uiso   1.00
H1118  H     0.31814   0.81627   0.87620   0.00000  Uiso   1.00
H1119  H     0.00696   0.86343   0.89259   0.00000  Uiso   1.00
H1120  H     0.30869   0.82480   0.93611   0.00000  Uiso   1.00
C1121  C     0.50001   0.91331   0.75002   0.00000  Uiso   1.00
C1122  C     0.50000   0.75336   0.74994   0.00000  Uiso   1.00
C1123  C     0.43853   0.87232   0.55184   0.00000  Uiso   1.00
C1124  C     0.55043   0.89008   0.95433   0.00000  Uiso   1.00
C1125  C     0.40618   0.86487   0.52936   0.00000  Uiso   1.00
C1126  C     0.58334   0.89297   0.97770   0.00000  Uiso   1.00
C1127  C     0.54353   0.97866   0.73855   0.00000  Uiso   1.00
C1128  C     0.45650   0.68800   0.76130   0.00000  Uiso   1.00
C1129  C     0.54353   0.68799   0.73848   0.00000  Uiso   1.00
C1130  C     0.45651   0.97867   0.76136   0.00000  Uiso   1.00
C1131  C     0.50001   0.70918   0.74989   0.00000  Uiso   1.00
C1132  C     0.50002   0.95749   0.74999   0.00000  Uiso   1.00
C1133  C     0.65249   0.80694   0.72191   0.00000  Uiso   1.00
C1134  C     0.34749   0.85968   0.77816   0.00000  Uiso   1.00
C1135  C     0.36700   0.80698   0.72187   0.00000  Uiso   1.00
C1136  C     0.63299   0.85966   0.77817   0.00000  Uiso   1.00
C1137  C     0.47063   0.83391   0.83775   0.00000  Uiso   1.00
C1138  C     0.52937   0.83484   0.66213   0.00000  Uiso   1.00
C1139  C     0.45341   0.84034   0.88767   0.00000  Uiso   1.00
C1140  C     0.54560   0.84597   0.61290   0.00000  Uiso   1.00
C1141  C     0.39041   0.84021   0.96178   0.00000  Uiso   1.00
C1142  C     0.60544   0.87411   0.54446   0.00000  Uiso   1.00
C1143  C     0.40592   0.83114   0.91448   0.00000  Uiso   1.00
C1144  C     0.59371   0.85510   0.58797   0.00000  Uiso   1.00
C1145  C     0.48477   0.85800   0.90791   0.00000  Uiso   1.00
C1146  C     0.51084   0.85283   0.59248   0.00000  Uiso   1.00
C1147  C     0.47003   0.86605   0.95537   0.00000  Uiso   1.00
C1148  C     0.52243   0.87009   0.54831   0.00000  Uiso   1.00
C1149  C     0.42183   0.85773   0.98204   0.00000  Uiso   1.00
C1150  C     0.57055   0.87982   0.52363   0.00000  Uiso   1.00
C1151  C     0.50276   0.87770   0.97800   0.00000  Uiso   1.00
C1152  C     0.48770   0.87414   0.52668   0.00000  Uiso   1.00
H1153  H     0.36929   0.86231   0.54949   0.00000  Uiso   1.00
H1154  H     0.61974   0.90226   0.95883   0.00000  Uiso   1.00
H1155  H     0.47476   0.84295   0.61097   0.00000  Uiso   1.00
H1156  H     0.52121   0.86368   0.88631   0.00000  Uiso   1.00
H1157  H     0.35492   0.83089   0.98317   0.00000  Uiso   1.00
H1158  H     0.64186   0.88328   0.52622   0.00000  Uiso   1.00
H1159  H     0.42451   0.87593   0.58900   0.00000  Uiso   1.00
H1160  H     0.56298   0.89774   0.91800   0.00000  Uiso   1.00
H1161  H     0.57741   0.96238   0.72933   0.00000  Uiso   1.00
H1162  H     0.42262   0.70427   0.77052   0.00000  Uiso   1.00
H1163  H     0.57741   0.70426   0.72922   0.00000  Uiso   1.00
H1164  H     0.42262   0.96240   0.77063   0.00000  Uiso   1.00
H1165  H     0.64226   0.78569   0.69950   0.00000  Uiso   1.00
H1166  H     0.35765   0.88080   0.80074   0.00000  Uiso   1.00
H1167  H     0.39281   0.78585   0.69931   0.00000  Uiso   1.00
H1168  H     0.60715   0.88075   0.80079   0.00000  Uiso   1.00
N1169  N     0.38093   0.83334   0.75001   0.00000  Uiso   1.00
N1170  N     0.61907   0.83332   0.74999   0.00000  Uiso   1.00
O1171  O     0.46179   0.89442   0.75000   0.00000  Uiso   1.00
O1172  O     0.53821   0.77225   0.74999   0.00000  Uiso   1.00
O1173  O     0.53823   0.89441   0.75000   0.00000  Uiso   1.00
O1174  O     0.46177   0.77226   0.75000   0.00000  Uiso   1.00
O1175  O     0.43994   0.83334   0.81612   0.00000  Uiso   1.00
O1176  O     0.56006   0.83333   0.68387   0.00000  Uiso   1.00
O1177  O     0.51639   0.83333   0.81612   0.00000  Uiso   1.00
O1178  O     0.48361   0.83334   0.68388   0.00000  Uiso   1.00
Zn1179 Zn    0.44896   0.83334   0.75000   0.00000  Uiso   1.00
Zn1180 Zn    0.55104   0.83333   0.75000   0.00000  Uiso   1.00
O1181  O     0.62918   0.84700   0.60653   0.00000  Uiso   1.00
C1182  C     0.64226   0.80464   0.59853   0.00000  Uiso   1.00
H1183  H     0.61252   0.78364   0.61791   0.00000  Uiso   1.00
H1184  H     0.33940   0.79860   0.61088   0.00000  Uiso   1.00
H1185  H     0.65428   0.79683   0.56101   0.00000  Uiso   1.00
O1186  O     0.37759   0.80841   0.89512   0.00000  Uiso   1.00
C1187  C     0.33446   0.82965   0.90074   0.00000  Uiso   1.00
H1188  H     0.65147   0.81627   0.87620   0.00000  Uiso   1.00
H1189  H     0.34029   0.86343   0.89259   0.00000  Uiso   1.00
H1190  H     0.64203   0.82480   0.93611   0.00000  Uiso   1.00
C1191  C     0.83335   0.91331   0.75002   0.00000  Uiso   1.00
C1192  C     0.83334   0.75336   0.74994   0.00000  Uiso   1.00
C1193  C     0.77187   0.87232   0.55184   0.00000  Uiso   1.00
C1194  C     0.88376   0.89008   0.95433   0.00000  Uiso   1.00
C1195  C     0.73952   0.86487   0.52936   0.00000  Uiso   1.00
C1196  C     0.91667   0.89297   0.97770   0.00000  Uiso   1.00
C1197  C     0.87687   0.97866   0.73855   0.00000  Uiso   1.00
C1198  C     0.78984   0.68800   0.76130   0.00000  Uiso   1.00
C1199  C     0.87686   0.68799   0.73848   0.00000  Uiso   1.00
C1200  C     0.78984   0.97867   0.76136   0.00000  Uiso   1.00
C1201  C     0.83335   0.70918   0.74989   0.00000  Uiso   1.00
C1202  C     0.83335   0.95749   0.74999   0.00000  Uiso   1.00
C1203  C     0.98582   0.80694   0.72191   0.00000  Uiso   1.00
C1204  C     0.68082   0.85968   0.77816   0.00000  Uiso   1.00
C1205  C     0.70033   0.80698   0.72187   0.00000  Uiso   1.00
C1206  C     0.96632   0.85966   0.77817   0.00000  Uiso   1.00
C1207  C     0.80397   0.83391   0.83775   0.00000  Uiso   1.00
C1208  C     0.86271   0.83484   0.66213   0.00000  Uiso   1.00
C1209  C     0.78674   0.84034   0.88767   0.00000  Uiso   1.00
C1210  C     0.87893   0.84597   0.61290   0.00000  Uiso   1.00
C1211  C     0.72375   0.84021   0.96178   0.00000  Uiso   1.00
C1212  C     0.93877   0.87411   0.54446   0.00000  Uiso   1.00
C1213  C     0.73925   0.83114   0.91448   0.00000  Uiso   1.00
C1214  C     0.92704   0.85510   0.58797   0.00000  Uiso   1.00
C1215  C     0.81810   0.85800   0.90791   0.00000  Uiso   1.00
C1216  C     0.84418   0.85283   0.59248   0.00000  Uiso   1.00
C1217  C     0.80336   0.86605   0.95537   0.00000  Uiso   1.00
C1218  C     0.85576   0.87009   0.54831   0.00000  Uiso   1.00
C1219  C     0.75516   0.85773   0.98204   0.00000  Uiso   1.00
C1220  C     0.90388   0.87982   0.52363   0.00000  Uiso   1.00
C1221  C     0.83610   0.87770   0.97800   0.00000  Uiso   1.00
C1222  C     0.82103   0.87414   0.52668   0.00000  Uiso   1.00
H1223  H     0.70262   0.86231   0.54949   0.00000  Uiso   1.00
H1224  H     0.95307   0.90226   0.95883   0.00000  Uiso   1.00
H1225  H     0.80809   0.84295   0.61097   0.00000  Uiso   1.00
H1226  H     0.85455   0.86368   0.88631   0.00000  Uiso   1.00
H1227  H     0.68826   0.83089   0.98317   0.00000  Uiso   1.00
H1228  H     0.97519   0.88328   0.52622   0.00000  Uiso   1.00
H1229  H     0.75784   0.87593   0.58900   0.00000  Uiso   1.00
H1230  H     0.89631   0.89774   0.91800   0.00000  Uiso   1.00
H1231  H     0.91075   0.96238   0.72933   0.00000  Uiso   1.00
H1232  H     0.75595   0.70427   0.77052   0.00000  Uiso   1.00
H1233  H     0.91075   0.70426   0.72922   0.00000  Uiso   1.00
H1234  H     0.75596   0.96240   0.77063   0.00000  Uiso   1.00
H1235  H     0.97559   0.78569   0.69950   0.00000  Uiso   1.00
H1236  H     0.69098   0.88080   0.80074   0.00000  Uiso   1.00
H1237  H     0.72614   0.78585   0.69931   0.00000  Uiso   1.00
H1238  H     0.94049   0.88075   0.80079   0.00000  Uiso   1.00
N1239  N     0.71426   0.83334   0.75001   0.00000  Uiso   1.00
N1240  N     0.95241   0.83332   0.74999   0.00000  Uiso   1.00
O1241  O     0.79512   0.89442   0.75000   0.00000  Uiso   1.00
O1242  O     0.87154   0.77225   0.74999   0.00000  Uiso   1.00
O1243  O     0.87157   0.89441   0.75000   0.00000  Uiso   1.00
O1244  O     0.79510   0.77226   0.75000   0.00000  Uiso   1.00
O1245  O     0.77328   0.83334   0.81612   0.00000  Uiso   1.00
O1246  O     0.89339   0.83333   0.68387   0.00000  Uiso   1.00
O1247  O     0.84972   0.83333   0.81612   0.00000  Uiso   1.00
O1248  O     0.81695   0.83334   0.68388   0.00000  Uiso   1.00
Zn1249 Zn    0.78229   0.83334   0.75000   0.00000  Uiso   1.00
Zn1250 Zn    0.88438   0.83333   0.75000   0.00000  Uiso   1.00
O1251  O     0.96251   0.84700   0.60653   0.00000  Uiso   1.00
C1252  C     0.97559   0.80464   0.59853   0.00000  Uiso   1.00
H1253  H     0.94586   0.78364   0.61791   0.00000  Uiso   1.00
H1254  H     0.67273   0.79860   0.61088   0.00000  Uiso   1.00
H1255  H     0.98761   0.79683   0.56101   0.00000  Uiso   1.00
O1256  O     0.71092   0.80841   0.89512   0.00000  Uiso   1.00
C1257  C     0.66779   0.82965   0.90074   0.00000  Uiso   1.00
H1258  H     0.98481   0.81627   0.87620   0.00000  Uiso   1.00
H1259  H     0.67363   0.86343   0.89259   0.00000  Uiso   1.00
H1260  H     0.97536   0.82480   0.93611   0.00000  Uiso   1.00
loop_
_geom_bond_atom_site_label_1
_geom_bond_atom_site_label_2
_geom_bond_distance
_geom_bond_site_symmetry_2
_ccdc_geom_bond_type
C1     O51     1.287   .     A
C1     C12     1.419   .     S
C1     O53     1.287   .     A
C2     O52     1.287   .     A
C2     C11     1.419   .     S
C2     O54     1.287   .     A
C3     H39     1.081   .     S
C3     C32     1.405   .     A
C3     C5      1.378   .     A
C4     C6      1.396   .     A
C4     C31     1.414   .     A
C4     H40     1.079   .     S
C5     H33     1.065   .     S
C5     C659    1.387   1_554 S
C6     H34     1.083   .     S
C6     C660    1.397   .     S
C7     C12     1.397   .     A
C7     H41     1.084   .     S
C7     C219    1.370   .     S
C8     C11     1.397   .     A
C8     H42     1.084   .     S
C8     C430    1.370   1_545 S
C9     C11     1.397   .     A
C9     H43     1.084   .     S
C9     C427    1.370   1_545 S
C10    C12     1.397   .     A
C10    H44     1.084   .     S
C10    C218    1.370   .     S
C13    H45     1.082   .     S
C13    N50     1.368   .     A
C13    C85     1.420   .     S
C14    H46     1.082   .     S
C14    N49     1.368   .     A
C14    C156    1.420   1_455 S
C15    N49     1.368   .     A
C15    H47     1.082   .     S
C15    C153    1.420   1_455 S
C16    H48     1.082   .     S
C16    N50     1.368   .     A
C16    C84     1.420   .     S
C17    O55     1.295   .     A
C17    C19     1.458   .     S
C17    O57     1.297   .     A
C18    O56     1.299   .     A
C18    C20     1.468   .     S
C18    O58     1.298   .     A
C19    C23     1.405   .     A
C19    C25     1.400   .     A
C20    C26     1.393   .     A
C20    C24     1.407   .     A
C21    H37     1.081   .     S
C21    C29     1.400   .     A
C21    C23     1.398   .     A
C22    C24     1.403   .     A
C22    H38     1.079   .     S
C22    C30     1.400   .     A
C23    O66     1.388   .     S
C24    O61     1.380   .     S
C25    H36     1.078   .     S
C25    C27     1.397   .     A
C26    C28     1.397   .     A
C26    H35     1.079   .     S
C27    C29     1.416   .     A
C27    C31     1.421   .     A
C28    C30     1.410   .     A
C28    C32     1.408   .     A
C29    C635    1.387   .     S
C30    C636    1.397   1_554 S
C31    C662    1.413   .     S
C32    C661    1.413   1_554 S
N49    Zn59    2.020   .     S
N50    Zn60    2.020   .     S
O51    Zn59    1.998   .     S
O52    Zn60    1.998   .     S
O53    Zn60    1.999   .     S
O54    Zn59    1.999   .     S
O55    Zn59    1.956   .     S
O56    Zn60    1.956   .     S
O57    Zn60    1.943   .     S
O58    Zn59    1.943   .     S
O61    C62     1.414   .     S
C62    H63     1.112   .     S
C62    H65     1.113   .     S
C62    H134    1.109   .     S
H64    C202    1.109   1_455 S
O66    C67     1.410   .     S
C67    H69     1.114   .     S
C67    H208    1.109   1_455 S
C67    H210    1.110   1_455 S
H68    C137    1.109   .     S
H70    C137    1.110   .     S
C71    O121    1.287   .     A
C71    C82     1.419   .     S
C71    O123    1.287   .     A
C72    O122    1.287   .     A
C72    C81     1.419   .     S
C72    O124    1.287   .     A
C73    H109    1.081   .     S
C73    C102    1.405   .     A
C73    C75     1.378   .     A
C74    C76     1.396   .     A
C74    C101    1.414   .     A
C74    H110    1.079   .     S
C75    H103    1.065   .     S
C75    C729    1.387   1_554 S
C76    H104    1.083   .     S
C76    C730    1.397   .     S
C77    C82     1.397   .     A
C77    H111    1.084   .     S
C77    C289    1.370   .     S
C78    C81     1.397   .     A
C78    H112    1.084   .     S
C78    C500    1.370   1_545 S
C79    C81     1.397   .     A
C79    H113    1.084   .     S
C79    C497    1.370   1_545 S
C80    C82     1.397   .     A
C80    H114    1.084   .     S
C80    C288    1.370   .     S
C83    H115    1.082   .     S
C83    N120    1.368   .     A
C83    C155    1.420   .     S
C84    H116    1.082   .     S
C84    N119    1.368   .     A
C85    N119    1.368   .     A
C85    H117    1.082   .     S
C86    H118    1.082   .     S
C86    N120    1.368   .     A
C86    C154    1.420   .     S
C87    O125    1.295   .     A
C87    C89     1.458   .     S
C87    O127    1.297   .     A
C88    O126    1.299   .     A
C88    C90     1.468   .     S
C88    O128    1.298   .     A
C89    C93     1.405   .     A
C89    C95     1.400   .     A
C90    C96     1.393   .     A
C90    C94     1.407   .     A
C91    H107    1.081   .     S
C91    C99     1.400   .     A
C91    C93     1.398   .     A
C92    C94     1.403   .     A
C92    H108    1.079   .     S
C92    C100    1.400   .     A
C93    O136    1.388   .     S
C94    O131    1.380   .     S
C95    H106    1.078   .     S
C95    C97     1.397   .     A
C96    C98     1.397   .     A
C96    H105    1.079   .     S
C97    C99     1.416   .     A
C97    C101    1.421   .     A
C98    C100    1.410   .     A
C98    C102    1.408   .     A
C99    C705    1.387   .     S
C100   C706    1.397   1_554 S
C101   C732    1.413   .     S
C102   C731    1.413   1_554 S
N119   Zn129   2.020   .     S
N120   Zn130   2.020   .     S
O121   Zn129   1.998   .     S
O122   Zn130   1.998   .     S
O123   Zn130   1.999   .     S
O124   Zn129   1.999   .     S
O125   Zn129   1.956   .     S
O126   Zn130   1.956   .     S
O127   Zn130   1.943   .     S
O128   Zn129   1.943   .     S
O131   C132    1.414   .     S
C132   H133    1.112   .     S
C132   H135    1.113   .     S
C132   H204    1.109   .     S
O136   C137    1.410   .     S
C137   H139    1.114   .     S
H138   C207    1.109   .     S
H140   C207    1.110   .     S
C141   O191    1.287   .     A
C141   C152    1.419   .     S
C141   O193    1.287   .     A
C142   O192    1.287   .     A
C142   C151    1.419   .     S
C142   O194    1.287   .     A
C143   H179    1.081   .     S
C143   C172    1.405   .     A
C143   C145    1.378   .     A
C144   C146    1.396   .     A
C144   C171    1.414   .     A
C144   H180    1.079   .     S
C145   H173    1.065   .     S
C145   C799    1.387   1_554 S
C146   H174    1.083   .     S
C146   C800    1.397   .     S
C147   C152    1.397   .     A
C147   H181    1.084   .     S
C147   C359    1.370   .     S
C148   C151    1.397   .     A
C148   H182    1.084   .     S
C148   C570    1.370   1_545 S
C149   C151    1.397   .     A
C149   H183    1.084   .     S
C149   C567    1.370   1_545 S
C150   C152    1.397   .     A
C150   H184    1.084   .     S
C150   C358    1.370   .     S
C153   H185    1.082   .     S
C153   N190    1.368   .     A
C153   C15     1.420   1_655 S
C154   H186    1.082   .     S
C154   N189    1.368   .     A
C155   N189    1.368   .     A
C155   H187    1.082   .     S
C156   H188    1.082   .     S
C156   N190    1.368   .     A
C156   C14     1.420   1_655 S
C157   O195    1.295   .     A
C157   C159    1.458   .     S
C157   O197    1.297   .     A
C158   O196    1.299   .     A
C158   C160    1.468   .     S
C158   O198    1.298   .     A
C159   C163    1.405   .     A
C159   C165    1.400   .     A
C160   C166    1.393   .     A
C160   C164    1.407   .     A
C161   H177    1.081   .     S
C161   C169    1.400   .     A
C161   C163    1.398   .     A
C162   C164    1.403   .     A
C162   H178    1.079   .     S
C162   C170    1.400   .     A
C163   O206    1.388   .     S
C164   O201    1.380   .     S
C165   H176    1.078   .     S
C165   C167    1.397   .     A
C166   C168    1.397   .     A
C166   H175    1.079   .     S
C167   C169    1.416   .     A
C167   C171    1.421   .     A
C168   C170    1.410   .     A
C168   C172    1.408   .     A
C169   C775    1.387   .     S
C170   C776    1.397   1_554 S
C171   C802    1.413   .     S
C172   C801    1.413   1_554 S
N189   Zn199   2.020   .     S
N190   Zn200   2.020   .     S
O191   Zn199   1.998   .     S
O192   Zn200   1.998   .     S
O193   Zn200   1.999   .     S
O194   Zn199   1.999   .     S
O195   Zn199   1.956   .     S
O196   Zn200   1.956   .     S
O197   Zn200   1.943   .     S
O198   Zn199   1.943   .     S
O201   C202    1.414   .     S
C202   H203    1.112   .     S
C202   H205    1.113   .     S
C202   H64     1.109   1_655 S
O206   C207    1.410   .     S
C207   H209    1.114   .     S
H208   C67     1.109   1_655 S
H210   C67     1.110   1_655 S
C211   O261    1.287   .     A
C211   C222    1.419   .     S
C211   O263    1.287   .     A
C212   O262    1.287   .     A
C212   C221    1.419   .     S
C212   O264    1.287   .     A
C213   H249    1.081   .     S
C213   C242    1.405   .     A
C213   C215    1.378   .     A
C214   C216    1.396   .     A
C214   C241    1.414   .     A
C214   H250    1.079   .     S
C215   H243    1.065   .     S
C215   C869    1.387   1_554 S
C216   H244    1.083   .     S
C216   C870    1.397   .     S
C217   C222    1.397   .     A
C217   H251    1.084   .     S
C217   C429    1.370   .     S
C218   C221    1.397   .     A
C218   H252    1.084   .     S
C219   C221    1.397   .     A
C219   H253    1.084   .     S
C220   C222    1.397   .     A
C220   H254    1.084   .     S
C220   C428    1.370   .     S
C223   H255    1.082   .     S
C223   N260    1.368   .     A
C223   C295    1.420   .     S
C224   H256    1.082   .     S
C224   N259    1.368   .     A
C224   C366    1.420   1_455 S
C225   N259    1.368   .     A
C225   H257    1.082   .     S
C225   C363    1.420   1_455 S
C226   H258    1.082   .     S
C226   N260    1.368   .     A
C226   C294    1.420   .     S
C227   O265    1.295   .     A
C227   C229    1.458   .     S
C227   O267    1.297   .     A
C228   O266    1.299   .     A
C228   C230    1.468   .     S
C228   O268    1.298   .     A
C229   C233    1.405   .     A
C229   C235    1.400   .     A
C230   C236    1.393   .     A
C230   C234    1.407   .     A
C231   H247    1.081   .     S
C231   C239    1.400   .     A
C231   C233    1.398   .     A
C232   C234    1.403   .     A
C232   H248    1.079   .     S
C232   C240    1.400   .     A
C233   O276    1.388   .     S
C234   O271    1.380   .     S
C235   H246    1.078   .     S
C235   C237    1.397   .     A
C236   C238    1.397   .     A
C236   H245    1.079   .     S
C237   C239    1.416   .     A
C237   C241    1.421   .     A
C238   C240    1.410   .     A
C238   C242    1.408   .     A
C239   C845    1.387   .     S
C240   C846    1.397   1_554 S
C241   C872    1.413   .     S
C242   C871    1.413   1_554 S
N259   Zn269   2.020   .     S
N260   Zn270   2.020   .     S
O261   Zn269   1.998   .     S
O262   Zn270   1.998   .     S
O263   Zn270   1.999   .     S
O264   Zn269   1.999   .     S
O265   Zn269   1.956   .     S
O266   Zn270   1.956   .     S
O267   Zn270   1.943   .     S
O268   Zn269   1.943   .     S
O271   C272    1.414   .     S
C272   H273    1.112   .     S
C272   H275    1.113   .     S
C272   H344    1.109   .     S
H274   C412    1.109   1_455 S
O276   C277    1.410   .     S
C277   H279    1.114   .     S
C277   H418    1.109   1_455 S
C277   H420    1.110   1_455 S
H278   C347    1.109   .     S
H280   C347    1.110   .     S
C281   O331    1.287   .     A
C281   C292    1.419   .     S
C281   O333    1.287   .     A
C282   O332    1.287   .     A
C282   C291    1.419   .     S
C282   O334    1.287   .     A
C283   H319    1.081   .     S
C283   C312    1.405   .     A
C283   C285    1.378   .     A
C284   C286    1.396   .     A
C284   C311    1.414   .     A
C284   H320    1.079   .     S
C285   H313    1.065   .     S
C285   C939    1.387   1_554 S
C286   H314    1.083   .     S
C286   C940    1.397   .     S
C287   C292    1.397   .     A
C287   H321    1.084   .     S
C287   C499    1.370   .     S
C288   C291    1.397   .     A
C288   H322    1.084   .     S
C289   C291    1.397   .     A
C289   H323    1.084   .     S
C290   C292    1.397   .     A
C290   H324    1.084   .     S
C290   C498    1.370   .     S
C293   H325    1.082   .     S
C293   N330    1.368   .     A
C293   C365    1.420   .     S
C294   H326    1.082   .     S
C294   N329    1.368   .     A
C295   N329    1.368   .     A
C295   H327    1.082   .     S
C296   H328    1.082   .     S
C296   N330    1.368   .     A
C296   C364    1.420   .     S
C297   O335    1.295   .     A
C297   C299    1.458   .     S
C297   O337    1.297   .     A
C298   O336    1.299   .     A
C298   C300    1.468   .     S
C298   O338    1.298   .     A
C299   C303    1.405   .     A
C299   C305    1.400   .     A
C300   C306    1.393   .     A
C300   C304    1.407   .     A
C301   H317    1.081   .     S
C301   C309    1.400   .     A
C301   C303    1.398   .     A
C302   C304    1.403   .     A
C302   H318    1.079   .     S
C302   C310    1.400   .     A
C303   O346    1.388   .     S
C304   O341    1.380   .     S
C305   H316    1.078   .     S
C305   C307    1.397   .     A
C306   C308    1.397   .     A
C306   H315    1.079   .     S
C307   C309    1.416   .     A
C307   C311    1.421   .     A
C308   C310    1.410   .     A
C308   C312    1.408   .     A
C309   C915    1.387   .     S
C310   C916    1.397   1_554 S
C311   C942    1.413   .     S
C312   C941    1.413   1_554 S
N329   Zn339   2.020   .     S
N330   Zn340   2.020   .     S
O331   Zn339   1.998   .     S
O332   Zn340   1.998   .     S
O333   Zn340   1.999   .     S
O334   Zn339   1.999   .     S
O335   Zn339   1.956   .     S
O336   Zn340   1.956   .     S
O337   Zn340   1.943   .     S
O338   Zn339   1.943   .     S
O341   C342    1.414   .     S
C342   H343    1.112   .     S
C342   H345    1.113   .     S
C342   H414    1.109   .     S
O346   C347    1.410   .     S
C347   H349    1.114   .     S
H348   C417    1.109   .     S
H350   C417    1.110   .     S
C351   O401    1.287   .     A
C351   C362    1.419   .     S
C351   O403    1.287   .     A
C352   O402    1.287   .     A
C352   C361    1.419   .     S
C352   O404    1.287   .     A
C353   H389    1.081   .     S
C353   C382    1.405   .     A
C353   C355    1.378   .     A
C354   C356    1.396   .     A
C354   C381    1.414   .     A
C354   H390    1.079   .     S
C355   H383    1.065   .     S
C355   C1009   1.387   1_554 S
C356   H384    1.083   .     S
C356   C1010   1.397   .     S
C357   C362    1.397   .     A
C357   H391    1.084   .     S
C357   C569    1.370   .     S
C358   C361    1.397   .     A
C358   H392    1.084   .     S
C359   C361    1.397   .     A
C359   H393    1.084   .     S
C360   C362    1.397   .     A
C360   H394    1.084   .     S
C360   C568    1.370   .     S
C363   H395    1.082   .     S
C363   N400    1.368   .     A
C363   C225    1.420   1_655 S
C364   H396    1.082   .     S
C364   N399    1.368   .     A
C365   N399    1.368   .     A
C365   H397    1.082   .     S
C366   H398    1.082   .     S
C366   N400    1.368   .     A
C366   C224    1.420   1_655 S
C367   O405    1.295   .     A
C367   C369    1.458   .     S
C367   O407    1.297   .     A
C368   O406    1.299   .     A
C368   C370    1.468   .     S
C368   O408    1.298   .     A
C369   C373    1.405   .     A
C369   C375    1.400   .     A
C370   C376    1.393   .     A
C370   C374    1.407   .     A
C371   H387    1.081   .     S
C371   C379    1.400   .     A
C371   C373    1.398   .     A
C372   C374    1.403   .     A
C372   H388    1.079   .     S
C372   C380    1.400   .     A
C373   O416    1.388   .     S
C374   O411    1.380   .     S
C375   H386    1.078   .     S
C375   C377    1.397   .     A
C376   C378    1.397   .     A
C376   H385    1.079   .     S
C377   C379    1.416   .     A
C377   C381    1.421   .     A
C378   C380    1.410   .     A
C378   C382    1.408   .     A
C379   C985    1.387   .     S
C380   C986    1.397   1_554 S
C381   C1012   1.413   .     S
C382   C1011   1.413   1_554 S
N399   Zn409   2.020   .     S
N400   Zn410   2.020   .     S
O401   Zn409   1.998   .     S
O402   Zn410   1.998   .     S
O403   Zn410   1.999   .     S
O404   Zn409   1.999   .     S
O405   Zn409   1.956   .     S
O406   Zn410   1.956   .     S
O407   Zn410   1.943   .     S
O408   Zn409   1.943   .     S
O411   C412    1.414   .     S
C412   H413    1.112   .     S
C412   H415    1.113   .     S
C412   H274    1.109   1_655 S
O416   C417    1.410   .     S
C417   H419    1.114   .     S
H418   C277    1.109   1_655 S
H420   C277    1.110   1_655 S
C421   O471    1.287   .     A
C421   C432    1.419   .     S
C421   O473    1.287   .     A
C422   O472    1.287   .     A
C422   C431    1.419   .     S
C422   O474    1.287   .     A
C423   H459    1.081   .     S
C423   C452    1.405   .     A
C423   C425    1.378   .     A
C424   C426    1.396   .     A
C424   C451    1.414   .     A
C424   H460    1.079   .     S
C425   H453    1.065   .     S
C425   C1079   1.387   1_554 S
C426   H454    1.083   .     S
C426   C1080   1.397   .     S
C427   C432    1.397   .     A
C427   H461    1.084   .     S
C427   C9      1.370   1_565 S
C428   C431    1.397   .     A
C428   H462    1.084   .     S
C429   C431    1.397   .     A
C429   H463    1.084   .     S
C430   C432    1.397   .     A
C430   H464    1.084   .     S
C430   C8      1.370   1_565 S
C433   H465    1.082   .     S
C433   N470    1.368   .     A
C433   C505    1.420   .     S
C434   H466    1.082   .     S
C434   N469    1.368   .     A
C434   C576    1.420   1_455 S
C435   N469    1.368   .     A
C435   H467    1.082   .     S
C435   C573    1.420   1_455 S
C436   H468    1.082   .     S
C436   N470    1.368   .     A
C436   C504    1.420   .     S
C437   O475    1.295   .     A
C437   C439    1.458   .     S
C437   O477    1.297   .     A
C438   O476    1.299   .     A
C438   C440    1.468   .     S
C438   O478    1.298   .     A
C439   C443    1.405   .     A
C439   C445    1.400   .     A
C440   C446    1.393   .     A
C440   C444    1.407   .     A
C441   H457    1.081   .     S
C441   C449    1.400   .     A
C441   C443    1.398   .     A
C442   C444    1.403   .     A
C442   H458    1.079   .     S
C442   C450    1.400   .     A
C443   O486    1.388   .     S
C444   O481    1.380   .     S
C445   H456    1.078   .     S
C445   C447    1.397   .     A
C446   C448    1.397   .     A
C446   H455    1.079   .     S
C447   C449    1.416   .     A
C447   C451    1.421   .     A
C448   C450    1.410   .     A
C448   C452    1.408   .     A
C449   C1055   1.387   .     S
C450   C1056   1.397   1_554 S
C451   C1082   1.413   .     S
C452   C1081   1.413   1_554 S
N469   Zn479   2.020   .     S
N470   Zn480   2.020   .     S
O471   Zn479   1.998   .     S
O472   Zn480   1.998   .     S
O473   Zn480   1.999   .     S
O474   Zn479   1.999   .     S
O475   Zn479   1.956   .     S
O476   Zn480   1.956   .     S
O477   Zn480   1.943   .     S
O478   Zn479   1.943   .     S
O481   C482    1.414   .     S
C482   H483    1.112   .     S
C482   H485    1.113   .     S
C482   H554    1.109   .     S
H484   C622    1.109   1_455 S
O486   C487    1.410   .     S
C487   H489    1.114   .     S
C487   H628    1.109   1_455 S
C487   H630    1.110   1_455 S
H488   C557    1.109   .     S
H490   C557    1.110   .     S
C491   O541    1.287   .     A
C491   C502    1.419   .     S
C491   O543    1.287   .     A
C492   O542    1.287   .     A
C492   C501    1.419   .     S
C492   O544    1.287   .     A
C493   H529    1.081   .     S
C493   C522    1.405   .     A
C493   C495    1.378   .     A
C494   C496    1.396   .     A
C494   C521    1.414   .     A
C494   H530    1.079   .     S
C495   H523    1.065   .     S
C495   C1149   1.387   1_554 S
C496   H524    1.083   .     S
C496   C1150   1.397   .     S
C497   C502    1.397   .     A
C497   H531    1.084   .     S
C497   C79     1.370   1_565 S
C498   C501    1.397   .     A
C498   H532    1.084   .     S
C499   C501    1.397   .     A
C499   H533    1.084   .     S
C500   C502    1.397   .     A
C500   H534    1.084   .     S
C500   C78     1.370   1_565 S
C503   H535    1.082   .     S
C503   N540    1.368   .     A
C503   C575    1.420   .     S
C504   H536    1.082   .     S
C504   N539    1.368   .     A
C505   N539    1.368   .     A
C505   H537    1.082   .     S
C506   H538    1.082   .     S
C506   N540    1.368   .     A
C506   C574    1.420   .     S
C507   O545    1.295   .     A
C507   C509    1.458   .     S
C507   O547    1.297   .     A
C508   O546    1.299   .     A
C508   C510    1.468   .     S
C508   O548    1.298   .     A
C509   C513    1.405   .     A
C509   C515    1.400   .     A
C510   C516    1.393   .     A
C510   C514    1.407   .     A
C511   H527    1.081   .     S
C511   C519    1.400   .     A
C511   C513    1.398   .     A
C512   C514    1.403   .     A
C512   H528    1.079   .     S
C512   C520    1.400   .     A
C513   O556    1.388   .     S
C514   O551    1.380   .     S
C515   H526    1.078   .     S
C515   C517    1.397   .     A
C516   C518    1.397   .     A
C516   H525    1.079   .     S
C517   C519    1.416   .     A
C517   C521    1.421   .     A
C518   C520    1.410   .     A
C518   C522    1.408   .     A
C519   C1125   1.387   .     S
C520   C1126   1.397   1_554 S
C521   C1152   1.413   .     S
C522   C1151   1.413   1_554 S
N539   Zn549   2.020   .     S
N540   Zn550   2.020   .     S
O541   Zn549   1.998   .     S
O542   Zn550   1.998   .     S
O543   Zn550   1.999   .     S
O544   Zn549   1.999   .     S
O545   Zn549   1.956   .     S
O546   Zn550   1.956   .     S
O547   Zn550   1.943   .     S
O548   Zn549   1.943   .     S
O551   C552    1.414   .     S
C552   H553    1.112   .     S
C552   H555    1.113   .     S
C552   H624    1.109   .     S
O556   C557    1.410   .     S
C557   H559    1.114   .     S
H558   C627    1.109   .     S
H560   C627    1.110   .     S
C561   O611    1.287   .     A
C561   C572    1.419   .     S
C561   O613    1.287   .     A
C562   O612    1.287   .     A
C562   C571    1.419   .     S
C562   O614    1.287   .     A
C563   H599    1.081   .     S
C563   C592    1.405   .     A
C563   C565    1.378   .     A
C564   C566    1.396   .     A
C564   C591    1.414   .     A
C564   H600    1.079   .     S
C565   H593    1.065   .     S
C565   C1219   1.387   1_554 S
C566   H594    1.083   .     S
C566   C1220   1.397   .     S
C567   C572    1.397   .     A
C567   H601    1.084   .     S
C567   C149    1.370   1_565 S
C568   C571    1.397   .     A
C568   H602    1.084   .     S
C569   C571    1.397   .     A
C569   H603    1.084   .     S
C570   C572    1.397   .     A
C570   H604    1.084   .     S
C570   C148    1.370   1_565 S
C573   H605    1.082   .     S
C573   N610    1.368   .     A
C573   C435    1.420   1_655 S
C574   H606    1.082   .     S
C574   N609    1.368   .     A
C575   N609    1.368   .     A
C575   H607    1.082   .     S
C576   H608    1.082   .     S
C576   N610    1.368   .     A
C576   C434    1.420   1_655 S
C577   O615    1.295   .     A
C577   C579    1.458   .     S
C577   O617    1.297   .     A
C578   O616    1.299   .     A
C578   C580    1.468   .     S
C578   O618    1.298   .     A
C579   C583    1.405   .     A
C579   C585    1.400   .     A
C580   C586    1.393   .     A
C580   C584    1.407   .     A
C581   H597    1.081   .     S
C581   C589    1.400   .     A
C581   C583    1.398   .     A
C582   C584    1.403   .     A
C582   H598    1.079   .     S
C582   C590    1.400   .     A
C583   O626    1.388   .     S
C584   O621    1.380   .     S
C585   H596    1.078   .     S
C585   C587    1.397   .     A
C586   C588    1.397   .     A
C586   H595    1.079   .     S
C587   C589    1.416   .     A
C587   C591    1.421   .     A
C588   C590    1.410   .     A
C588   C592    1.408   .     A
C589   C1195   1.387   .     S
C590   C1196   1.397   1_554 S
C591   C1222   1.413   .     S
C592   C1221   1.413   1_554 S
N609   Zn619   2.020   .     S
N610   Zn620   2.020   .     S
O611   Zn619   1.998   .     S
O612   Zn620   1.998   .     S
O613   Zn620   1.999   .     S
O614   Zn619   1.999   .     S
O615   Zn619   1.956   .     S
O616   Zn620   1.956   .     S
O617   Zn620   1.943   .     S
O618   Zn619   1.943   .     S
O621   C622    1.414   .     S
C622   H623    1.112   .     S
C622   H625    1.113   .     S
C622   H484    1.109   1_655 S
O626   C627    1.410   .     S
C627   H629    1.114   .     S
H628   C487    1.109   1_655 S
H630   C487    1.110   1_655 S
C631   O681    1.287   .     A
C631   C642    1.419   .     S
C631   O683    1.287   .     A
C632   O682    1.287   .     A
C632   C641    1.419   .     S
C632   O684    1.287   .     A
C633   H669    1.081   .     S
C633   C662    1.405   .     A
C633   C635    1.378   .     A
C634   C636    1.396   .     A
C634   C661    1.414   .     A
C634   H670    1.079   .     S
C635   H663    1.065   .     S
C636   H664    1.083   .     S
C636   C30     1.397   1_556 S
C637   C642    1.397   .     A
C637   H671    1.084   .     S
C637   C849    1.370   .     S
C638   C641    1.397   .     A
C638   H672    1.084   .     S
C638   C1060   1.370   1_545 S
C639   C641    1.397   .     A
C639   H673    1.084   .     S
C639   C1057   1.370   1_545 S
C640   C642    1.397   .     A
C640   H674    1.084   .     S
C640   C848    1.370   .     S
C643   H675    1.082   .     S
C643   N680    1.368   .     A
C643   C715    1.420   .     S
C644   H676    1.082   .     S
C644   N679    1.368   .     A
C644   C786    1.420   1_455 S
C645   N679    1.368   .     A
C645   H677    1.082   .     S
C645   C783    1.420   1_455 S
C646   H678    1.082   .     S
C646   N680    1.368   .     A
C646   C714    1.420   .     S
C647   O685    1.295   .     A
C647   C649    1.458   .     S
C647   O687    1.297   .     A
C648   O686    1.299   .     A
C648   C650    1.468   .     S
C648   O688    1.298   .     A
C649   C653    1.405   .     A
C649   C655    1.400   .     A
C650   C656    1.393   .     A
C650   C654    1.407   .     A
C651   H667    1.081   .     S
C651   C659    1.400   .     A
C651   C653    1.398   .     A
C652   C654    1.403   .     A
C652   H668    1.079   .     S
C652   C660    1.400   .     A
C653   O696    1.388   .     S
C654   O691    1.380   .     S
C655   H666    1.078   .     S
C655   C657    1.397   .     A
C656   C658    1.397   .     A
C656   H665    1.079   .     S
C657   C659    1.416   .     A
C657   C661    1.421   .     A
C658   C660    1.410   .     A
C658   C662    1.408   .     A
C659   C5      1.387   1_556 S
C661   C32     1.413   1_556 S
N679   Zn689   2.020   .     S
N680   Zn690   2.020   .     S
O681   Zn689   1.998   .     S
O682   Zn690   1.998   .     S
O683   Zn690   1.999   .     S
O684   Zn689   1.999   .     S
O685   Zn689   1.956   .     S
O686   Zn690   1.956   .     S
O687   Zn690   1.943   .     S
O688   Zn689   1.943   .     S
O691   C692    1.414   .     S
C692   H693    1.112   .     S
C692   H695    1.113   .     S
C692   H764    1.109   .     S
H694   C832    1.109   1_455 S
O696   C697    1.410   .     S
C697   H699    1.114   .     S
C697   H838    1.109   1_455 S
C697   H840    1.110   1_455 S
H698   C767    1.109   .     S
H700   C767    1.110   .     S
C701   O751    1.287   .     A
C701   C712    1.419   .     S
C701   O753    1.287   .     A
C702   O752    1.287   .     A
C702   C711    1.419   .     S
C702   O754    1.287   .     A
C703   H739    1.081   .     S
C703   C732    1.405   .     A
C703   C705    1.378   .     A
C704   C706    1.396   .     A
C704   C731    1.414   .     A
C704   H740    1.079   .     S
C705   H733    1.065   .     S
C706   H734    1.083   .     S
C706   C100    1.397   1_556 S
C707   C712    1.397   .     A
C707   H741    1.084   .     S
C707   C919    1.370   .     S
C708   C711    1.397   .     A
C708   H742    1.084   .     S
C708   C1130   1.370   1_545 S
C709   C711    1.397   .     A
C709   H743    1.084   .     S
C709   C1127   1.370   1_545 S
C710   C712    1.397   .     A
C710   H744    1.084   .     S
C710   C918    1.370   .     S
C713   H745    1.082   .     S
C713   N750    1.368   .     A
C713   C785    1.420   .     S
C714   H746    1.082   .     S
C714   N749    1.368   .     A
C715   N749    1.368   .     A
C715   H747    1.082   .     S
C716   H748    1.082   .     S
C716   N750    1.368   .     A
C716   C784    1.420   .     S
C717   O755    1.295   .     A
C717   C719    1.458   .     S
C717   O757    1.297   .     A
C718   O756    1.299   .     A
C718   C720    1.468   .     S
C718   O758    1.298   .     A
C719   C723    1.405   .     A
C719   C725    1.400   .     A
C720   C726    1.393   .     A
C720   C724    1.407   .     A
C721   H737    1.081   .     S
C721   C729    1.400   .     A
C721   C723    1.398   .     A
C722   C724    1.403   .     A
C722   H738    1.079   .     S
C722   C730    1.400   .     A
C723   O766    1.388   .     S
C724   O761    1.380   .     S
C725   H736    1.078   .     S
C725   C727    1.397   .     A
C726   C728    1.397   .     A
C726   H735    1.079   .     S
C727   C729    1.416   .     A
C727   C731    1.421   .     A
C728   C730    1.410   .     A
C728   C732    1.408   .     A
C729   C75     1.387   1_556 S
C731   C102    1.413   1_556 S
N749   Zn759   2.020   .     S
N750   Zn760   2.020   .     S
O751   Zn759   1.998   .     S
O752   Zn760   1.998   .     S
O753   Zn760   1.999   .     S
O754   Zn759   1.999   .     S
O755   Zn759   1.956   .     S
O756   Zn760   1.956   .     S
O757   Zn760   1.943   .     S
O758   Zn759   1.943   .     S
O761   C762    1.414   .     S
C762   H763    1.112   .     S
C762   H765    1.113   .     S
C762   H834    1.109   .     S
O766   C767    1.410   .     S
C767   H769    1.114   .     S
H768   C837    1.109   .     S
H770   C837    1.110   .     S
C771   O821    1.287   .     A
C771   C782    1.419   .     S
C771   O823    1.287   .     A
C772   O822    1.287   .     A
C772   C781    1.419   .     S
C772   O824    1.287   .     A
C773   H809    1.081   .     S
C773   C802    1.405   .     A
C773   C775    1.378   .     A
C774   C776    1.396   .     A
C774   C801    1.414   .     A
C774   H810    1.079   .     S
C775   H803    1.065   .     S
C776   H804    1.083   .     S
C776   C170    1.397   1_556 S
C777   C782    1.397   .     A
C777   H811    1.084   .     S
C777   C989    1.370   .     S
C778   C781    1.397   .     A
C778   H812    1.084   .     S
C778   C1200   1.370   1_545 S
C779   C781    1.397   .     A
C779   H813    1.084   .     S
C779   C1197   1.370   1_545 S
C780   C782    1.397   .     A
C780   H814    1.084   .     S
C780   C988    1.370   .     S
C783   H815    1.082   .     S
C783   N820    1.368   .     A
C783   C645    1.420   1_655 S
C784   H816    1.082   .     S
C784   N819    1.368   .     A
C785   N819    1.368   .     A
C785   H817    1.082   .     S
C786   H818    1.082   .     S
C786   N820    1.368   .     A
C786   C644    1.420   1_655 S
C787   O825    1.295   .     A
C787   C789    1.458   .     S
C787   O827    1.297   .     A
C788   O826    1.299   .     A
C788   C790    1.468   .     S
C788   O828    1.298   .     A
C789   C793    1.405   .     A
C789   C795    1.400   .     A
C790   C796    1.393   .     A
C790   C794    1.407   .     A
C791   H807    1.081   .     S
C791   C799    1.400   .     A
C791   C793    1.398   .     A
C792   C794    1.403   .     A
C792   H808    1.079   .     S
C792   C800    1.400   .     A
C793   O836    1.388   .     S
C794   O831    1.380   .     S
C795   H806    1.078   .     S
C795   C797    1.397   .     A
C796   C798    1.397   .     A
C796   H805    1.079   .     S
C797   C799    1.416   .     A
C797   C801    1.421   .     A
C798   C800    1.410   .     A
C798   C802    1.408   .     A
C799   C145    1.387   1_556 S
C801   C172    1.413   1_556 S
N819   Zn829   2.020   .     S
N820   Zn830   2.020   .     S
O821   Zn829   1.998   .     S
O822   Zn830   1.998   .     S
O823   Zn830   1.999   .     S
O824   Zn829   1.999   .     S
O825   Zn829   1.956   .     S
O826   Zn830   1.956   .     S
O827   Zn830   1.943   .     S
O828   Zn829   1.943   .     S
O831   C832    1.414   .     S
C832   H833    1.112   .     S
C832   H835    1.113   .     S
C832   H694    1.109   1_655 S
O836   C837    1.410   .     S
C837   H839    1.114   .     S
H838   C697    1.109   1_655 S
H840   C697    1.110   1_655 S
C841   O891    1.287   .     A
C841   C852    1.419   .     S
C841   O893    1.287   .     A
C842   O892    1.287   .     A
C842   C851    1.419   .     S
C842   O894    1.287   .     A
C843   H879    1.081   .     S
C843   C872    1.405   .     A
C843   C845    1.378   .     A
C844   C846    1.396   .     A
C844   C871    1.414   .     A
C844   H880    1.079   .     S
C845   H873    1.065   .     S
C846   H874    1.083   .     S
C846   C240    1.397   1_556 S
C847   C852    1.397   .     A
C847   H881    1.084   .     S
C847   C1059   1.370   .     S
C848   C851    1.397   .     A
C848   H882    1.084   .     S
C849   C851    1.397   .     A
C849   H883    1.084   .     S
C850   C852    1.397   .     A
C850   H884    1.084   .     S
C850   C1058   1.370   .     S
C853   H885    1.082   .     S
C853   N890    1.368   .     A
C853   C925    1.420   .     S
C854   H886    1.082   .     S
C854   N889    1.368   .     A
C854   C996    1.420   1_455 S
C855   N889    1.368   .     A
C855   H887    1.082   .     S
C855   C993    1.420   1_455 S
C856   H888    1.082   .     S
C856   N890    1.368   .     A
C856   C924    1.420   .     S
C857   O895    1.295   .     A
C857   C859    1.458   .     S
C857   O897    1.297   .     A
C858   O896    1.299   .     A
C858   C860    1.468   .     S
C858   O898    1.298   .     A
C859   C863    1.405   .     A
C859   C865    1.400   .     A
C860   C866    1.393   .     A
C860   C864    1.407   .     A
C861   H877    1.081   .     S
C861   C869    1.400   .     A
C861   C863    1.398   .     A
C862   C864    1.403   .     A
C862   H878    1.079   .     S
C862   C870    1.400   .     A
C863   O906    1.388   .     S
C864   O901    1.380   .     S
C865   H876    1.078   .     S
C865   C867    1.397   .     A
C866   C868    1.397   .     A
C866   H875    1.079   .     S
C867   C869    1.416   .     A
C867   C871    1.421   .     A
C868   C870    1.410   .     A
C868   C872    1.408   .     A
C869   C215    1.387   1_556 S
C871   C242    1.413   1_556 S
N889   Zn899   2.020   .     S
N890   Zn900   2.020   .     S
O891   Zn899   1.998   .     S
O892   Zn900   1.998   .     S
O893   Zn900   1.999   .     S
O894   Zn899   1.999   .     S
O895   Zn899   1.956   .     S
O896   Zn900   1.956   .     S
O897   Zn900   1.943   .     S
O898   Zn899   1.943   .     S
O901   C902    1.414   .     S
C902   H903    1.112   .     S
C902   H905    1.113   .     S
C902   H974    1.109   .     S
H904   C1042   1.109   1_455 S
O906   C907    1.410   .     S
C907   H909    1.114   .     S
C907   H1048   1.109   1_455 S
C907   H1050   1.110   1_455 S
H908   C977    1.109   .     S
H910   C977    1.110   .     S
C911   O961    1.287   .     A
C911   C922    1.419   .     S
C911   O963    1.287   .     A
C912   O962    1.287   .     A
C912   C921    1.419   .     S
C912   O964    1.287   .     A
C913   H949    1.081   .     S
C913   C942    1.405   .     A
C913   C915    1.378   .     A
C914   C916    1.396   .     A
C914   C941    1.414   .     A
C914   H950    1.079   .     S
C915   H943    1.065   .     S
C916   H944    1.083   .     S
C916   C310    1.397   1_556 S
C917   C922    1.397   .     A
C917   H951    1.084   .     S
C917   C1129   1.370   .     S
C918   C921    1.397   .     A
C918   H952    1.084   .     S
C919   C921    1.397   .     A
C919   H953    1.084   .     S
C920   C922    1.397   .     A
C920   H954    1.084   .     S
C920   C1128   1.370   .     S
C923   H955    1.082   .     S
C923   N960    1.368   .     A
C923   C995    1.420   .     S
C924   H956    1.082   .     S
C924   N959    1.368   .     A
C925   N959    1.368   .     A
C925   H957    1.082   .     S
C926   H958    1.082   .     S
C926   N960    1.368   .     A
C926   C994    1.420   .     S
C927   O965    1.295   .     A
C927   C929    1.458   .     S
C927   O967    1.297   .     A
C928   O966    1.299   .     A
C928   C930    1.468   .     S
C928   O968    1.298   .     A
C929   C933    1.405   .     A
C929   C935    1.400   .     A
C930   C936    1.393   .     A
C930   C934    1.407   .     A
C931   H947    1.081   .     S
C931   C939    1.400   .     A
C931   C933    1.398   .     A
C932   C934    1.403   .     A
C932   H948    1.079   .     S
C932   C940    1.400   .     A
C933   O976    1.388   .     S
C934   O971    1.380   .     S
C935   H946    1.078   .     S
C935   C937    1.397   .     A
C936   C938    1.397   .     A
C936   H945    1.079   .     S
C937   C939    1.416   .     A
C937   C941    1.421   .     A
C938   C940    1.410   .     A
C938   C942    1.408   .     A
C939   C285    1.387   1_556 S
C941   C312    1.413   1_556 S
N959   Zn969   2.020   .     S
N960   Zn970   2.020   .     S
O961   Zn969   1.998   .     S
O962   Zn970   1.998   .     S
O963   Zn970   1.999   .     S
O964   Zn969   1.999   .     S
O965   Zn969   1.956   .     S
O966   Zn970   1.956   .     S
O967   Zn970   1.943   .     S
O968   Zn969   1.943   .     S
O971   C972    1.414   .     S
C972   H973    1.112   .     S
C972   H975    1.113   .     S
C972   H1044   1.109   .     S
O976   C977    1.410   .     S
C977   H979    1.114   .     S
H978   C1047   1.109   .     S
H980   C1047   1.110   .     S
C981   O1031   1.287   .     A
C981   C992    1.419   .     S
C981   O1033   1.287   .     A
C982   O1032   1.287   .     A
C982   C991    1.419   .     S
C982   O1034   1.287   .     A
C983   H1019   1.081   .     S
C983   C1012   1.405   .     A
C983   C985    1.378   .     A
C984   C986    1.396   .     A
C984   C1011   1.414   .     A
C984   H1020   1.079   .     S
C985   H1013   1.065   .     S
C986   H1014   1.083   .     S
C986   C380    1.397   1_556 S
C987   C992    1.397   .     A
C987   H1021   1.084   .     S
C987   C1199   1.370   .     S
C988   C991    1.397   .     A
C988   H1022   1.084   .     S
C989   C991    1.397   .     A
C989   H1023   1.084   .     S
C990   C992    1.397   .     A
C990   H1024   1.084   .     S
C990   C1198   1.370   .     S
C993   H1025   1.082   .     S
C993   N1030   1.368   .     A
C993   C855    1.420   1_655 S
C994   H1026   1.082   .     S
C994   N1029   1.368   .     A
C995   N1029   1.368   .     A
C995   H1027   1.082   .     S
C996   H1028   1.082   .     S
C996   N1030   1.368   .     A
C996   C854    1.420   1_655 S
C997   O1035   1.295   .     A
C997   C999    1.458   .     S
C997   O1037   1.297   .     A
C998   O1036   1.299   .     A
C998   C1000   1.468   .     S
C998   O1038   1.298   .     A
C999   C1003   1.405   .     A
C999   C1005   1.400   .     A
C1000  C1006   1.393   .     A
C1000  C1004   1.407   .     A
C1001  H1017   1.081   .     S
C1001  C1009   1.400   .     A
C1001  C1003   1.398   .     A
C1002  C1004   1.403   .     A
C1002  H1018   1.079   .     S
C1002  C1010   1.400   .     A
C1003  O1046   1.388   .     S
C1004  O1041   1.380   .     S
C1005  H1016   1.078   .     S
C1005  C1007   1.397   .     A
C1006  C1008   1.397   .     A
C1006  H1015   1.079   .     S
C1007  C1009   1.416   .     A
C1007  C1011   1.421   .     A
C1008  C1010   1.410   .     A
C1008  C1012   1.408   .     A
C1009  C355    1.387   1_556 S
C1011  C382    1.413   1_556 S
N1029  Zn1039  2.020   .     S
N1030  Zn1040  2.020   .     S
O1031  Zn1039  1.998   .     S
O1032  Zn1040  1.998   .     S
O1033  Zn1040  1.999   .     S
O1034  Zn1039  1.999   .     S
O1035  Zn1039  1.956   .     S
O1036  Zn1040  1.956   .     S
O1037  Zn1040  1.943   .     S
O1038  Zn1039  1.943   .     S
O1041  C1042   1.414   .     S
C1042  H1043   1.112   .     S
C1042  H1045   1.113   .     S
C1042  H904    1.109   1_655 S
O1046  C1047   1.410   .     S
C1047  H1049   1.114   .     S
H1048  C907    1.109   1_655 S
H1050  C907    1.110   1_655 S
C1051  O1101   1.287   .     A
C1051  C1062   1.419   .     S
C1051  O1103   1.287   .     A
C1052  O1102   1.287   .     A
C1052  C1061   1.419   .     S
C1052  O1104   1.287   .     A
C1053  H1089   1.081   .     S
C1053  C1082   1.405   .     A
C1053  C1055   1.378   .     A
C1054  C1056   1.396   .     A
C1054  C1081   1.414   .     A
C1054  H1090   1.079   .     S
C1055  H1083   1.065   .     S
C1056  H1084   1.083   .     S
C1056  C450    1.397   1_556 S
C1057  C1062   1.397   .     A
C1057  H1091   1.084   .     S
C1057  C639    1.370   1_565 S
C1058  C1061   1.397   .     A
C1058  H1092   1.084   .     S
C1059  C1061   1.397   .     A
C1059  H1093   1.084   .     S
C1060  C1062   1.397   .     A
C1060  H1094   1.084   .     S
C1060  C638    1.370   1_565 S
C1063  H1095   1.082   .     S
C1063  N1100   1.368   .     A
C1063  C1135   1.420   .     S
C1064  H1096   1.082   .     S
C1064  N1099   1.368   .     A
C1064  C1206   1.420   1_455 S
C1065  N1099   1.368   .     A
C1065  H1097   1.082   .     S
C1065  C1203   1.420   1_455 S
C1066  H1098   1.082   .     S
C1066  N1100   1.368   .     A
C1066  C1134   1.420   .     S
C1067  O1105   1.295   .     A
C1067  C1069   1.458   .     S
C1067  O1107   1.297   .     A
C1068  O1106   1.299   .     A
C1068  C1070   1.468   .     S
C1068  O1108   1.298   .     A
C1069  C1073   1.405   .     A
C1069  C1075   1.400   .     A
C1070  C1076   1.393   .     A
C1070  C1074   1.407   .     A
C1071  H1087   1.081   .     S
C1071  C1079   1.400   .     A
C1071  C1073   1.398   .     A
C1072  C1074   1.403   .     A
C1072  H1088   1.079   .     S
C1072  C1080   1.400   .     A
C1073  O1116   1.388   .     S
C1074  O1111   1.380   .     S
C1075  H1086   1.078   .     S
C1075  C1077   1.397   .     A
C1076  C1078   1.397   .     A
C1076  H1085   1.079   .     S
C1077  C1079   1.416   .     A
C1077  C1081   1.421   .     A
C1078  C1080   1.410   .     A
C1078  C1082   1.408   .     A
C1079  C425    1.387   1_556 S
C1081  C452    1.413   1_556 S
N1099  Zn1109  2.020   .     S
N1100  Zn1110  2.020   .     S
O1101  Zn1109  1.998   .     S
O1102  Zn1110  1.998   .     S
O1103  Zn1110  1.999   .     S
O1104  Zn1109  1.999   .     S
O1105  Zn1109  1.956   .     S
O1106  Zn1110  1.956   .     S
O1107  Zn1110  1.943   .     S
O1108  Zn1109  1.943   .     S
O1111  C1112   1.414   .     S
C1112  H1113   1.112   .     S
C1112  H1115   1.113   .     S
C1112  H1184   1.109   .     S
H1114  C1252   1.109   1_455 S
O1116  C1117   1.410   .     S
C1117  H1119   1.114   .     S
C1117  H1258   1.109   1_455 S
C1117  H1260   1.110   1_455 S
H1118  C1187   1.109   .     S
H1120  C1187   1.110   .     S
C1121  O1171   1.287   .     A
C1121  C1132   1.419   .     S
C1121  O1173   1.287   .     A
C1122  O1172   1.287   .     A
C1122  C1131   1.419   .     S
C1122  O1174   1.287   .     A
C1123  H1159   1.081   .     S
C1123  C1152   1.405   .     A
C1123  C1125   1.378   .     A
C1124  C1126   1.396   .     A
C1124  C1151   1.414   .     A
C1124  H1160   1.079   .     S
C1125  H1153   1.065   .     S
C1126  H1154   1.083   .     S
C1126  C520    1.397   1_556 S
C1127  C1132   1.397   .     A
C1127  H1161   1.084   .     S
C1127  C709    1.370   1_565 S
C1128  C1131   1.397   .     A
C1128  H1162   1.084   .     S
C1129  C1131   1.397   .     A
C1129  H1163   1.084   .     S
C1130  C1132   1.397   .     A
C1130  H1164   1.084   .     S
C1130  C708    1.370   1_565 S
C1133  H1165   1.082   .     S
C1133  N1170   1.368   .     A
C1133  C1205   1.420   .     S
C1134  H1166   1.082   .     S
C1134  N1169   1.368   .     A
C1135  N1169   1.368   .     A
C1135  H1167   1.082   .     S
C1136  H1168   1.082   .     S
C1136  N1170   1.368   .     A
C1136  C1204   1.420   .     S
C1137  O1175   1.295   .     A
C1137  C1139   1.458   .     S
C1137  O1177   1.297   .     A
C1138  O1176   1.299   .     A
C1138  C1140   1.468   .     S
C1138  O1178   1.298   .     A
C1139  C1143   1.405   .     A
C1139  C1145   1.400   .     A
C1140  C1146   1.393   .     A
C1140  C1144   1.407   .     A
C1141  H1157   1.081   .     S
C1141  C1149   1.400   .     A
C1141  C1143   1.398   .     A
C1142  C1144   1.403   .     A
C1142  H1158   1.079   .     S
C1142  C1150   1.400   .     A
C1143  O1186   1.388   .     S
C1144  O1181   1.380   .     S
C1145  H1156   1.078   .     S
C1145  C1147   1.397   .     A
C1146  C1148   1.397   .     A
C1146  H1155   1.079   .     S
C1147  C1149   1.416   .     A
C1147  C1151   1.421   .     A
C1148  C1150   1.410   .     A
C1148  C1152   1.408   .     A
C1149  C495    1.387   1_556 S
C1151  C522    1.413   1_556 S
N1169  Zn1179  2.020   .     S
N1170  Zn1180  2.020   .     S
O1171  Zn1179  1.998   .     S
O1172  Zn1180  1.998   .     S
O1173  Zn1180  1.999   .     S
O1174  Zn1179  1.999   .     S
O1175  Zn1179  1.956   .     S
O1176  Zn1180  1.956   .     S
O1177  Zn1180  1.943   .     S
O1178  Zn1179  1.943   .     S
O1181  C1182   1.414   .     S
C1182  H1183   1.112   .     S
C1182  H1185   1.113   .     S
C1182  H1254   1.109   .     S
O1186  C1187   1.410   .     S
C1187  H1189   1.114   .     S
H1188  C1257   1.109   .     S
H1190  C1257   1.110   .     S
C1191  O1241   1.287   .     A
C1191  C1202   1.419   .     S
C1191  O1243   1.287   .     A
C1192  O1242   1.287   .     A
C1192  C1201   1.419   .     S
C1192  O1244   1.287   .     A
C1193  H1229   1.081   .     S
C1193  C1222   1.405   .     A
C1193  C1195   1.378   .     A
C1194  C1196   1.396   .     A
C1194  C1221   1.414   .     A
C1194  H1230   1.079   .     S
C1195  H1223   1.065   .     S
C1196  H1224   1.083   .     S
C1196  C590    1.397   1_556 S
C1197  C1202   1.397   .     A
C1197  H1231   1.084   .     S
C1197  C779    1.370   1_565 S
C1198  C1201   1.397   .     A
C1198  H1232   1.084   .     S
C1199  C1201   1.397   .     A
C1199  H1233   1.084   .     S
C1200  C1202   1.397   .     A
C1200  H1234   1.084   .     S
C1200  C778    1.370   1_565 S
C1203  H1235   1.082   .     S
C1203  N1240   1.368   .     A
C1203  C1065   1.420   1_655 S
C1204  H1236   1.082   .     S
C1204  N1239   1.368   .     A
C1205  N1239   1.368   .     A
C1205  H1237   1.082   .     S
C1206  H1238   1.082   .     S
C1206  N1240   1.368   .     A
C1206  C1064   1.420   1_655 S
C1207  O1245   1.295   .     A
C1207  C1209   1.458   .     S
C1207  O1247   1.297   .     A
C1208  O1246   1.299   .     A
C1208  C1210   1.468   .     S
C1208  O1248   1.298   .     A
C1209  C1213   1.405   .     A
C1209  C1215   1.400   .     A
C1210  C1216   1.393   .     A
C1210  C1214   1.407   .     A
C1211  H1227   1.081   .     S
C1211  C1219   1.400   .     A
C1211  C1213   1.398   .     A
C1212  C1214   1.403   .     A
C1212  H1228   1.079   .     S
C1212  C1220   1.400   .     A
C1213  O1256   1.388   .     S
C1214  O1251   1.380   .     S
C1215  H1226   1.078   .     S
C1215  C1217   1.397   .     A
C1216  C1218   1.397   .     A
C1216  H1225   1.079   .     S
C1217  C1219   1.416   .     A
C1217  C1221   1.421   .     A
C1218  C1220   1.410   .     A
C1218  C1222   1.408   .     A
C1219  C565    1.387   1_556 S
C1221  C592    1.413   1_556 S
N1239  Zn1249  2.020   .     S
N1240  Zn1250  2.020   .     S
O1241  Zn1249  1.998   .     S
O1242  Zn1250  1.998   .     S
O1243  Zn1250  1.999   .     S
O1244  Zn1249  1.999   .     S
O1245  Zn1249  1.956   .     S
O1246  Zn1250  1.956   .     S
O1247  Zn1250  1.943   .     S
O1248  Zn1249  1.943   .     S
O1251  C1252   1.414   .     S
C1252  H1253   1.112   .     S
C1252  H1255   1.113   .     S
C1252  H1114   1.109   1_655 S
O1256  C1257   1.410   .     S
C1257  H1259   1.114   .     S
H1258  C1117   1.109   1_655 S
H1260  C1117   1.110   1_655 S
