data_str_m3_o1_o10_pcu_sym.184
_audit_creation_date              2020-01-03
_audit_creation_method            'Materials Studio'
_symmetry_space_group_name_H-M    'P1'
_symmetry_Int_Tables_number       1
_symmetry_cell_setting            triclinic
loop_
_symmetry_equiv_pos_as_xyz
  x,y,z
_cell_length_a                    25.8251
_cell_length_b                    32.1441
_cell_length_c                    29.4338
_cell_angle_alpha                 91.2543
_cell_angle_beta                  98.3657
_cell_angle_gamma                 89.0084
loop_
_atom_site_label
_atom_site_type_symbol
_atom_site_fract_x
_atom_site_fract_y
_atom_site_fract_z
_atom_site_U_iso_or_equiv
_atom_site_adp_type
_atom_site_occupancy
C1     C     0.16792   0.08655   0.16628   0.00000  Uiso   1.00
C2     C     0.16423   0.24658   0.16687   0.00000  Uiso   1.00
C3     C     0.06750   0.16168   0.15503   0.00000  Uiso   1.00
C4     C     0.26585   0.16109   0.17832   0.00000  Uiso   1.00
C5     C     0.01429   0.14780   0.14921   0.00000  Uiso   1.00
C6     C     0.32062   0.15089   0.18569   0.00000  Uiso   1.00
C7     C     0.19591   0.01838   0.13650   0.00000  Uiso   1.00
C8     C     0.13252   0.31415   0.19458   0.00000  Uiso   1.00
C9     C     0.19420   0.30918   0.13880   0.00000  Uiso   1.00
C10    C     0.13600   0.02361   0.19387   0.00000  Uiso   1.00
C11    C     0.16330   0.29061   0.16739   0.00000  Uiso   1.00
C12    C     0.16730   0.04228   0.16533   0.00000  Uiso   1.00
C13    C     0.19121   0.19735   0.02785   0.00000  Uiso   1.00
C14    C     0.14334   0.13543   0.30570   0.00000  Uiso   1.00
C15    C     0.19112   0.19736   0.31315   0.00000  Uiso   1.00
C16    C     0.14277   0.13575   0.02027   0.00000  Uiso   1.00
H17    H     0.21707   0.29030   0.11772   0.00000  Uiso   1.00
H18    H     0.11267   0.04255   0.21446   0.00000  Uiso   1.00
H19    H     0.21095   0.22181   0.04914   0.00000  Uiso   1.00
H20    H     0.12514   0.11018   0.28476   0.00000  Uiso   1.00
H21    H     0.21107   0.22164   0.29801   0.00000  Uiso   1.00
H22    H     0.12280   0.11156   0.03539   0.00000  Uiso   1.00
N23    N     0.16665   0.16666   0.28573   0.00000  Uiso   1.00
N24    N     0.16668   0.16668   0.04760   0.00000  Uiso   1.00
O25    O     0.16666   0.10558   0.20487   0.00000  Uiso   1.00
O26    O     0.16667   0.22775   0.12846   0.00000  Uiso   1.00
O27    O     0.16666   0.10559   0.12843   0.00000  Uiso   1.00
O28    O     0.16667   0.22774   0.20490   0.00000  Uiso   1.00
O29    O     0.09058   0.16666   0.19595   0.00000  Uiso   1.00
O30    O     0.24275   0.16667   0.13739   0.00000  Uiso   1.00
O31    O     0.09058   0.16667   0.11950   0.00000  Uiso   1.00
O32    O     0.24275   0.16666   0.21383   0.00000  Uiso   1.00
Zn33   Zn    0.16667   0.16666   0.21771   0.00000  Uiso   1.00
Zn34   Zn    0.16667   0.16667   0.11563   0.00000  Uiso   1.00
C35    C     0.32685   0.12895   0.10186   0.00000  Uiso   1.00
C36    C     0.02283   0.08793   0.09358   0.00000  Uiso   1.00
C37    C     0.00916   0.07172   0.04426   0.00000  Uiso   1.00
H38    H     0.29970   0.06805   0.03522   0.00000  Uiso   1.00
H39    H     0.02294   0.09349   0.02004   0.00000  Uiso   1.00
H40    H     0.02860   0.04101   0.04051   0.00000  Uiso   1.00
H41    H     0.06579   0.09192   0.10046   0.00000  Uiso   1.00
H42    H     0.01254   0.06410   0.11745   0.00000  Uiso   1.00
H43    H     0.28516   0.12123   0.09711   0.00000  Uiso   1.00
H44    H     0.33187   0.15171   0.07500   0.00000  Uiso   1.00
C45    C     0.01068   0.14533   0.23633   0.00000  Uiso   1.00
C46    C     0.01821   0.18744   0.26291   0.00000  Uiso   1.00
C47    C     0.01121   0.18356   0.31322   0.00000  Uiso   1.00
H48    H     0.30452   0.17281   0.31604   0.00000  Uiso   1.00
H49    H     0.04029   0.16127   0.33055   0.00000  Uiso   1.00
H50    H     0.01703   0.21433   0.33096   0.00000  Uiso   1.00
H51    H     0.05790   0.19955   0.26161   0.00000  Uiso   1.00
H52    H     0.32304   0.21125   0.24735   0.00000  Uiso   1.00
H53    H     0.31696   0.12557   0.25237   0.00000  Uiso   1.00
H54    H     0.04694   0.12613   0.24043   0.00000  Uiso   1.00
C55    C     0.22699   0.03591   0.10184   0.00000  Uiso   1.00
C56    C     0.19475   0.03428   0.05396   0.00000  Uiso   1.00
H57    H     0.19305   0.00176   0.04030   0.00000  Uiso   1.00
H58    H     0.15415   0.04560   0.05523   0.00000  Uiso   1.00
H59    H     0.21247   0.05395   0.03006   0.00000  Uiso   1.00
H60    H     0.23966   0.06780   0.11129   0.00000  Uiso   1.00
H61    H     0.26382   0.01757   0.10130   0.00000  Uiso   1.00
C62    C     0.09357   0.29553   0.22205   0.00000  Uiso   1.00
C63    C     0.11396   0.29698   0.27340   0.00000  Uiso   1.00
H64    H     0.08610   0.28112   0.29243   0.00000  Uiso   1.00
H65    H     0.15263   0.28102   0.28035   0.00000  Uiso   1.00
H66    H     0.11799   0.32973   0.28612   0.00000  Uiso   1.00
H67    H     0.05600   0.31334   0.21576   0.00000  Uiso   1.00
H68    H     0.08372   0.26306   0.21105   0.00000  Uiso   1.00
C69    C     0.50125   0.08655   0.16628   0.00000  Uiso   1.00
C70    C     0.49756   0.24658   0.16687   0.00000  Uiso   1.00
C71    C     0.40083   0.16168   0.15503   0.00000  Uiso   1.00
C72    C     0.59918   0.16109   0.17832   0.00000  Uiso   1.00
C73    C     0.34762   0.14780   0.14921   0.00000  Uiso   1.00
C74    C     0.65395   0.15089   0.18569   0.00000  Uiso   1.00
C75    C     0.52924   0.01838   0.13650   0.00000  Uiso   1.00
C76    C     0.46585   0.31415   0.19458   0.00000  Uiso   1.00
C77    C     0.52753   0.30918   0.13880   0.00000  Uiso   1.00
C78    C     0.46934   0.02361   0.19387   0.00000  Uiso   1.00
C79    C     0.49663   0.29061   0.16739   0.00000  Uiso   1.00
C80    C     0.50063   0.04228   0.16533   0.00000  Uiso   1.00
C81    C     0.52454   0.19735   0.02785   0.00000  Uiso   1.00
C82    C     0.47667   0.13543   0.30570   0.00000  Uiso   1.00
C83    C     0.52446   0.19736   0.31315   0.00000  Uiso   1.00
C84    C     0.47611   0.13575   0.02027   0.00000  Uiso   1.00
H85    H     0.55040   0.29030   0.11772   0.00000  Uiso   1.00
H86    H     0.44600   0.04255   0.21446   0.00000  Uiso   1.00
H87    H     0.54428   0.22181   0.04914   0.00000  Uiso   1.00
H88    H     0.45848   0.11018   0.28476   0.00000  Uiso   1.00
H89    H     0.54440   0.22164   0.29801   0.00000  Uiso   1.00
H90    H     0.45614   0.11156   0.03539   0.00000  Uiso   1.00
N91    N     0.49999   0.16666   0.28573   0.00000  Uiso   1.00
N92    N     0.50001   0.16668   0.04760   0.00000  Uiso   1.00
O93    O     0.50000   0.10558   0.20487   0.00000  Uiso   1.00
O94    O     0.50000   0.22775   0.12846   0.00000  Uiso   1.00
O95    O     0.50000   0.10559   0.12843   0.00000  Uiso   1.00
O96    O     0.50000   0.22774   0.20490   0.00000  Uiso   1.00
O97    O     0.42392   0.16666   0.19595   0.00000  Uiso   1.00
O98    O     0.57608   0.16667   0.13739   0.00000  Uiso   1.00
O99    O     0.42392   0.16667   0.11950   0.00000  Uiso   1.00
O100   O     0.57608   0.16666   0.21383   0.00000  Uiso   1.00
Zn101  Zn    0.50000   0.16666   0.21771   0.00000  Uiso   1.00
Zn102  Zn    0.50000   0.16667   0.11563   0.00000  Uiso   1.00
C103   C     0.66019   0.12895   0.10186   0.00000  Uiso   1.00
C104   C     0.35616   0.08793   0.09358   0.00000  Uiso   1.00
C105   C     0.34250   0.07172   0.04426   0.00000  Uiso   1.00
H106   H     0.63304   0.06805   0.03522   0.00000  Uiso   1.00
H107   H     0.35627   0.09349   0.02004   0.00000  Uiso   1.00
H108   H     0.36193   0.04101   0.04051   0.00000  Uiso   1.00
H109   H     0.39913   0.09192   0.10046   0.00000  Uiso   1.00
H110   H     0.34587   0.06410   0.11745   0.00000  Uiso   1.00
H111   H     0.61849   0.12123   0.09711   0.00000  Uiso   1.00
H112   H     0.66521   0.15171   0.07500   0.00000  Uiso   1.00
C113   C     0.34401   0.14533   0.23633   0.00000  Uiso   1.00
C114   C     0.35154   0.18744   0.26291   0.00000  Uiso   1.00
C115   C     0.34454   0.18356   0.31322   0.00000  Uiso   1.00
H116   H     0.63785   0.17281   0.31604   0.00000  Uiso   1.00
H117   H     0.37363   0.16127   0.33055   0.00000  Uiso   1.00
H118   H     0.35037   0.21433   0.33096   0.00000  Uiso   1.00
H119   H     0.39123   0.19955   0.26161   0.00000  Uiso   1.00
H120   H     0.65638   0.21125   0.24735   0.00000  Uiso   1.00
H121   H     0.65029   0.12557   0.25237   0.00000  Uiso   1.00
H122   H     0.38027   0.12613   0.24043   0.00000  Uiso   1.00
C123   C     0.56033   0.03591   0.10184   0.00000  Uiso   1.00
C124   C     0.52808   0.03428   0.05396   0.00000  Uiso   1.00
H125   H     0.52639   0.00176   0.04030   0.00000  Uiso   1.00
H126   H     0.48748   0.04560   0.05523   0.00000  Uiso   1.00
H127   H     0.54580   0.05395   0.03006   0.00000  Uiso   1.00
H128   H     0.57300   0.06780   0.11129   0.00000  Uiso   1.00
H129   H     0.59715   0.01757   0.10130   0.00000  Uiso   1.00
C130   C     0.42690   0.29553   0.22205   0.00000  Uiso   1.00
C131   C     0.44729   0.29698   0.27340   0.00000  Uiso   1.00
H132   H     0.41943   0.28112   0.29243   0.00000  Uiso   1.00
H133   H     0.48596   0.28102   0.28035   0.00000  Uiso   1.00
H134   H     0.45133   0.32973   0.28612   0.00000  Uiso   1.00
H135   H     0.38933   0.31334   0.21576   0.00000  Uiso   1.00
H136   H     0.41706   0.26306   0.21105   0.00000  Uiso   1.00
C137   C     0.83459   0.08655   0.16628   0.00000  Uiso   1.00
C138   C     0.83089   0.24658   0.16687   0.00000  Uiso   1.00
C139   C     0.73417   0.16168   0.15503   0.00000  Uiso   1.00
C140   C     0.93252   0.16109   0.17832   0.00000  Uiso   1.00
C141   C     0.68095   0.14780   0.14921   0.00000  Uiso   1.00
C142   C     0.98728   0.15089   0.18569   0.00000  Uiso   1.00
C143   C     0.86257   0.01838   0.13650   0.00000  Uiso   1.00
C144   C     0.79918   0.31415   0.19458   0.00000  Uiso   1.00
C145   C     0.86086   0.30918   0.13880   0.00000  Uiso   1.00
C146   C     0.80267   0.02361   0.19387   0.00000  Uiso   1.00
C147   C     0.82996   0.29061   0.16739   0.00000  Uiso   1.00
C148   C     0.83397   0.04228   0.16533   0.00000  Uiso   1.00
C149   C     0.85788   0.19735   0.02785   0.00000  Uiso   1.00
C150   C     0.81001   0.13543   0.30570   0.00000  Uiso   1.00
C151   C     0.85779   0.19736   0.31315   0.00000  Uiso   1.00
C152   C     0.80944   0.13575   0.02027   0.00000  Uiso   1.00
H153   H     0.88374   0.29030   0.11772   0.00000  Uiso   1.00
H154   H     0.77933   0.04255   0.21446   0.00000  Uiso   1.00
H155   H     0.87762   0.22181   0.04914   0.00000  Uiso   1.00
H156   H     0.79181   0.11018   0.28476   0.00000  Uiso   1.00
H157   H     0.87774   0.22164   0.29801   0.00000  Uiso   1.00
H158   H     0.78947   0.11156   0.03539   0.00000  Uiso   1.00
N159   N     0.83332   0.16666   0.28573   0.00000  Uiso   1.00
N160   N     0.83335   0.16668   0.04760   0.00000  Uiso   1.00
O161   O     0.83333   0.10558   0.20487   0.00000  Uiso   1.00
O162   O     0.83334   0.22775   0.12846   0.00000  Uiso   1.00
O163   O     0.83333   0.10559   0.12843   0.00000  Uiso   1.00
O164   O     0.83334   0.22774   0.20490   0.00000  Uiso   1.00
O165   O     0.75725   0.16666   0.19595   0.00000  Uiso   1.00
O166   O     0.90942   0.16667   0.13739   0.00000  Uiso   1.00
O167   O     0.75725   0.16667   0.11950   0.00000  Uiso   1.00
O168   O     0.90942   0.16666   0.21383   0.00000  Uiso   1.00
Zn169  Zn    0.83333   0.16666   0.21771   0.00000  Uiso   1.00
Zn170  Zn    0.83333   0.16667   0.11563   0.00000  Uiso   1.00
C171   C     0.99352   0.12895   0.10186   0.00000  Uiso   1.00
C172   C     0.68949   0.08793   0.09358   0.00000  Uiso   1.00
C173   C     0.67583   0.07172   0.04426   0.00000  Uiso   1.00
H174   H     0.96637   0.06805   0.03522   0.00000  Uiso   1.00
H175   H     0.68960   0.09349   0.02004   0.00000  Uiso   1.00
H176   H     0.69526   0.04101   0.04051   0.00000  Uiso   1.00
H177   H     0.73246   0.09192   0.10046   0.00000  Uiso   1.00
H178   H     0.67921   0.06410   0.11745   0.00000  Uiso   1.00
H179   H     0.95182   0.12123   0.09711   0.00000  Uiso   1.00
H180   H     0.99854   0.15171   0.07500   0.00000  Uiso   1.00
C181   C     0.67734   0.14533   0.23633   0.00000  Uiso   1.00
C182   C     0.68488   0.18744   0.26291   0.00000  Uiso   1.00
C183   C     0.67788   0.18356   0.31322   0.00000  Uiso   1.00
H184   H     0.97119   0.17281   0.31604   0.00000  Uiso   1.00
H185   H     0.70696   0.16127   0.33055   0.00000  Uiso   1.00
H186   H     0.68370   0.21433   0.33096   0.00000  Uiso   1.00
H187   H     0.72457   0.19955   0.26161   0.00000  Uiso   1.00
H188   H     0.98971   0.21125   0.24735   0.00000  Uiso   1.00
H189   H     0.98363   0.12557   0.25237   0.00000  Uiso   1.00
H190   H     0.71360   0.12613   0.24043   0.00000  Uiso   1.00
C191   C     0.89366   0.03591   0.10184   0.00000  Uiso   1.00
C192   C     0.86141   0.03428   0.05396   0.00000  Uiso   1.00
H193   H     0.85972   0.00176   0.04030   0.00000  Uiso   1.00
H194   H     0.82081   0.04560   0.05523   0.00000  Uiso   1.00
H195   H     0.87914   0.05395   0.03006   0.00000  Uiso   1.00
H196   H     0.90633   0.06780   0.11129   0.00000  Uiso   1.00
H197   H     0.93049   0.01757   0.10130   0.00000  Uiso   1.00
C198   C     0.76024   0.29553   0.22205   0.00000  Uiso   1.00
C199   C     0.78062   0.29698   0.27340   0.00000  Uiso   1.00
H200   H     0.75277   0.28112   0.29243   0.00000  Uiso   1.00
H201   H     0.81929   0.28102   0.28035   0.00000  Uiso   1.00
H202   H     0.78466   0.32973   0.28612   0.00000  Uiso   1.00
H203   H     0.72266   0.31334   0.21576   0.00000  Uiso   1.00
H204   H     0.75039   0.26306   0.21105   0.00000  Uiso   1.00
C205   C     0.16792   0.41989   0.16628   0.00000  Uiso   1.00
C206   C     0.16423   0.57991   0.16687   0.00000  Uiso   1.00
C207   C     0.06750   0.49501   0.15503   0.00000  Uiso   1.00
C208   C     0.26585   0.49442   0.17832   0.00000  Uiso   1.00
C209   C     0.01429   0.48114   0.14921   0.00000  Uiso   1.00
C210   C     0.32062   0.48422   0.18569   0.00000  Uiso   1.00
C211   C     0.19591   0.35171   0.13650   0.00000  Uiso   1.00
C212   C     0.13252   0.64748   0.19458   0.00000  Uiso   1.00
C213   C     0.19420   0.64251   0.13880   0.00000  Uiso   1.00
C214   C     0.13600   0.35694   0.19387   0.00000  Uiso   1.00
C215   C     0.16330   0.62394   0.16739   0.00000  Uiso   1.00
C216   C     0.16730   0.37561   0.16533   0.00000  Uiso   1.00
C217   C     0.19121   0.53069   0.02785   0.00000  Uiso   1.00
C218   C     0.14334   0.46876   0.30570   0.00000  Uiso   1.00
C219   C     0.19112   0.53070   0.31315   0.00000  Uiso   1.00
C220   C     0.14277   0.46909   0.02027   0.00000  Uiso   1.00
H221   H     0.21707   0.62363   0.11772   0.00000  Uiso   1.00
H222   H     0.11267   0.37589   0.21446   0.00000  Uiso   1.00
H223   H     0.21095   0.55514   0.04914   0.00000  Uiso   1.00
H224   H     0.12514   0.44351   0.28476   0.00000  Uiso   1.00
H225   H     0.21107   0.55498   0.29801   0.00000  Uiso   1.00
H226   H     0.12280   0.44489   0.03539   0.00000  Uiso   1.00
N227   N     0.16665   0.49999   0.28573   0.00000  Uiso   1.00
N228   N     0.16668   0.50001   0.04760   0.00000  Uiso   1.00
O229   O     0.16666   0.43892   0.20487   0.00000  Uiso   1.00
O230   O     0.16667   0.56108   0.12846   0.00000  Uiso   1.00
O231   O     0.16666   0.43893   0.12843   0.00000  Uiso   1.00
O232   O     0.16667   0.56107   0.20490   0.00000  Uiso   1.00
O233   O     0.09058   0.50000   0.19595   0.00000  Uiso   1.00
O234   O     0.24275   0.50000   0.13739   0.00000  Uiso   1.00
O235   O     0.09058   0.50000   0.11950   0.00000  Uiso   1.00
O236   O     0.24275   0.50000   0.21383   0.00000  Uiso   1.00
Zn237  Zn    0.16667   0.49999   0.21771   0.00000  Uiso   1.00
Zn238  Zn    0.16667   0.50001   0.11563   0.00000  Uiso   1.00
C239   C     0.32685   0.46229   0.10186   0.00000  Uiso   1.00
C240   C     0.02283   0.42126   0.09358   0.00000  Uiso   1.00
C241   C     0.00916   0.40505   0.04426   0.00000  Uiso   1.00
H242   H     0.29970   0.40139   0.03522   0.00000  Uiso   1.00
H243   H     0.02294   0.42683   0.02004   0.00000  Uiso   1.00
H244   H     0.02860   0.37434   0.04051   0.00000  Uiso   1.00
H245   H     0.06579   0.42525   0.10046   0.00000  Uiso   1.00
H246   H     0.01254   0.39743   0.11745   0.00000  Uiso   1.00
H247   H     0.28516   0.45456   0.09711   0.00000  Uiso   1.00
H248   H     0.33187   0.48504   0.07500   0.00000  Uiso   1.00
C249   C     0.01068   0.47866   0.23633   0.00000  Uiso   1.00
C250   C     0.01821   0.52077   0.26291   0.00000  Uiso   1.00
C251   C     0.01121   0.51690   0.31322   0.00000  Uiso   1.00
H252   H     0.30452   0.50614   0.31604   0.00000  Uiso   1.00
H253   H     0.04029   0.49460   0.33055   0.00000  Uiso   1.00
H254   H     0.01703   0.54767   0.33096   0.00000  Uiso   1.00
H255   H     0.05790   0.53289   0.26161   0.00000  Uiso   1.00
H256   H     0.32304   0.54458   0.24735   0.00000  Uiso   1.00
H257   H     0.31696   0.45890   0.25237   0.00000  Uiso   1.00
H258   H     0.04694   0.45946   0.24043   0.00000  Uiso   1.00
C259   C     0.22699   0.36924   0.10184   0.00000  Uiso   1.00
C260   C     0.19475   0.36761   0.05396   0.00000  Uiso   1.00
H261   H     0.19305   0.33509   0.04030   0.00000  Uiso   1.00
H262   H     0.15415   0.37894   0.05523   0.00000  Uiso   1.00
H263   H     0.21247   0.38728   0.03006   0.00000  Uiso   1.00
H264   H     0.23966   0.40114   0.11129   0.00000  Uiso   1.00
H265   H     0.26382   0.35090   0.10130   0.00000  Uiso   1.00
C266   C     0.09357   0.62887   0.22205   0.00000  Uiso   1.00
C267   C     0.11396   0.63031   0.27340   0.00000  Uiso   1.00
H268   H     0.08610   0.61445   0.29243   0.00000  Uiso   1.00
H269   H     0.15263   0.61436   0.28035   0.00000  Uiso   1.00
H270   H     0.11799   0.66306   0.28612   0.00000  Uiso   1.00
H271   H     0.05600   0.64667   0.21576   0.00000  Uiso   1.00
H272   H     0.08372   0.59640   0.21105   0.00000  Uiso   1.00
C273   C     0.50125   0.41989   0.16628   0.00000  Uiso   1.00
C274   C     0.49756   0.57991   0.16687   0.00000  Uiso   1.00
C275   C     0.40083   0.49501   0.15503   0.00000  Uiso   1.00
C276   C     0.59918   0.49442   0.17832   0.00000  Uiso   1.00
C277   C     0.34762   0.48114   0.14921   0.00000  Uiso   1.00
C278   C     0.65395   0.48422   0.18569   0.00000  Uiso   1.00
C279   C     0.52924   0.35171   0.13650   0.00000  Uiso   1.00
C280   C     0.46585   0.64748   0.19458   0.00000  Uiso   1.00
C281   C     0.52753   0.64251   0.13880   0.00000  Uiso   1.00
C282   C     0.46934   0.35694   0.19387   0.00000  Uiso   1.00
C283   C     0.49663   0.62394   0.16739   0.00000  Uiso   1.00
C284   C     0.50063   0.37561   0.16533   0.00000  Uiso   1.00
C285   C     0.52454   0.53069   0.02785   0.00000  Uiso   1.00
C286   C     0.47667   0.46876   0.30570   0.00000  Uiso   1.00
C287   C     0.52446   0.53070   0.31315   0.00000  Uiso   1.00
C288   C     0.47611   0.46909   0.02027   0.00000  Uiso   1.00
H289   H     0.55040   0.62363   0.11772   0.00000  Uiso   1.00
H290   H     0.44600   0.37589   0.21446   0.00000  Uiso   1.00
H291   H     0.54428   0.55514   0.04914   0.00000  Uiso   1.00
H292   H     0.45848   0.44351   0.28476   0.00000  Uiso   1.00
H293   H     0.54440   0.55498   0.29801   0.00000  Uiso   1.00
H294   H     0.45614   0.44489   0.03539   0.00000  Uiso   1.00
N295   N     0.49999   0.49999   0.28573   0.00000  Uiso   1.00
N296   N     0.50001   0.50001   0.04760   0.00000  Uiso   1.00
O297   O     0.50000   0.43892   0.20487   0.00000  Uiso   1.00
O298   O     0.50000   0.56108   0.12846   0.00000  Uiso   1.00
O299   O     0.50000   0.43893   0.12843   0.00000  Uiso   1.00
O300   O     0.50000   0.56107   0.20490   0.00000  Uiso   1.00
O301   O     0.42392   0.50000   0.19595   0.00000  Uiso   1.00
O302   O     0.57608   0.50000   0.13739   0.00000  Uiso   1.00
O303   O     0.42392   0.50000   0.11950   0.00000  Uiso   1.00
O304   O     0.57608   0.50000   0.21383   0.00000  Uiso   1.00
Zn305  Zn    0.50000   0.49999   0.21771   0.00000  Uiso   1.00
Zn306  Zn    0.50000   0.50001   0.11563   0.00000  Uiso   1.00
C307   C     0.66019   0.46229   0.10186   0.00000  Uiso   1.00
C308   C     0.35616   0.42126   0.09358   0.00000  Uiso   1.00
C309   C     0.34250   0.40505   0.04426   0.00000  Uiso   1.00
H310   H     0.63304   0.40139   0.03522   0.00000  Uiso   1.00
H311   H     0.35627   0.42683   0.02004   0.00000  Uiso   1.00
H312   H     0.36193   0.37434   0.04051   0.00000  Uiso   1.00
H313   H     0.39913   0.42525   0.10046   0.00000  Uiso   1.00
H314   H     0.34587   0.39743   0.11745   0.00000  Uiso   1.00
H315   H     0.61849   0.45456   0.09711   0.00000  Uiso   1.00
H316   H     0.66521   0.48504   0.07500   0.00000  Uiso   1.00
C317   C     0.34401   0.47866   0.23633   0.00000  Uiso   1.00
C318   C     0.35154   0.52077   0.26291   0.00000  Uiso   1.00
C319   C     0.34454   0.51690   0.31322   0.00000  Uiso   1.00
H320   H     0.63785   0.50614   0.31604   0.00000  Uiso   1.00
H321   H     0.37363   0.49460   0.33055   0.00000  Uiso   1.00
H322   H     0.35037   0.54767   0.33096   0.00000  Uiso   1.00
H323   H     0.39123   0.53289   0.26161   0.00000  Uiso   1.00
H324   H     0.65638   0.54458   0.24735   0.00000  Uiso   1.00
H325   H     0.65029   0.45890   0.25237   0.00000  Uiso   1.00
H326   H     0.38027   0.45946   0.24043   0.00000  Uiso   1.00
C327   C     0.56033   0.36924   0.10184   0.00000  Uiso   1.00
C328   C     0.52808   0.36761   0.05396   0.00000  Uiso   1.00
H329   H     0.52639   0.33509   0.04030   0.00000  Uiso   1.00
H330   H     0.48748   0.37894   0.05523   0.00000  Uiso   1.00
H331   H     0.54580   0.38728   0.03006   0.00000  Uiso   1.00
H332   H     0.57300   0.40114   0.11129   0.00000  Uiso   1.00
H333   H     0.59715   0.35090   0.10130   0.00000  Uiso   1.00
C334   C     0.42690   0.62887   0.22205   0.00000  Uiso   1.00
C335   C     0.44729   0.63031   0.27340   0.00000  Uiso   1.00
H336   H     0.41943   0.61445   0.29243   0.00000  Uiso   1.00
H337   H     0.48596   0.61436   0.28035   0.00000  Uiso   1.00
H338   H     0.45133   0.66306   0.28612   0.00000  Uiso   1.00
H339   H     0.38933   0.64667   0.21576   0.00000  Uiso   1.00
H340   H     0.41706   0.59640   0.21105   0.00000  Uiso   1.00
C341   C     0.83459   0.41989   0.16628   0.00000  Uiso   1.00
C342   C     0.83089   0.57991   0.16687   0.00000  Uiso   1.00
C343   C     0.73417   0.49501   0.15503   0.00000  Uiso   1.00
C344   C     0.93252   0.49442   0.17832   0.00000  Uiso   1.00
C345   C     0.68095   0.48114   0.14921   0.00000  Uiso   1.00
C346   C     0.98728   0.48422   0.18569   0.00000  Uiso   1.00
C347   C     0.86257   0.35171   0.13650   0.00000  Uiso   1.00
C348   C     0.79918   0.64748   0.19458   0.00000  Uiso   1.00
C349   C     0.86086   0.64251   0.13880   0.00000  Uiso   1.00
C350   C     0.80267   0.35694   0.19387   0.00000  Uiso   1.00
C351   C     0.82996   0.62394   0.16739   0.00000  Uiso   1.00
C352   C     0.83397   0.37561   0.16533   0.00000  Uiso   1.00
C353   C     0.85788   0.53069   0.02785   0.00000  Uiso   1.00
C354   C     0.81001   0.46876   0.30570   0.00000  Uiso   1.00
C355   C     0.85779   0.53070   0.31315   0.00000  Uiso   1.00
C356   C     0.80944   0.46909   0.02027   0.00000  Uiso   1.00
H357   H     0.88374   0.62363   0.11772   0.00000  Uiso   1.00
H358   H     0.77933   0.37589   0.21446   0.00000  Uiso   1.00
H359   H     0.87762   0.55514   0.04914   0.00000  Uiso   1.00
H360   H     0.79181   0.44351   0.28476   0.00000  Uiso   1.00
H361   H     0.87774   0.55498   0.29801   0.00000  Uiso   1.00
H362   H     0.78947   0.44489   0.03539   0.00000  Uiso   1.00
N363   N     0.83332   0.49999   0.28573   0.00000  Uiso   1.00
N364   N     0.83335   0.50001   0.04760   0.00000  Uiso   1.00
O365   O     0.83333   0.43892   0.20487   0.00000  Uiso   1.00
O366   O     0.83334   0.56108   0.12846   0.00000  Uiso   1.00
O367   O     0.83333   0.43893   0.12843   0.00000  Uiso   1.00
O368   O     0.83334   0.56107   0.20490   0.00000  Uiso   1.00
O369   O     0.75725   0.50000   0.19595   0.00000  Uiso   1.00
O370   O     0.90942   0.50000   0.13739   0.00000  Uiso   1.00
O371   O     0.75725   0.50000   0.11950   0.00000  Uiso   1.00
O372   O     0.90942   0.50000   0.21383   0.00000  Uiso   1.00
Zn373  Zn    0.83333   0.49999   0.21771   0.00000  Uiso   1.00
Zn374  Zn    0.83333   0.50001   0.11563   0.00000  Uiso   1.00
C375   C     0.99352   0.46229   0.10186   0.00000  Uiso   1.00
C376   C     0.68949   0.42126   0.09358   0.00000  Uiso   1.00
C377   C     0.67583   0.40505   0.04426   0.00000  Uiso   1.00
H378   H     0.96637   0.40139   0.03522   0.00000  Uiso   1.00
H379   H     0.68960   0.42683   0.02004   0.00000  Uiso   1.00
H380   H     0.69526   0.37434   0.04051   0.00000  Uiso   1.00
H381   H     0.73246   0.42525   0.10046   0.00000  Uiso   1.00
H382   H     0.67921   0.39743   0.11745   0.00000  Uiso   1.00
H383   H     0.95182   0.45456   0.09711   0.00000  Uiso   1.00
H384   H     0.99854   0.48504   0.07500   0.00000  Uiso   1.00
C385   C     0.67734   0.47866   0.23633   0.00000  Uiso   1.00
C386   C     0.68488   0.52077   0.26291   0.00000  Uiso   1.00
C387   C     0.67788   0.51690   0.31322   0.00000  Uiso   1.00
H388   H     0.97119   0.50614   0.31604   0.00000  Uiso   1.00
H389   H     0.70696   0.49460   0.33055   0.00000  Uiso   1.00
H390   H     0.68370   0.54767   0.33096   0.00000  Uiso   1.00
H391   H     0.72457   0.53289   0.26161   0.00000  Uiso   1.00
H392   H     0.98971   0.54458   0.24735   0.00000  Uiso   1.00
H393   H     0.98363   0.45890   0.25237   0.00000  Uiso   1.00
H394   H     0.71360   0.45946   0.24043   0.00000  Uiso   1.00
C395   C     0.89366   0.36924   0.10184   0.00000  Uiso   1.00
C396   C     0.86141   0.36761   0.05396   0.00000  Uiso   1.00
H397   H     0.85972   0.33509   0.04030   0.00000  Uiso   1.00
H398   H     0.82081   0.37894   0.05523   0.00000  Uiso   1.00
H399   H     0.87914   0.38728   0.03006   0.00000  Uiso   1.00
H400   H     0.90633   0.40114   0.11129   0.00000  Uiso   1.00
H401   H     0.93049   0.35090   0.10130   0.00000  Uiso   1.00
C402   C     0.76024   0.62887   0.22205   0.00000  Uiso   1.00
C403   C     0.78062   0.63031   0.27340   0.00000  Uiso   1.00
H404   H     0.75277   0.61445   0.29243   0.00000  Uiso   1.00
H405   H     0.81929   0.61436   0.28035   0.00000  Uiso   1.00
H406   H     0.78466   0.66306   0.28612   0.00000  Uiso   1.00
H407   H     0.72266   0.64667   0.21576   0.00000  Uiso   1.00
H408   H     0.75039   0.59640   0.21105   0.00000  Uiso   1.00
C409   C     0.16792   0.75322   0.16628   0.00000  Uiso   1.00
C410   C     0.16423   0.91324   0.16687   0.00000  Uiso   1.00
C411   C     0.06750   0.82834   0.15503   0.00000  Uiso   1.00
C412   C     0.26585   0.82776   0.17832   0.00000  Uiso   1.00
C413   C     0.01429   0.81447   0.14921   0.00000  Uiso   1.00
C414   C     0.32062   0.81755   0.18569   0.00000  Uiso   1.00
C415   C     0.19591   0.68505   0.13650   0.00000  Uiso   1.00
C416   C     0.13252   0.98081   0.19458   0.00000  Uiso   1.00
C417   C     0.19420   0.97585   0.13880   0.00000  Uiso   1.00
C418   C     0.13600   0.69028   0.19387   0.00000  Uiso   1.00
C419   C     0.16330   0.95728   0.16739   0.00000  Uiso   1.00
C420   C     0.16730   0.70894   0.16533   0.00000  Uiso   1.00
C421   C     0.19121   0.86402   0.02785   0.00000  Uiso   1.00
C422   C     0.14334   0.80209   0.30570   0.00000  Uiso   1.00
C423   C     0.19112   0.86403   0.31315   0.00000  Uiso   1.00
C424   C     0.14277   0.80242   0.02027   0.00000  Uiso   1.00
H425   H     0.21707   0.95696   0.11772   0.00000  Uiso   1.00
H426   H     0.11267   0.70922   0.21446   0.00000  Uiso   1.00
H427   H     0.21095   0.88847   0.04914   0.00000  Uiso   1.00
H428   H     0.12514   0.77685   0.28476   0.00000  Uiso   1.00
H429   H     0.21107   0.88831   0.29801   0.00000  Uiso   1.00
H430   H     0.12280   0.77823   0.03539   0.00000  Uiso   1.00
N431   N     0.16665   0.83332   0.28573   0.00000  Uiso   1.00
N432   N     0.16668   0.83334   0.04760   0.00000  Uiso   1.00
O433   O     0.16666   0.77225   0.20487   0.00000  Uiso   1.00
O434   O     0.16667   0.89442   0.12846   0.00000  Uiso   1.00
O435   O     0.16666   0.77226   0.12843   0.00000  Uiso   1.00
O436   O     0.16667   0.89441   0.20490   0.00000  Uiso   1.00
O437   O     0.09058   0.83333   0.19595   0.00000  Uiso   1.00
O438   O     0.24275   0.83334   0.13739   0.00000  Uiso   1.00
O439   O     0.09058   0.83334   0.11950   0.00000  Uiso   1.00
O440   O     0.24275   0.83333   0.21383   0.00000  Uiso   1.00
Zn441  Zn    0.16667   0.83333   0.21771   0.00000  Uiso   1.00
Zn442  Zn    0.16667   0.83334   0.11563   0.00000  Uiso   1.00
C443   C     0.32685   0.79562   0.10186   0.00000  Uiso   1.00
C444   C     0.02283   0.75459   0.09358   0.00000  Uiso   1.00
C445   C     0.00916   0.73839   0.04426   0.00000  Uiso   1.00
H446   H     0.29970   0.73472   0.03522   0.00000  Uiso   1.00
H447   H     0.02294   0.76016   0.02004   0.00000  Uiso   1.00
H448   H     0.02860   0.70767   0.04051   0.00000  Uiso   1.00
H449   H     0.06579   0.75859   0.10046   0.00000  Uiso   1.00
H450   H     0.01254   0.73077   0.11745   0.00000  Uiso   1.00
H451   H     0.28516   0.78789   0.09711   0.00000  Uiso   1.00
H452   H     0.33187   0.81837   0.07500   0.00000  Uiso   1.00
C453   C     0.01068   0.81200   0.23633   0.00000  Uiso   1.00
C454   C     0.01821   0.85410   0.26291   0.00000  Uiso   1.00
C455   C     0.01121   0.85023   0.31322   0.00000  Uiso   1.00
H456   H     0.30452   0.83947   0.31604   0.00000  Uiso   1.00
H457   H     0.04029   0.82793   0.33055   0.00000  Uiso   1.00
H458   H     0.01703   0.88100   0.33096   0.00000  Uiso   1.00
H459   H     0.05790   0.86622   0.26161   0.00000  Uiso   1.00
H460   H     0.32304   0.87792   0.24735   0.00000  Uiso   1.00
H461   H     0.31696   0.79224   0.25237   0.00000  Uiso   1.00
H462   H     0.04694   0.79280   0.24043   0.00000  Uiso   1.00
C463   C     0.22699   0.70258   0.10184   0.00000  Uiso   1.00
C464   C     0.19475   0.70094   0.05396   0.00000  Uiso   1.00
H465   H     0.19305   0.66842   0.04030   0.00000  Uiso   1.00
H466   H     0.15415   0.71227   0.05523   0.00000  Uiso   1.00
H467   H     0.21247   0.72062   0.03006   0.00000  Uiso   1.00
H468   H     0.23966   0.73447   0.11129   0.00000  Uiso   1.00
H469   H     0.26382   0.68424   0.10130   0.00000  Uiso   1.00
C470   C     0.09357   0.96220   0.22205   0.00000  Uiso   1.00
C471   C     0.11396   0.96365   0.27340   0.00000  Uiso   1.00
H472   H     0.08610   0.94779   0.29243   0.00000  Uiso   1.00
H473   H     0.15263   0.94769   0.28035   0.00000  Uiso   1.00
H474   H     0.11799   0.99639   0.28612   0.00000  Uiso   1.00
H475   H     0.05600   0.98001   0.21576   0.00000  Uiso   1.00
H476   H     0.08372   0.92973   0.21105   0.00000  Uiso   1.00
C477   C     0.50125   0.75322   0.16628   0.00000  Uiso   1.00
C478   C     0.49756   0.91324   0.16687   0.00000  Uiso   1.00
C479   C     0.40083   0.82834   0.15503   0.00000  Uiso   1.00
C480   C     0.59918   0.82776   0.17832   0.00000  Uiso   1.00
C481   C     0.34762   0.81447   0.14921   0.00000  Uiso   1.00
C482   C     0.65395   0.81755   0.18569   0.00000  Uiso   1.00
C483   C     0.52924   0.68505   0.13650   0.00000  Uiso   1.00
C484   C     0.46585   0.98081   0.19458   0.00000  Uiso   1.00
C485   C     0.52753   0.97585   0.13880   0.00000  Uiso   1.00
C486   C     0.46934   0.69028   0.19387   0.00000  Uiso   1.00
C487   C     0.49663   0.95728   0.16739   0.00000  Uiso   1.00
C488   C     0.50063   0.70894   0.16533   0.00000  Uiso   1.00
C489   C     0.52454   0.86402   0.02785   0.00000  Uiso   1.00
C490   C     0.47667   0.80209   0.30570   0.00000  Uiso   1.00
C491   C     0.52446   0.86403   0.31315   0.00000  Uiso   1.00
C492   C     0.47611   0.80242   0.02027   0.00000  Uiso   1.00
H493   H     0.55040   0.95696   0.11772   0.00000  Uiso   1.00
H494   H     0.44600   0.70922   0.21446   0.00000  Uiso   1.00
H495   H     0.54428   0.88847   0.04914   0.00000  Uiso   1.00
H496   H     0.45848   0.77685   0.28476   0.00000  Uiso   1.00
H497   H     0.54440   0.88831   0.29801   0.00000  Uiso   1.00
H498   H     0.45614   0.77823   0.03539   0.00000  Uiso   1.00
N499   N     0.49999   0.83332   0.28573   0.00000  Uiso   1.00
N500   N     0.50001   0.83334   0.04760   0.00000  Uiso   1.00
O501   O     0.50000   0.77225   0.20487   0.00000  Uiso   1.00
O502   O     0.50000   0.89442   0.12846   0.00000  Uiso   1.00
O503   O     0.50000   0.77226   0.12843   0.00000  Uiso   1.00
O504   O     0.50000   0.89441   0.20490   0.00000  Uiso   1.00
O505   O     0.42392   0.83333   0.19595   0.00000  Uiso   1.00
O506   O     0.57608   0.83334   0.13739   0.00000  Uiso   1.00
O507   O     0.42392   0.83334   0.11950   0.00000  Uiso   1.00
O508   O     0.57608   0.83333   0.21383   0.00000  Uiso   1.00
Zn509  Zn    0.50000   0.83333   0.21771   0.00000  Uiso   1.00
Zn510  Zn    0.50000   0.83334   0.11563   0.00000  Uiso   1.00
C511   C     0.66019   0.79562   0.10186   0.00000  Uiso   1.00
C512   C     0.35616   0.75459   0.09358   0.00000  Uiso   1.00
C513   C     0.34250   0.73839   0.04426   0.00000  Uiso   1.00
H514   H     0.63304   0.73472   0.03522   0.00000  Uiso   1.00
H515   H     0.35627   0.76016   0.02004   0.00000  Uiso   1.00
H516   H     0.36193   0.70767   0.04051   0.00000  Uiso   1.00
H517   H     0.39913   0.75859   0.10046   0.00000  Uiso   1.00
H518   H     0.34587   0.73077   0.11745   0.00000  Uiso   1.00
H519   H     0.61849   0.78789   0.09711   0.00000  Uiso   1.00
H520   H     0.66521   0.81837   0.07500   0.00000  Uiso   1.00
C521   C     0.34401   0.81200   0.23633   0.00000  Uiso   1.00
C522   C     0.35154   0.85410   0.26291   0.00000  Uiso   1.00
C523   C     0.34454   0.85023   0.31322   0.00000  Uiso   1.00
H524   H     0.63785   0.83947   0.31604   0.00000  Uiso   1.00
H525   H     0.37363   0.82793   0.33055   0.00000  Uiso   1.00
H526   H     0.35037   0.88100   0.33096   0.00000  Uiso   1.00
H527   H     0.39123   0.86622   0.26161   0.00000  Uiso   1.00
H528   H     0.65638   0.87792   0.24735   0.00000  Uiso   1.00
H529   H     0.65029   0.79224   0.25237   0.00000  Uiso   1.00
H530   H     0.38027   0.79280   0.24043   0.00000  Uiso   1.00
C531   C     0.56033   0.70258   0.10184   0.00000  Uiso   1.00
C532   C     0.52808   0.70094   0.05396   0.00000  Uiso   1.00
H533   H     0.52639   0.66842   0.04030   0.00000  Uiso   1.00
H534   H     0.48748   0.71227   0.05523   0.00000  Uiso   1.00
H535   H     0.54580   0.72062   0.03006   0.00000  Uiso   1.00
H536   H     0.57300   0.73447   0.11129   0.00000  Uiso   1.00
H537   H     0.59715   0.68424   0.10130   0.00000  Uiso   1.00
C538   C     0.42690   0.96220   0.22205   0.00000  Uiso   1.00
C539   C     0.44729   0.96365   0.27340   0.00000  Uiso   1.00
H540   H     0.41943   0.94779   0.29243   0.00000  Uiso   1.00
H541   H     0.48596   0.94769   0.28035   0.00000  Uiso   1.00
H542   H     0.45133   0.99639   0.28612   0.00000  Uiso   1.00
H543   H     0.38933   0.98001   0.21576   0.00000  Uiso   1.00
H544   H     0.41706   0.92973   0.21105   0.00000  Uiso   1.00
C545   C     0.83459   0.75322   0.16628   0.00000  Uiso   1.00
C546   C     0.83089   0.91324   0.16687   0.00000  Uiso   1.00
C547   C     0.73417   0.82834   0.15503   0.00000  Uiso   1.00
C548   C     0.93252   0.82776   0.17832   0.00000  Uiso   1.00
C549   C     0.68095   0.81447   0.14921   0.00000  Uiso   1.00
C550   C     0.98728   0.81755   0.18569   0.00000  Uiso   1.00
C551   C     0.86257   0.68505   0.13650   0.00000  Uiso   1.00
C552   C     0.79918   0.98081   0.19458   0.00000  Uiso   1.00
C553   C     0.86086   0.97585   0.13880   0.00000  Uiso   1.00
C554   C     0.80267   0.69028   0.19387   0.00000  Uiso   1.00
C555   C     0.82996   0.95728   0.16739   0.00000  Uiso   1.00
C556   C     0.83397   0.70894   0.16533   0.00000  Uiso   1.00
C557   C     0.85788   0.86402   0.02785   0.00000  Uiso   1.00
C558   C     0.81001   0.80209   0.30570   0.00000  Uiso   1.00
C559   C     0.85779   0.86403   0.31315   0.00000  Uiso   1.00
C560   C     0.80944   0.80242   0.02027   0.00000  Uiso   1.00
H561   H     0.88374   0.95696   0.11772   0.00000  Uiso   1.00
H562   H     0.77933   0.70922   0.21446   0.00000  Uiso   1.00
H563   H     0.87762   0.88847   0.04914   0.00000  Uiso   1.00
H564   H     0.79181   0.77685   0.28476   0.00000  Uiso   1.00
H565   H     0.87774   0.88831   0.29801   0.00000  Uiso   1.00
H566   H     0.78947   0.77823   0.03539   0.00000  Uiso   1.00
N567   N     0.83332   0.83332   0.28573   0.00000  Uiso   1.00
N568   N     0.83335   0.83334   0.04760   0.00000  Uiso   1.00
O569   O     0.83333   0.77225   0.20487   0.00000  Uiso   1.00
O570   O     0.83334   0.89442   0.12846   0.00000  Uiso   1.00
O571   O     0.83333   0.77226   0.12843   0.00000  Uiso   1.00
O572   O     0.83334   0.89441   0.20490   0.00000  Uiso   1.00
O573   O     0.75725   0.83333   0.19595   0.00000  Uiso   1.00
O574   O     0.90942   0.83334   0.13739   0.00000  Uiso   1.00
O575   O     0.75725   0.83334   0.11950   0.00000  Uiso   1.00
O576   O     0.90942   0.83333   0.21383   0.00000  Uiso   1.00
Zn577  Zn    0.83333   0.83333   0.21771   0.00000  Uiso   1.00
Zn578  Zn    0.83333   0.83334   0.11563   0.00000  Uiso   1.00
C579   C     0.99352   0.79562   0.10186   0.00000  Uiso   1.00
C580   C     0.68949   0.75459   0.09358   0.00000  Uiso   1.00
C581   C     0.67583   0.73839   0.04426   0.00000  Uiso   1.00
H582   H     0.96637   0.73472   0.03522   0.00000  Uiso   1.00
H583   H     0.68960   0.76016   0.02004   0.00000  Uiso   1.00
H584   H     0.69526   0.70767   0.04051   0.00000  Uiso   1.00
H585   H     0.73246   0.75859   0.10046   0.00000  Uiso   1.00
H586   H     0.67921   0.73077   0.11745   0.00000  Uiso   1.00
H587   H     0.95182   0.78789   0.09711   0.00000  Uiso   1.00
H588   H     0.99854   0.81837   0.07500   0.00000  Uiso   1.00
C589   C     0.67734   0.81200   0.23633   0.00000  Uiso   1.00
C590   C     0.68488   0.85410   0.26291   0.00000  Uiso   1.00
C591   C     0.67788   0.85023   0.31322   0.00000  Uiso   1.00
H592   H     0.97119   0.83947   0.31604   0.00000  Uiso   1.00
H593   H     0.70696   0.82793   0.33055   0.00000  Uiso   1.00
H594   H     0.68370   0.88100   0.33096   0.00000  Uiso   1.00
H595   H     0.72457   0.86622   0.26161   0.00000  Uiso   1.00
H596   H     0.98971   0.87792   0.24735   0.00000  Uiso   1.00
H597   H     0.98363   0.79224   0.25237   0.00000  Uiso   1.00
H598   H     0.71360   0.79280   0.24043   0.00000  Uiso   1.00
C599   C     0.89366   0.70258   0.10184   0.00000  Uiso   1.00
C600   C     0.86141   0.70094   0.05396   0.00000  Uiso   1.00
H601   H     0.85972   0.66842   0.04030   0.00000  Uiso   1.00
H602   H     0.82081   0.71227   0.05523   0.00000  Uiso   1.00
H603   H     0.87914   0.72062   0.03006   0.00000  Uiso   1.00
H604   H     0.90633   0.73447   0.11129   0.00000  Uiso   1.00
H605   H     0.93049   0.68424   0.10130   0.00000  Uiso   1.00
C606   C     0.76024   0.96220   0.22205   0.00000  Uiso   1.00
C607   C     0.78062   0.96365   0.27340   0.00000  Uiso   1.00
H608   H     0.75277   0.94779   0.29243   0.00000  Uiso   1.00
H609   H     0.81929   0.94769   0.28035   0.00000  Uiso   1.00
H610   H     0.78466   0.99639   0.28612   0.00000  Uiso   1.00
H611   H     0.72266   0.98001   0.21576   0.00000  Uiso   1.00
H612   H     0.75039   0.92973   0.21105   0.00000  Uiso   1.00
C613   C     0.16792   0.08655   0.49961   0.00000  Uiso   1.00
C614   C     0.16423   0.24658   0.50021   0.00000  Uiso   1.00
C615   C     0.06750   0.16168   0.48836   0.00000  Uiso   1.00
C616   C     0.26585   0.16109   0.51166   0.00000  Uiso   1.00
C617   C     0.01429   0.14780   0.48254   0.00000  Uiso   1.00
C618   C     0.32062   0.15089   0.51902   0.00000  Uiso   1.00
C619   C     0.19591   0.01838   0.46983   0.00000  Uiso   1.00
C620   C     0.13252   0.31415   0.52791   0.00000  Uiso   1.00
C621   C     0.19420   0.30918   0.47213   0.00000  Uiso   1.00
C622   C     0.13600   0.02361   0.52720   0.00000  Uiso   1.00
C623   C     0.16330   0.29061   0.50072   0.00000  Uiso   1.00
C624   C     0.16730   0.04228   0.49866   0.00000  Uiso   1.00
C625   C     0.19121   0.19735   0.36118   0.00000  Uiso   1.00
C626   C     0.14334   0.13543   0.63903   0.00000  Uiso   1.00
C627   C     0.19112   0.19736   0.64648   0.00000  Uiso   1.00
C628   C     0.14277   0.13575   0.35360   0.00000  Uiso   1.00
H629   H     0.21707   0.29030   0.45106   0.00000  Uiso   1.00
H630   H     0.11267   0.04255   0.54779   0.00000  Uiso   1.00
H631   H     0.21095   0.22181   0.38247   0.00000  Uiso   1.00
H632   H     0.12514   0.11018   0.61809   0.00000  Uiso   1.00
H633   H     0.21107   0.22164   0.63134   0.00000  Uiso   1.00
H634   H     0.12280   0.11156   0.36872   0.00000  Uiso   1.00
N635   N     0.16665   0.16666   0.61907   0.00000  Uiso   1.00
N636   N     0.16668   0.16668   0.38093   0.00000  Uiso   1.00
O637   O     0.16666   0.10558   0.53821   0.00000  Uiso   1.00
O638   O     0.16667   0.22775   0.46179   0.00000  Uiso   1.00
O639   O     0.16666   0.10559   0.46176   0.00000  Uiso   1.00
O640   O     0.16667   0.22774   0.53824   0.00000  Uiso   1.00
O641   O     0.09058   0.16666   0.52928   0.00000  Uiso   1.00
O642   O     0.24275   0.16667   0.47072   0.00000  Uiso   1.00
O643   O     0.09058   0.16667   0.45284   0.00000  Uiso   1.00
O644   O     0.24275   0.16666   0.54716   0.00000  Uiso   1.00
Zn645  Zn    0.16667   0.16666   0.55104   0.00000  Uiso   1.00
Zn646  Zn    0.16667   0.16667   0.44896   0.00000  Uiso   1.00
C647   C     0.32685   0.12895   0.43520   0.00000  Uiso   1.00
C648   C     0.02283   0.08793   0.42691   0.00000  Uiso   1.00
C649   C     0.00916   0.07172   0.37760   0.00000  Uiso   1.00
H650   H     0.29970   0.06805   0.36855   0.00000  Uiso   1.00
H651   H     0.02294   0.09349   0.35338   0.00000  Uiso   1.00
H652   H     0.02860   0.04101   0.37384   0.00000  Uiso   1.00
H653   H     0.06579   0.09192   0.43379   0.00000  Uiso   1.00
H654   H     0.01254   0.06410   0.45079   0.00000  Uiso   1.00
H655   H     0.28516   0.12123   0.43045   0.00000  Uiso   1.00
H656   H     0.33187   0.15171   0.40833   0.00000  Uiso   1.00
C657   C     0.01068   0.14533   0.56967   0.00000  Uiso   1.00
C658   C     0.01821   0.18744   0.59624   0.00000  Uiso   1.00
C659   C     0.01121   0.18356   0.64656   0.00000  Uiso   1.00
H660   H     0.30452   0.17281   0.64938   0.00000  Uiso   1.00
H661   H     0.04029   0.16127   0.66388   0.00000  Uiso   1.00
H662   H     0.01703   0.21433   0.66429   0.00000  Uiso   1.00
H663   H     0.05790   0.19955   0.59495   0.00000  Uiso   1.00
H664   H     0.32304   0.21125   0.58068   0.00000  Uiso   1.00
H665   H     0.31696   0.12557   0.58571   0.00000  Uiso   1.00
H666   H     0.04694   0.12613   0.57377   0.00000  Uiso   1.00
C667   C     0.22699   0.03591   0.43518   0.00000  Uiso   1.00
C668   C     0.19475   0.03428   0.38729   0.00000  Uiso   1.00
H669   H     0.19305   0.00176   0.37363   0.00000  Uiso   1.00
H670   H     0.15415   0.04560   0.38856   0.00000  Uiso   1.00
H671   H     0.21247   0.05395   0.36339   0.00000  Uiso   1.00
H672   H     0.23966   0.06780   0.44462   0.00000  Uiso   1.00
H673   H     0.26382   0.01757   0.43463   0.00000  Uiso   1.00
C674   C     0.09357   0.29553   0.55539   0.00000  Uiso   1.00
C675   C     0.11396   0.29698   0.60674   0.00000  Uiso   1.00
H676   H     0.08610   0.28112   0.62576   0.00000  Uiso   1.00
H677   H     0.15263   0.28102   0.61368   0.00000  Uiso   1.00
H678   H     0.11799   0.32973   0.61945   0.00000  Uiso   1.00
H679   H     0.05600   0.31334   0.54909   0.00000  Uiso   1.00
H680   H     0.08372   0.26306   0.54438   0.00000  Uiso   1.00
C681   C     0.50125   0.08655   0.49961   0.00000  Uiso   1.00
C682   C     0.49756   0.24658   0.50021   0.00000  Uiso   1.00
C683   C     0.40083   0.16168   0.48836   0.00000  Uiso   1.00
C684   C     0.59918   0.16109   0.51166   0.00000  Uiso   1.00
C685   C     0.34762   0.14780   0.48254   0.00000  Uiso   1.00
C686   C     0.65395   0.15089   0.51902   0.00000  Uiso   1.00
C687   C     0.52924   0.01838   0.46983   0.00000  Uiso   1.00
C688   C     0.46585   0.31415   0.52791   0.00000  Uiso   1.00
C689   C     0.52753   0.30918   0.47213   0.00000  Uiso   1.00
C690   C     0.46934   0.02361   0.52720   0.00000  Uiso   1.00
C691   C     0.49663   0.29061   0.50072   0.00000  Uiso   1.00
C692   C     0.50063   0.04228   0.49866   0.00000  Uiso   1.00
C693   C     0.52454   0.19735   0.36118   0.00000  Uiso   1.00
C694   C     0.47667   0.13543   0.63903   0.00000  Uiso   1.00
C695   C     0.52446   0.19736   0.64648   0.00000  Uiso   1.00
C696   C     0.47611   0.13575   0.35360   0.00000  Uiso   1.00
H697   H     0.55040   0.29030   0.45106   0.00000  Uiso   1.00
H698   H     0.44600   0.04255   0.54779   0.00000  Uiso   1.00
H699   H     0.54428   0.22181   0.38247   0.00000  Uiso   1.00
H700   H     0.45848   0.11018   0.61809   0.00000  Uiso   1.00
H701   H     0.54440   0.22164   0.63134   0.00000  Uiso   1.00
H702   H     0.45614   0.11156   0.36872   0.00000  Uiso   1.00
N703   N     0.49999   0.16666   0.61907   0.00000  Uiso   1.00
N704   N     0.50001   0.16668   0.38093   0.00000  Uiso   1.00
O705   O     0.50000   0.10558   0.53821   0.00000  Uiso   1.00
O706   O     0.50000   0.22775   0.46179   0.00000  Uiso   1.00
O707   O     0.50000   0.10559   0.46176   0.00000  Uiso   1.00
O708   O     0.50000   0.22774   0.53824   0.00000  Uiso   1.00
O709   O     0.42392   0.16666   0.52928   0.00000  Uiso   1.00
O710   O     0.57608   0.16667   0.47072   0.00000  Uiso   1.00
O711   O     0.42392   0.16667   0.45284   0.00000  Uiso   1.00
O712   O     0.57608   0.16666   0.54716   0.00000  Uiso   1.00
Zn713  Zn    0.50000   0.16666   0.55104   0.00000  Uiso   1.00
Zn714  Zn    0.50000   0.16667   0.44896   0.00000  Uiso   1.00
C715   C     0.66019   0.12895   0.43520   0.00000  Uiso   1.00
C716   C     0.35616   0.08793   0.42691   0.00000  Uiso   1.00
C717   C     0.34250   0.07172   0.37760   0.00000  Uiso   1.00
H718   H     0.63304   0.06805   0.36855   0.00000  Uiso   1.00
H719   H     0.35627   0.09349   0.35338   0.00000  Uiso   1.00
H720   H     0.36193   0.04101   0.37384   0.00000  Uiso   1.00
H721   H     0.39913   0.09192   0.43379   0.00000  Uiso   1.00
H722   H     0.34587   0.06410   0.45079   0.00000  Uiso   1.00
H723   H     0.61849   0.12123   0.43045   0.00000  Uiso   1.00
H724   H     0.66521   0.15171   0.40833   0.00000  Uiso   1.00
C725   C     0.34401   0.14533   0.56967   0.00000  Uiso   1.00
C726   C     0.35154   0.18744   0.59624   0.00000  Uiso   1.00
C727   C     0.34454   0.18356   0.64656   0.00000  Uiso   1.00
H728   H     0.63785   0.17281   0.64938   0.00000  Uiso   1.00
H729   H     0.37363   0.16127   0.66388   0.00000  Uiso   1.00
H730   H     0.35037   0.21433   0.66429   0.00000  Uiso   1.00
H731   H     0.39123   0.19955   0.59495   0.00000  Uiso   1.00
H732   H     0.65638   0.21125   0.58068   0.00000  Uiso   1.00
H733   H     0.65029   0.12557   0.58571   0.00000  Uiso   1.00
H734   H     0.38027   0.12613   0.57377   0.00000  Uiso   1.00
C735   C     0.56033   0.03591   0.43518   0.00000  Uiso   1.00
C736   C     0.52808   0.03428   0.38729   0.00000  Uiso   1.00
H737   H     0.52639   0.00176   0.37363   0.00000  Uiso   1.00
H738   H     0.48748   0.04560   0.38856   0.00000  Uiso   1.00
H739   H     0.54580   0.05395   0.36339   0.00000  Uiso   1.00
H740   H     0.57300   0.06780   0.44462   0.00000  Uiso   1.00
H741   H     0.59715   0.01757   0.43463   0.00000  Uiso   1.00
C742   C     0.42690   0.29553   0.55539   0.00000  Uiso   1.00
C743   C     0.44729   0.29698   0.60674   0.00000  Uiso   1.00
H744   H     0.41943   0.28112   0.62576   0.00000  Uiso   1.00
H745   H     0.48596   0.28102   0.61368   0.00000  Uiso   1.00
H746   H     0.45133   0.32973   0.61945   0.00000  Uiso   1.00
H747   H     0.38933   0.31334   0.54909   0.00000  Uiso   1.00
H748   H     0.41706   0.26306   0.54438   0.00000  Uiso   1.00
C749   C     0.83459   0.08655   0.49961   0.00000  Uiso   1.00
C750   C     0.83089   0.24658   0.50021   0.00000  Uiso   1.00
C751   C     0.73417   0.16168   0.48836   0.00000  Uiso   1.00
C752   C     0.93252   0.16109   0.51166   0.00000  Uiso   1.00
C753   C     0.68095   0.14780   0.48254   0.00000  Uiso   1.00
C754   C     0.98728   0.15089   0.51902   0.00000  Uiso   1.00
C755   C     0.86257   0.01838   0.46983   0.00000  Uiso   1.00
C756   C     0.79918   0.31415   0.52791   0.00000  Uiso   1.00
C757   C     0.86086   0.30918   0.47213   0.00000  Uiso   1.00
C758   C     0.80267   0.02361   0.52720   0.00000  Uiso   1.00
C759   C     0.82996   0.29061   0.50072   0.00000  Uiso   1.00
C760   C     0.83397   0.04228   0.49866   0.00000  Uiso   1.00
C761   C     0.85788   0.19735   0.36118   0.00000  Uiso   1.00
C762   C     0.81001   0.13543   0.63903   0.00000  Uiso   1.00
C763   C     0.85779   0.19736   0.64648   0.00000  Uiso   1.00
C764   C     0.80944   0.13575   0.35360   0.00000  Uiso   1.00
H765   H     0.88374   0.29030   0.45106   0.00000  Uiso   1.00
H766   H     0.77933   0.04255   0.54779   0.00000  Uiso   1.00
H767   H     0.87762   0.22181   0.38247   0.00000  Uiso   1.00
H768   H     0.79181   0.11018   0.61809   0.00000  Uiso   1.00
H769   H     0.87774   0.22164   0.63134   0.00000  Uiso   1.00
H770   H     0.78947   0.11156   0.36872   0.00000  Uiso   1.00
N771   N     0.83332   0.16666   0.61907   0.00000  Uiso   1.00
N772   N     0.83335   0.16668   0.38093   0.00000  Uiso   1.00
O773   O     0.83333   0.10558   0.53821   0.00000  Uiso   1.00
O774   O     0.83334   0.22775   0.46179   0.00000  Uiso   1.00
O775   O     0.83333   0.10559   0.46176   0.00000  Uiso   1.00
O776   O     0.83334   0.22774   0.53824   0.00000  Uiso   1.00
O777   O     0.75725   0.16666   0.52928   0.00000  Uiso   1.00
O778   O     0.90942   0.16667   0.47072   0.00000  Uiso   1.00
O779   O     0.75725   0.16667   0.45284   0.00000  Uiso   1.00
O780   O     0.90942   0.16666   0.54716   0.00000  Uiso   1.00
Zn781  Zn    0.83333   0.16666   0.55104   0.00000  Uiso   1.00
Zn782  Zn    0.83333   0.16667   0.44896   0.00000  Uiso   1.00
C783   C     0.99352   0.12895   0.43520   0.00000  Uiso   1.00
C784   C     0.68949   0.08793   0.42691   0.00000  Uiso   1.00
C785   C     0.67583   0.07172   0.37760   0.00000  Uiso   1.00
H786   H     0.96637   0.06805   0.36855   0.00000  Uiso   1.00
H787   H     0.68960   0.09349   0.35338   0.00000  Uiso   1.00
H788   H     0.69526   0.04101   0.37384   0.00000  Uiso   1.00
H789   H     0.73246   0.09192   0.43379   0.00000  Uiso   1.00
H790   H     0.67921   0.06410   0.45079   0.00000  Uiso   1.00
H791   H     0.95182   0.12123   0.43045   0.00000  Uiso   1.00
H792   H     0.99854   0.15171   0.40833   0.00000  Uiso   1.00
C793   C     0.67734   0.14533   0.56967   0.00000  Uiso   1.00
C794   C     0.68488   0.18744   0.59624   0.00000  Uiso   1.00
C795   C     0.67788   0.18356   0.64656   0.00000  Uiso   1.00
H796   H     0.97119   0.17281   0.64938   0.00000  Uiso   1.00
H797   H     0.70696   0.16127   0.66388   0.00000  Uiso   1.00
H798   H     0.68370   0.21433   0.66429   0.00000  Uiso   1.00
H799   H     0.72457   0.19955   0.59495   0.00000  Uiso   1.00
H800   H     0.98971   0.21125   0.58068   0.00000  Uiso   1.00
H801   H     0.98363   0.12557   0.58571   0.00000  Uiso   1.00
H802   H     0.71360   0.12613   0.57377   0.00000  Uiso   1.00
C803   C     0.89366   0.03591   0.43518   0.00000  Uiso   1.00
C804   C     0.86141   0.03428   0.38729   0.00000  Uiso   1.00
H805   H     0.85972   0.00176   0.37363   0.00000  Uiso   1.00
H806   H     0.82081   0.04560   0.38856   0.00000  Uiso   1.00
H807   H     0.87914   0.05395   0.36339   0.00000  Uiso   1.00
H808   H     0.90633   0.06780   0.44462   0.00000  Uiso   1.00
H809   H     0.93049   0.01757   0.43463   0.00000  Uiso   1.00
C810   C     0.76024   0.29553   0.55539   0.00000  Uiso   1.00
C811   C     0.78062   0.29698   0.60674   0.00000  Uiso   1.00
H812   H     0.75277   0.28112   0.62576   0.00000  Uiso   1.00
H813   H     0.81929   0.28102   0.61368   0.00000  Uiso   1.00
H814   H     0.78466   0.32973   0.61945   0.00000  Uiso   1.00
H815   H     0.72266   0.31334   0.54909   0.00000  Uiso   1.00
H816   H     0.75039   0.26306   0.54438   0.00000  Uiso   1.00
C817   C     0.16792   0.41989   0.49961   0.00000  Uiso   1.00
C818   C     0.16423   0.57991   0.50021   0.00000  Uiso   1.00
C819   C     0.06750   0.49501   0.48836   0.00000  Uiso   1.00
C820   C     0.26585   0.49442   0.51166   0.00000  Uiso   1.00
C821   C     0.01429   0.48114   0.48254   0.00000  Uiso   1.00
C822   C     0.32062   0.48422   0.51902   0.00000  Uiso   1.00
C823   C     0.19591   0.35171   0.46983   0.00000  Uiso   1.00
C824   C     0.13252   0.64748   0.52791   0.00000  Uiso   1.00
C825   C     0.19420   0.64251   0.47213   0.00000  Uiso   1.00
C826   C     0.13600   0.35694   0.52720   0.00000  Uiso   1.00
C827   C     0.16330   0.62394   0.50072   0.00000  Uiso   1.00
C828   C     0.16730   0.37561   0.49866   0.00000  Uiso   1.00
C829   C     0.19121   0.53069   0.36118   0.00000  Uiso   1.00
C830   C     0.14334   0.46876   0.63903   0.00000  Uiso   1.00
C831   C     0.19112   0.53070   0.64648   0.00000  Uiso   1.00
C832   C     0.14277   0.46909   0.35360   0.00000  Uiso   1.00
H833   H     0.21707   0.62363   0.45106   0.00000  Uiso   1.00
H834   H     0.11267   0.37589   0.54779   0.00000  Uiso   1.00
H835   H     0.21095   0.55514   0.38247   0.00000  Uiso   1.00
H836   H     0.12514   0.44351   0.61809   0.00000  Uiso   1.00
H837   H     0.21107   0.55498   0.63134   0.00000  Uiso   1.00
H838   H     0.12280   0.44489   0.36872   0.00000  Uiso   1.00
N839   N     0.16665   0.49999   0.61907   0.00000  Uiso   1.00
N840   N     0.16668   0.50001   0.38093   0.00000  Uiso   1.00
O841   O     0.16666   0.43892   0.53821   0.00000  Uiso   1.00
O842   O     0.16667   0.56108   0.46179   0.00000  Uiso   1.00
O843   O     0.16666   0.43893   0.46176   0.00000  Uiso   1.00
O844   O     0.16667   0.56107   0.53824   0.00000  Uiso   1.00
O845   O     0.09058   0.50000   0.52928   0.00000  Uiso   1.00
O846   O     0.24275   0.50000   0.47072   0.00000  Uiso   1.00
O847   O     0.09058   0.50000   0.45284   0.00000  Uiso   1.00
O848   O     0.24275   0.50000   0.54716   0.00000  Uiso   1.00
Zn849  Zn    0.16667   0.49999   0.55104   0.00000  Uiso   1.00
Zn850  Zn    0.16667   0.50001   0.44896   0.00000  Uiso   1.00
C851   C     0.32685   0.46229   0.43520   0.00000  Uiso   1.00
C852   C     0.02283   0.42126   0.42691   0.00000  Uiso   1.00
C853   C     0.00916   0.40505   0.37760   0.00000  Uiso   1.00
H854   H     0.29970   0.40139   0.36855   0.00000  Uiso   1.00
H855   H     0.02294   0.42683   0.35338   0.00000  Uiso   1.00
H856   H     0.02860   0.37434   0.37384   0.00000  Uiso   1.00
H857   H     0.06579   0.42525   0.43379   0.00000  Uiso   1.00
H858   H     0.01254   0.39743   0.45079   0.00000  Uiso   1.00
H859   H     0.28516   0.45456   0.43045   0.00000  Uiso   1.00
H860   H     0.33187   0.48504   0.40833   0.00000  Uiso   1.00
C861   C     0.01068   0.47866   0.56967   0.00000  Uiso   1.00
C862   C     0.01821   0.52077   0.59624   0.00000  Uiso   1.00
C863   C     0.01121   0.51690   0.64656   0.00000  Uiso   1.00
H864   H     0.30452   0.50614   0.64938   0.00000  Uiso   1.00
H865   H     0.04029   0.49460   0.66388   0.00000  Uiso   1.00
H866   H     0.01703   0.54767   0.66429   0.00000  Uiso   1.00
H867   H     0.05790   0.53289   0.59495   0.00000  Uiso   1.00
H868   H     0.32304   0.54458   0.58068   0.00000  Uiso   1.00
H869   H     0.31696   0.45890   0.58571   0.00000  Uiso   1.00
H870   H     0.04694   0.45946   0.57377   0.00000  Uiso   1.00
C871   C     0.22699   0.36924   0.43518   0.00000  Uiso   1.00
C872   C     0.19475   0.36761   0.38729   0.00000  Uiso   1.00
H873   H     0.19305   0.33509   0.37363   0.00000  Uiso   1.00
H874   H     0.15415   0.37894   0.38856   0.00000  Uiso   1.00
H875   H     0.21247   0.38728   0.36339   0.00000  Uiso   1.00
H876   H     0.23966   0.40114   0.44462   0.00000  Uiso   1.00
H877   H     0.26382   0.35090   0.43463   0.00000  Uiso   1.00
C878   C     0.09357   0.62887   0.55539   0.00000  Uiso   1.00
C879   C     0.11396   0.63031   0.60674   0.00000  Uiso   1.00
H880   H     0.08610   0.61445   0.62576   0.00000  Uiso   1.00
H881   H     0.15263   0.61436   0.61368   0.00000  Uiso   1.00
H882   H     0.11799   0.66306   0.61945   0.00000  Uiso   1.00
H883   H     0.05600   0.64667   0.54909   0.00000  Uiso   1.00
H884   H     0.08372   0.59640   0.54438   0.00000  Uiso   1.00
C885   C     0.50125   0.41989   0.49961   0.00000  Uiso   1.00
C886   C     0.49756   0.57991   0.50021   0.00000  Uiso   1.00
C887   C     0.40083   0.49501   0.48836   0.00000  Uiso   1.00
C888   C     0.59918   0.49442   0.51166   0.00000  Uiso   1.00
C889   C     0.34762   0.48114   0.48254   0.00000  Uiso   1.00
C890   C     0.65395   0.48422   0.51902   0.00000  Uiso   1.00
C891   C     0.52924   0.35171   0.46983   0.00000  Uiso   1.00
C892   C     0.46585   0.64748   0.52791   0.00000  Uiso   1.00
C893   C     0.52753   0.64251   0.47213   0.00000  Uiso   1.00
C894   C     0.46934   0.35694   0.52720   0.00000  Uiso   1.00
C895   C     0.49663   0.62394   0.50072   0.00000  Uiso   1.00
C896   C     0.50063   0.37561   0.49866   0.00000  Uiso   1.00
C897   C     0.52454   0.53069   0.36118   0.00000  Uiso   1.00
C898   C     0.47667   0.46876   0.63903   0.00000  Uiso   1.00
C899   C     0.52446   0.53070   0.64648   0.00000  Uiso   1.00
C900   C     0.47611   0.46909   0.35360   0.00000  Uiso   1.00
H901   H     0.55040   0.62363   0.45106   0.00000  Uiso   1.00
H902   H     0.44600   0.37589   0.54779   0.00000  Uiso   1.00
H903   H     0.54428   0.55514   0.38247   0.00000  Uiso   1.00
H904   H     0.45848   0.44351   0.61809   0.00000  Uiso   1.00
H905   H     0.54440   0.55498   0.63134   0.00000  Uiso   1.00
H906   H     0.45614   0.44489   0.36872   0.00000  Uiso   1.00
N907   N     0.49999   0.49999   0.61907   0.00000  Uiso   1.00
N908   N     0.50001   0.50001   0.38093   0.00000  Uiso   1.00
O909   O     0.50000   0.43892   0.53821   0.00000  Uiso   1.00
O910   O     0.50000   0.56108   0.46179   0.00000  Uiso   1.00
O911   O     0.50000   0.43893   0.46176   0.00000  Uiso   1.00
O912   O     0.50000   0.56107   0.53824   0.00000  Uiso   1.00
O913   O     0.42392   0.50000   0.52928   0.00000  Uiso   1.00
O914   O     0.57608   0.50000   0.47072   0.00000  Uiso   1.00
O915   O     0.42392   0.50000   0.45284   0.00000  Uiso   1.00
O916   O     0.57608   0.50000   0.54716   0.00000  Uiso   1.00
Zn917  Zn    0.50000   0.49999   0.55104   0.00000  Uiso   1.00
Zn918  Zn    0.50000   0.50001   0.44896   0.00000  Uiso   1.00
C919   C     0.66019   0.46229   0.43520   0.00000  Uiso   1.00
C920   C     0.35616   0.42126   0.42691   0.00000  Uiso   1.00
C921   C     0.34250   0.40505   0.37760   0.00000  Uiso   1.00
H922   H     0.63304   0.40139   0.36855   0.00000  Uiso   1.00
H923   H     0.35627   0.42683   0.35338   0.00000  Uiso   1.00
H924   H     0.36193   0.37434   0.37384   0.00000  Uiso   1.00
H925   H     0.39913   0.42525   0.43379   0.00000  Uiso   1.00
H926   H     0.34587   0.39743   0.45079   0.00000  Uiso   1.00
H927   H     0.61849   0.45456   0.43045   0.00000  Uiso   1.00
H928   H     0.66521   0.48504   0.40833   0.00000  Uiso   1.00
C929   C     0.34401   0.47866   0.56967   0.00000  Uiso   1.00
C930   C     0.35154   0.52077   0.59624   0.00000  Uiso   1.00
C931   C     0.34454   0.51690   0.64656   0.00000  Uiso   1.00
H932   H     0.63785   0.50614   0.64938   0.00000  Uiso   1.00
H933   H     0.37363   0.49460   0.66388   0.00000  Uiso   1.00
H934   H     0.35037   0.54767   0.66429   0.00000  Uiso   1.00
H935   H     0.39123   0.53289   0.59495   0.00000  Uiso   1.00
H936   H     0.65638   0.54458   0.58068   0.00000  Uiso   1.00
H937   H     0.65029   0.45890   0.58571   0.00000  Uiso   1.00
H938   H     0.38027   0.45946   0.57377   0.00000  Uiso   1.00
C939   C     0.56033   0.36924   0.43518   0.00000  Uiso   1.00
C940   C     0.52808   0.36761   0.38729   0.00000  Uiso   1.00
H941   H     0.52639   0.33509   0.37363   0.00000  Uiso   1.00
H942   H     0.48748   0.37894   0.38856   0.00000  Uiso   1.00
H943   H     0.54580   0.38728   0.36339   0.00000  Uiso   1.00
H944   H     0.57300   0.40114   0.44462   0.00000  Uiso   1.00
H945   H     0.59715   0.35090   0.43463   0.00000  Uiso   1.00
C946   C     0.42690   0.62887   0.55539   0.00000  Uiso   1.00
C947   C     0.44729   0.63031   0.60674   0.00000  Uiso   1.00
H948   H     0.41943   0.61445   0.62576   0.00000  Uiso   1.00
H949   H     0.48596   0.61436   0.61368   0.00000  Uiso   1.00
H950   H     0.45133   0.66306   0.61945   0.00000  Uiso   1.00
H951   H     0.38933   0.64667   0.54909   0.00000  Uiso   1.00
H952   H     0.41706   0.59640   0.54438   0.00000  Uiso   1.00
C953   C     0.83459   0.41989   0.49961   0.00000  Uiso   1.00
C954   C     0.83089   0.57991   0.50021   0.00000  Uiso   1.00
C955   C     0.73417   0.49501   0.48836   0.00000  Uiso   1.00
C956   C     0.93252   0.49442   0.51166   0.00000  Uiso   1.00
C957   C     0.68095   0.48114   0.48254   0.00000  Uiso   1.00
C958   C     0.98728   0.48422   0.51902   0.00000  Uiso   1.00
C959   C     0.86257   0.35171   0.46983   0.00000  Uiso   1.00
C960   C     0.79918   0.64748   0.52791   0.00000  Uiso   1.00
C961   C     0.86086   0.64251   0.47213   0.00000  Uiso   1.00
C962   C     0.80267   0.35694   0.52720   0.00000  Uiso   1.00
C963   C     0.82996   0.62394   0.50072   0.00000  Uiso   1.00
C964   C     0.83397   0.37561   0.49866   0.00000  Uiso   1.00
C965   C     0.85788   0.53069   0.36118   0.00000  Uiso   1.00
C966   C     0.81001   0.46876   0.63903   0.00000  Uiso   1.00
C967   C     0.85779   0.53070   0.64648   0.00000  Uiso   1.00
C968   C     0.80944   0.46909   0.35360   0.00000  Uiso   1.00
H969   H     0.88374   0.62363   0.45106   0.00000  Uiso   1.00
H970   H     0.77933   0.37589   0.54779   0.00000  Uiso   1.00
H971   H     0.87762   0.55514   0.38247   0.00000  Uiso   1.00
H972   H     0.79181   0.44351   0.61809   0.00000  Uiso   1.00
H973   H     0.87774   0.55498   0.63134   0.00000  Uiso   1.00
H974   H     0.78947   0.44489   0.36872   0.00000  Uiso   1.00
N975   N     0.83332   0.49999   0.61907   0.00000  Uiso   1.00
N976   N     0.83335   0.50001   0.38093   0.00000  Uiso   1.00
O977   O     0.83333   0.43892   0.53821   0.00000  Uiso   1.00
O978   O     0.83334   0.56108   0.46179   0.00000  Uiso   1.00
O979   O     0.83333   0.43893   0.46176   0.00000  Uiso   1.00
O980   O     0.83334   0.56107   0.53824   0.00000  Uiso   1.00
O981   O     0.75725   0.50000   0.52928   0.00000  Uiso   1.00
O982   O     0.90942   0.50000   0.47072   0.00000  Uiso   1.00
O983   O     0.75725   0.50000   0.45284   0.00000  Uiso   1.00
O984   O     0.90942   0.50000   0.54716   0.00000  Uiso   1.00
Zn985  Zn    0.83333   0.49999   0.55104   0.00000  Uiso   1.00
Zn986  Zn    0.83333   0.50001   0.44896   0.00000  Uiso   1.00
C987   C     0.99352   0.46229   0.43520   0.00000  Uiso   1.00
C988   C     0.68949   0.42126   0.42691   0.00000  Uiso   1.00
C989   C     0.67583   0.40505   0.37760   0.00000  Uiso   1.00
H990   H     0.96637   0.40139   0.36855   0.00000  Uiso   1.00
H991   H     0.68960   0.42683   0.35338   0.00000  Uiso   1.00
H992   H     0.69526   0.37434   0.37384   0.00000  Uiso   1.00
H993   H     0.73246   0.42525   0.43379   0.00000  Uiso   1.00
H994   H     0.67921   0.39743   0.45079   0.00000  Uiso   1.00
H995   H     0.95182   0.45456   0.43045   0.00000  Uiso   1.00
H996   H     0.99854   0.48504   0.40833   0.00000  Uiso   1.00
C997   C     0.67734   0.47866   0.56967   0.00000  Uiso   1.00
C998   C     0.68488   0.52077   0.59624   0.00000  Uiso   1.00
C999   C     0.67788   0.51690   0.64656   0.00000  Uiso   1.00
H1000  H     0.97119   0.50614   0.64938   0.00000  Uiso   1.00
H1001  H     0.70696   0.49460   0.66388   0.00000  Uiso   1.00
H1002  H     0.68370   0.54767   0.66429   0.00000  Uiso   1.00
H1003  H     0.72457   0.53289   0.59495   0.00000  Uiso   1.00
H1004  H     0.98971   0.54458   0.58068   0.00000  Uiso   1.00
H1005  H     0.98363   0.45890   0.58571   0.00000  Uiso   1.00
H1006  H     0.71360   0.45946   0.57377   0.00000  Uiso   1.00
C1007  C     0.89366   0.36924   0.43518   0.00000  Uiso   1.00
C1008  C     0.86141   0.36761   0.38729   0.00000  Uiso   1.00
H1009  H     0.85972   0.33509   0.37363   0.00000  Uiso   1.00
H1010  H     0.82081   0.37894   0.38856   0.00000  Uiso   1.00
H1011  H     0.87914   0.38728   0.36339   0.00000  Uiso   1.00
H1012  H     0.90633   0.40114   0.44462   0.00000  Uiso   1.00
H1013  H     0.93049   0.35090   0.43463   0.00000  Uiso   1.00
C1014  C     0.76024   0.62887   0.55539   0.00000  Uiso   1.00
C1015  C     0.78062   0.63031   0.60674   0.00000  Uiso   1.00
H1016  H     0.75277   0.61445   0.62576   0.00000  Uiso   1.00
H1017  H     0.81929   0.61436   0.61368   0.00000  Uiso   1.00
H1018  H     0.78466   0.66306   0.61945   0.00000  Uiso   1.00
H1019  H     0.72266   0.64667   0.54909   0.00000  Uiso   1.00
H1020  H     0.75039   0.59640   0.54438   0.00000  Uiso   1.00
C1021  C     0.16792   0.75322   0.49961   0.00000  Uiso   1.00
C1022  C     0.16423   0.91324   0.50021   0.00000  Uiso   1.00
C1023  C     0.06750   0.82834   0.48836   0.00000  Uiso   1.00
C1024  C     0.26585   0.82776   0.51166   0.00000  Uiso   1.00
C1025  C     0.01429   0.81447   0.48254   0.00000  Uiso   1.00
C1026  C     0.32062   0.81755   0.51902   0.00000  Uiso   1.00
C1027  C     0.19591   0.68505   0.46983   0.00000  Uiso   1.00
C1028  C     0.13252   0.98081   0.52791   0.00000  Uiso   1.00
C1029  C     0.19420   0.97585   0.47213   0.00000  Uiso   1.00
C1030  C     0.13600   0.69028   0.52720   0.00000  Uiso   1.00
C1031  C     0.16330   0.95728   0.50072   0.00000  Uiso   1.00
C1032  C     0.16730   0.70894   0.49866   0.00000  Uiso   1.00
C1033  C     0.19121   0.86402   0.36118   0.00000  Uiso   1.00
C1034  C     0.14334   0.80209   0.63903   0.00000  Uiso   1.00
C1035  C     0.19112   0.86403   0.64648   0.00000  Uiso   1.00
C1036  C     0.14277   0.80242   0.35360   0.00000  Uiso   1.00
H1037  H     0.21707   0.95696   0.45106   0.00000  Uiso   1.00
H1038  H     0.11267   0.70922   0.54779   0.00000  Uiso   1.00
H1039  H     0.21095   0.88847   0.38247   0.00000  Uiso   1.00
H1040  H     0.12514   0.77685   0.61809   0.00000  Uiso   1.00
H1041  H     0.21107   0.88831   0.63134   0.00000  Uiso   1.00
H1042  H     0.12280   0.77823   0.36872   0.00000  Uiso   1.00
N1043  N     0.16665   0.83332   0.61907   0.00000  Uiso   1.00
N1044  N     0.16668   0.83334   0.38093   0.00000  Uiso   1.00
O1045  O     0.16666   0.77225   0.53821   0.00000  Uiso   1.00
O1046  O     0.16667   0.89442   0.46179   0.00000  Uiso   1.00
O1047  O     0.16666   0.77226   0.46176   0.00000  Uiso   1.00
O1048  O     0.16667   0.89441   0.53824   0.00000  Uiso   1.00
O1049  O     0.09058   0.83333   0.52928   0.00000  Uiso   1.00
O1050  O     0.24275   0.83334   0.47072   0.00000  Uiso   1.00
O1051  O     0.09058   0.83334   0.45284   0.00000  Uiso   1.00
O1052  O     0.24275   0.83333   0.54716   0.00000  Uiso   1.00
Zn1053 Zn    0.16667   0.83333   0.55104   0.00000  Uiso   1.00
Zn1054 Zn    0.16667   0.83334   0.44896   0.00000  Uiso   1.00
C1055  C     0.32685   0.79562   0.43520   0.00000  Uiso   1.00
C1056  C     0.02283   0.75459   0.42691   0.00000  Uiso   1.00
C1057  C     0.00916   0.73839   0.37760   0.00000  Uiso   1.00
H1058  H     0.29970   0.73472   0.36855   0.00000  Uiso   1.00
H1059  H     0.02294   0.76016   0.35338   0.00000  Uiso   1.00
H1060  H     0.02860   0.70767   0.37384   0.00000  Uiso   1.00
H1061  H     0.06579   0.75859   0.43379   0.00000  Uiso   1.00
H1062  H     0.01254   0.73077   0.45079   0.00000  Uiso   1.00
H1063  H     0.28516   0.78789   0.43045   0.00000  Uiso   1.00
H1064  H     0.33187   0.81837   0.40833   0.00000  Uiso   1.00
C1065  C     0.01068   0.81200   0.56967   0.00000  Uiso   1.00
C1066  C     0.01821   0.85410   0.59624   0.00000  Uiso   1.00
C1067  C     0.01121   0.85023   0.64656   0.00000  Uiso   1.00
H1068  H     0.30452   0.83947   0.64938   0.00000  Uiso   1.00
H1069  H     0.04029   0.82793   0.66388   0.00000  Uiso   1.00
H1070  H     0.01703   0.88100   0.66429   0.00000  Uiso   1.00
H1071  H     0.05790   0.86622   0.59495   0.00000  Uiso   1.00
H1072  H     0.32304   0.87792   0.58068   0.00000  Uiso   1.00
H1073  H     0.31696   0.79224   0.58571   0.00000  Uiso   1.00
H1074  H     0.04694   0.79280   0.57377   0.00000  Uiso   1.00
C1075  C     0.22699   0.70258   0.43518   0.00000  Uiso   1.00
C1076  C     0.19475   0.70094   0.38729   0.00000  Uiso   1.00
H1077  H     0.19305   0.66842   0.37363   0.00000  Uiso   1.00
H1078  H     0.15415   0.71227   0.38856   0.00000  Uiso   1.00
H1079  H     0.21247   0.72062   0.36339   0.00000  Uiso   1.00
H1080  H     0.23966   0.73447   0.44462   0.00000  Uiso   1.00
H1081  H     0.26382   0.68424   0.43463   0.00000  Uiso   1.00
C1082  C     0.09357   0.96220   0.55539   0.00000  Uiso   1.00
C1083  C     0.11396   0.96365   0.60674   0.00000  Uiso   1.00
H1084  H     0.08610   0.94779   0.62576   0.00000  Uiso   1.00
H1085  H     0.15263   0.94769   0.61368   0.00000  Uiso   1.00
H1086  H     0.11799   0.99639   0.61945   0.00000  Uiso   1.00
H1087  H     0.05600   0.98001   0.54909   0.00000  Uiso   1.00
H1088  H     0.08372   0.92973   0.54438   0.00000  Uiso   1.00
C1089  C     0.50125   0.75322   0.49961   0.00000  Uiso   1.00
C1090  C     0.49756   0.91324   0.50021   0.00000  Uiso   1.00
C1091  C     0.40083   0.82834   0.48836   0.00000  Uiso   1.00
C1092  C     0.59918   0.82776   0.51166   0.00000  Uiso   1.00
C1093  C     0.34762   0.81447   0.48254   0.00000  Uiso   1.00
C1094  C     0.65395   0.81755   0.51902   0.00000  Uiso   1.00
C1095  C     0.52924   0.68505   0.46983   0.00000  Uiso   1.00
C1096  C     0.46585   0.98081   0.52791   0.00000  Uiso   1.00
C1097  C     0.52753   0.97585   0.47213   0.00000  Uiso   1.00
C1098  C     0.46934   0.69028   0.52720   0.00000  Uiso   1.00
C1099  C     0.49663   0.95728   0.50072   0.00000  Uiso   1.00
C1100  C     0.50063   0.70894   0.49866   0.00000  Uiso   1.00
C1101  C     0.52454   0.86402   0.36118   0.00000  Uiso   1.00
C1102  C     0.47667   0.80209   0.63903   0.00000  Uiso   1.00
C1103  C     0.52446   0.86403   0.64648   0.00000  Uiso   1.00
C1104  C     0.47611   0.80242   0.35360   0.00000  Uiso   1.00
H1105  H     0.55040   0.95696   0.45106   0.00000  Uiso   1.00
H1106  H     0.44600   0.70922   0.54779   0.00000  Uiso   1.00
H1107  H     0.54428   0.88847   0.38247   0.00000  Uiso   1.00
H1108  H     0.45848   0.77685   0.61809   0.00000  Uiso   1.00
H1109  H     0.54440   0.88831   0.63134   0.00000  Uiso   1.00
H1110  H     0.45614   0.77823   0.36872   0.00000  Uiso   1.00
N1111  N     0.49999   0.83332   0.61907   0.00000  Uiso   1.00
N1112  N     0.50001   0.83334   0.38093   0.00000  Uiso   1.00
O1113  O     0.50000   0.77225   0.53821   0.00000  Uiso   1.00
O1114  O     0.50000   0.89442   0.46179   0.00000  Uiso   1.00
O1115  O     0.50000   0.77226   0.46176   0.00000  Uiso   1.00
O1116  O     0.50000   0.89441   0.53824   0.00000  Uiso   1.00
O1117  O     0.42392   0.83333   0.52928   0.00000  Uiso   1.00
O1118  O     0.57608   0.83334   0.47072   0.00000  Uiso   1.00
O1119  O     0.42392   0.83334   0.45284   0.00000  Uiso   1.00
O1120  O     0.57608   0.83333   0.54716   0.00000  Uiso   1.00
Zn1121 Zn    0.50000   0.83333   0.55104   0.00000  Uiso   1.00
Zn1122 Zn    0.50000   0.83334   0.44896   0.00000  Uiso   1.00
C1123  C     0.66019   0.79562   0.43520   0.00000  Uiso   1.00
C1124  C     0.35616   0.75459   0.42691   0.00000  Uiso   1.00
C1125  C     0.34250   0.73839   0.37760   0.00000  Uiso   1.00
H1126  H     0.63304   0.73472   0.36855   0.00000  Uiso   1.00
H1127  H     0.35627   0.76016   0.35338   0.00000  Uiso   1.00
H1128  H     0.36193   0.70767   0.37384   0.00000  Uiso   1.00
H1129  H     0.39913   0.75859   0.43379   0.00000  Uiso   1.00
H1130  H     0.34587   0.73077   0.45079   0.00000  Uiso   1.00
H1131  H     0.61849   0.78789   0.43045   0.00000  Uiso   1.00
H1132  H     0.66521   0.81837   0.40833   0.00000  Uiso   1.00
C1133  C     0.34401   0.81200   0.56967   0.00000  Uiso   1.00
C1134  C     0.35154   0.85410   0.59624   0.00000  Uiso   1.00
C1135  C     0.34454   0.85023   0.64656   0.00000  Uiso   1.00
H1136  H     0.63785   0.83947   0.64938   0.00000  Uiso   1.00
H1137  H     0.37363   0.82793   0.66388   0.00000  Uiso   1.00
H1138  H     0.35037   0.88100   0.66429   0.00000  Uiso   1.00
H1139  H     0.39123   0.86622   0.59495   0.00000  Uiso   1.00
H1140  H     0.65638   0.87792   0.58068   0.00000  Uiso   1.00
H1141  H     0.65029   0.79224   0.58571   0.00000  Uiso   1.00
H1142  H     0.38027   0.79280   0.57377   0.00000  Uiso   1.00
C1143  C     0.56033   0.70258   0.43518   0.00000  Uiso   1.00
C1144  C     0.52808   0.70094   0.38729   0.00000  Uiso   1.00
H1145  H     0.52639   0.66842   0.37363   0.00000  Uiso   1.00
H1146  H     0.48748   0.71227   0.38856   0.00000  Uiso   1.00
H1147  H     0.54580   0.72062   0.36339   0.00000  Uiso   1.00
H1148  H     0.57300   0.73447   0.44462   0.00000  Uiso   1.00
H1149  H     0.59715   0.68424   0.43463   0.00000  Uiso   1.00
C1150  C     0.42690   0.96220   0.55539   0.00000  Uiso   1.00
C1151  C     0.44729   0.96365   0.60674   0.00000  Uiso   1.00
H1152  H     0.41943   0.94779   0.62576   0.00000  Uiso   1.00
H1153  H     0.48596   0.94769   0.61368   0.00000  Uiso   1.00
H1154  H     0.45133   0.99639   0.61945   0.00000  Uiso   1.00
H1155  H     0.38933   0.98001   0.54909   0.00000  Uiso   1.00
H1156  H     0.41706   0.92973   0.54438   0.00000  Uiso   1.00
C1157  C     0.83459   0.75322   0.49961   0.00000  Uiso   1.00
C1158  C     0.83089   0.91324   0.50021   0.00000  Uiso   1.00
C1159  C     0.73417   0.82834   0.48836   0.00000  Uiso   1.00
C1160  C     0.93252   0.82776   0.51166   0.00000  Uiso   1.00
C1161  C     0.68095   0.81447   0.48254   0.00000  Uiso   1.00
C1162  C     0.98728   0.81755   0.51902   0.00000  Uiso   1.00
C1163  C     0.86257   0.68505   0.46983   0.00000  Uiso   1.00
C1164  C     0.79918   0.98081   0.52791   0.00000  Uiso   1.00
C1165  C     0.86086   0.97585   0.47213   0.00000  Uiso   1.00
C1166  C     0.80267   0.69028   0.52720   0.00000  Uiso   1.00
C1167  C     0.82996   0.95728   0.50072   0.00000  Uiso   1.00
C1168  C     0.83397   0.70894   0.49866   0.00000  Uiso   1.00
C1169  C     0.85788   0.86402   0.36118   0.00000  Uiso   1.00
C1170  C     0.81001   0.80209   0.63903   0.00000  Uiso   1.00
C1171  C     0.85779   0.86403   0.64648   0.00000  Uiso   1.00
C1172  C     0.80944   0.80242   0.35360   0.00000  Uiso   1.00
H1173  H     0.88374   0.95696   0.45106   0.00000  Uiso   1.00
H1174  H     0.77933   0.70922   0.54779   0.00000  Uiso   1.00
H1175  H     0.87762   0.88847   0.38247   0.00000  Uiso   1.00
H1176  H     0.79181   0.77685   0.61809   0.00000  Uiso   1.00
H1177  H     0.87774   0.88831   0.63134   0.00000  Uiso   1.00
H1178  H     0.78947   0.77823   0.36872   0.00000  Uiso   1.00
N1179  N     0.83332   0.83332   0.61907   0.00000  Uiso   1.00
N1180  N     0.83335   0.83334   0.38093   0.00000  Uiso   1.00
O1181  O     0.83333   0.77225   0.53821   0.00000  Uiso   1.00
O1182  O     0.83334   0.89442   0.46179   0.00000  Uiso   1.00
O1183  O     0.83333   0.77226   0.46176   0.00000  Uiso   1.00
O1184  O     0.83334   0.89441   0.53824   0.00000  Uiso   1.00
O1185  O     0.75725   0.83333   0.52928   0.00000  Uiso   1.00
O1186  O     0.90942   0.83334   0.47072   0.00000  Uiso   1.00
O1187  O     0.75725   0.83334   0.45284   0.00000  Uiso   1.00
O1188  O     0.90942   0.83333   0.54716   0.00000  Uiso   1.00
Zn1189 Zn    0.83333   0.83333   0.55104   0.00000  Uiso   1.00
Zn1190 Zn    0.83333   0.83334   0.44896   0.00000  Uiso   1.00
C1191  C     0.99352   0.79562   0.43520   0.00000  Uiso   1.00
C1192  C     0.68949   0.75459   0.42691   0.00000  Uiso   1.00
C1193  C     0.67583   0.73839   0.37760   0.00000  Uiso   1.00
H1194  H     0.96637   0.73472   0.36855   0.00000  Uiso   1.00
H1195  H     0.68960   0.76016   0.35338   0.00000  Uiso   1.00
H1196  H     0.69526   0.70767   0.37384   0.00000  Uiso   1.00
H1197  H     0.73246   0.75859   0.43379   0.00000  Uiso   1.00
H1198  H     0.67921   0.73077   0.45079   0.00000  Uiso   1.00
H1199  H     0.95182   0.78789   0.43045   0.00000  Uiso   1.00
H1200  H     0.99854   0.81837   0.40833   0.00000  Uiso   1.00
C1201  C     0.67734   0.81200   0.56967   0.00000  Uiso   1.00
C1202  C     0.68488   0.85410   0.59624   0.00000  Uiso   1.00
C1203  C     0.67788   0.85023   0.64656   0.00000  Uiso   1.00
H1204  H     0.97119   0.83947   0.64938   0.00000  Uiso   1.00
H1205  H     0.70696   0.82793   0.66388   0.00000  Uiso   1.00
H1206  H     0.68370   0.88100   0.66429   0.00000  Uiso   1.00
H1207  H     0.72457   0.86622   0.59495   0.00000  Uiso   1.00
H1208  H     0.98971   0.87792   0.58068   0.00000  Uiso   1.00
H1209  H     0.98363   0.79224   0.58571   0.00000  Uiso   1.00
H1210  H     0.71360   0.79280   0.57377   0.00000  Uiso   1.00
C1211  C     0.89366   0.70258   0.43518   0.00000  Uiso   1.00
C1212  C     0.86141   0.70094   0.38729   0.00000  Uiso   1.00
H1213  H     0.85972   0.66842   0.37363   0.00000  Uiso   1.00
H1214  H     0.82081   0.71227   0.38856   0.00000  Uiso   1.00
H1215  H     0.87914   0.72062   0.36339   0.00000  Uiso   1.00
H1216  H     0.90633   0.73447   0.44462   0.00000  Uiso   1.00
H1217  H     0.93049   0.68424   0.43463   0.00000  Uiso   1.00
C1218  C     0.76024   0.96220   0.55539   0.00000  Uiso   1.00
C1219  C     0.78062   0.96365   0.60674   0.00000  Uiso   1.00
H1220  H     0.75277   0.94779   0.62576   0.00000  Uiso   1.00
H1221  H     0.81929   0.94769   0.61368   0.00000  Uiso   1.00
H1222  H     0.78466   0.99639   0.61945   0.00000  Uiso   1.00
H1223  H     0.72266   0.98001   0.54909   0.00000  Uiso   1.00
H1224  H     0.75039   0.92973   0.54438   0.00000  Uiso   1.00
C1225  C     0.16792   0.08655   0.83294   0.00000  Uiso   1.00
C1226  C     0.16423   0.24658   0.83354   0.00000  Uiso   1.00
C1227  C     0.06750   0.16168   0.82169   0.00000  Uiso   1.00
C1228  C     0.26585   0.16109   0.84499   0.00000  Uiso   1.00
C1229  C     0.01429   0.14780   0.81588   0.00000  Uiso   1.00
C1230  C     0.32062   0.15089   0.85235   0.00000  Uiso   1.00
C1231  C     0.19591   0.01838   0.80317   0.00000  Uiso   1.00
C1232  C     0.13252   0.31415   0.86124   0.00000  Uiso   1.00
C1233  C     0.19420   0.30918   0.80546   0.00000  Uiso   1.00
C1234  C     0.13600   0.02361   0.86053   0.00000  Uiso   1.00
C1235  C     0.16330   0.29061   0.83405   0.00000  Uiso   1.00
C1236  C     0.16730   0.04228   0.83200   0.00000  Uiso   1.00
C1237  C     0.19121   0.19735   0.69451   0.00000  Uiso   1.00
C1238  C     0.14334   0.13543   0.97237   0.00000  Uiso   1.00
C1239  C     0.19112   0.19736   0.97981   0.00000  Uiso   1.00
C1240  C     0.14277   0.13575   0.68693   0.00000  Uiso   1.00
H1241  H     0.21707   0.29030   0.78439   0.00000  Uiso   1.00
H1242  H     0.11267   0.04255   0.88112   0.00000  Uiso   1.00
H1243  H     0.21095   0.22181   0.71580   0.00000  Uiso   1.00
H1244  H     0.12514   0.11018   0.95143   0.00000  Uiso   1.00
H1245  H     0.21107   0.22164   0.96467   0.00000  Uiso   1.00
H1246  H     0.12280   0.11156   0.70206   0.00000  Uiso   1.00
N1247  N     0.16665   0.16666   0.95240   0.00000  Uiso   1.00
N1248  N     0.16668   0.16668   0.71427   0.00000  Uiso   1.00
O1249  O     0.16666   0.10558   0.87154   0.00000  Uiso   1.00
O1250  O     0.16667   0.22775   0.79513   0.00000  Uiso   1.00
O1251  O     0.16666   0.10559   0.79510   0.00000  Uiso   1.00
O1252  O     0.16667   0.22774   0.87157   0.00000  Uiso   1.00
O1253  O     0.09058   0.16666   0.86261   0.00000  Uiso   1.00
O1254  O     0.24275   0.16667   0.80405   0.00000  Uiso   1.00
O1255  O     0.09058   0.16667   0.78617   0.00000  Uiso   1.00
O1256  O     0.24275   0.16666   0.88050   0.00000  Uiso   1.00
Zn1257 Zn    0.16667   0.16666   0.88437   0.00000  Uiso   1.00
Zn1258 Zn    0.16667   0.16667   0.78229   0.00000  Uiso   1.00
C1259  C     0.32685   0.12895   0.76853   0.00000  Uiso   1.00
C1260  C     0.02283   0.08793   0.76025   0.00000  Uiso   1.00
C1261  C     0.00916   0.07172   0.71093   0.00000  Uiso   1.00
H1262  H     0.29970   0.06805   0.70188   0.00000  Uiso   1.00
H1263  H     0.02294   0.09349   0.68671   0.00000  Uiso   1.00
H1264  H     0.02860   0.04101   0.70717   0.00000  Uiso   1.00
H1265  H     0.06579   0.09192   0.76712   0.00000  Uiso   1.00
H1266  H     0.01254   0.06410   0.78412   0.00000  Uiso   1.00
H1267  H     0.28516   0.12123   0.76378   0.00000  Uiso   1.00
H1268  H     0.33187   0.15171   0.74166   0.00000  Uiso   1.00
C1269  C     0.01068   0.14533   0.90300   0.00000  Uiso   1.00
C1270  C     0.01821   0.18744   0.92958   0.00000  Uiso   1.00
C1271  C     0.01121   0.18356   0.97989   0.00000  Uiso   1.00
H1272  H     0.30452   0.17281   0.98271   0.00000  Uiso   1.00
H1273  H     0.04029   0.16127   0.99722   0.00000  Uiso   1.00
H1274  H     0.01703   0.21433   0.99762   0.00000  Uiso   1.00
H1275  H     0.05790   0.19955   0.92828   0.00000  Uiso   1.00
H1276  H     0.32304   0.21125   0.91402   0.00000  Uiso   1.00
H1277  H     0.31696   0.12557   0.91904   0.00000  Uiso   1.00
H1278  H     0.04694   0.12613   0.90710   0.00000  Uiso   1.00
C1279  C     0.22699   0.03591   0.76851   0.00000  Uiso   1.00
C1280  C     0.19475   0.03428   0.72062   0.00000  Uiso   1.00
H1281  H     0.19305   0.00176   0.70697   0.00000  Uiso   1.00
H1282  H     0.15415   0.04560   0.72190   0.00000  Uiso   1.00
H1283  H     0.21247   0.05395   0.69672   0.00000  Uiso   1.00
H1284  H     0.23966   0.06780   0.77796   0.00000  Uiso   1.00
H1285  H     0.26382   0.01757   0.76796   0.00000  Uiso   1.00
C1286  C     0.09357   0.29553   0.88872   0.00000  Uiso   1.00
C1287  C     0.11396   0.29698   0.94007   0.00000  Uiso   1.00
H1288  H     0.08610   0.28112   0.95909   0.00000  Uiso   1.00
H1289  H     0.15263   0.28102   0.94701   0.00000  Uiso   1.00
H1290  H     0.11799   0.32973   0.95278   0.00000  Uiso   1.00
H1291  H     0.05600   0.31334   0.88243   0.00000  Uiso   1.00
H1292  H     0.08372   0.26306   0.87771   0.00000  Uiso   1.00
C1293  C     0.50125   0.08655   0.83294   0.00000  Uiso   1.00
C1294  C     0.49756   0.24658   0.83354   0.00000  Uiso   1.00
C1295  C     0.40083   0.16168   0.82169   0.00000  Uiso   1.00
C1296  C     0.59918   0.16109   0.84499   0.00000  Uiso   1.00
C1297  C     0.34762   0.14780   0.81588   0.00000  Uiso   1.00
C1298  C     0.65395   0.15089   0.85235   0.00000  Uiso   1.00
C1299  C     0.52924   0.01838   0.80317   0.00000  Uiso   1.00
C1300  C     0.46585   0.31415   0.86124   0.00000  Uiso   1.00
C1301  C     0.52753   0.30918   0.80546   0.00000  Uiso   1.00
C1302  C     0.46934   0.02361   0.86053   0.00000  Uiso   1.00
C1303  C     0.49663   0.29061   0.83405   0.00000  Uiso   1.00
C1304  C     0.50063   0.04228   0.83200   0.00000  Uiso   1.00
C1305  C     0.52454   0.19735   0.69451   0.00000  Uiso   1.00
C1306  C     0.47667   0.13543   0.97237   0.00000  Uiso   1.00
C1307  C     0.52446   0.19736   0.97981   0.00000  Uiso   1.00
C1308  C     0.47611   0.13575   0.68693   0.00000  Uiso   1.00
H1309  H     0.55040   0.29030   0.78439   0.00000  Uiso   1.00
H1310  H     0.44600   0.04255   0.88112   0.00000  Uiso   1.00
H1311  H     0.54428   0.22181   0.71580   0.00000  Uiso   1.00
H1312  H     0.45848   0.11018   0.95143   0.00000  Uiso   1.00
H1313  H     0.54440   0.22164   0.96467   0.00000  Uiso   1.00
H1314  H     0.45614   0.11156   0.70206   0.00000  Uiso   1.00
N1315  N     0.49999   0.16666   0.95240   0.00000  Uiso   1.00
N1316  N     0.50001   0.16668   0.71427   0.00000  Uiso   1.00
O1317  O     0.50000   0.10558   0.87154   0.00000  Uiso   1.00
O1318  O     0.50000   0.22775   0.79513   0.00000  Uiso   1.00
O1319  O     0.50000   0.10559   0.79510   0.00000  Uiso   1.00
O1320  O     0.50000   0.22774   0.87157   0.00000  Uiso   1.00
O1321  O     0.42392   0.16666   0.86261   0.00000  Uiso   1.00
O1322  O     0.57608   0.16667   0.80405   0.00000  Uiso   1.00
O1323  O     0.42392   0.16667   0.78617   0.00000  Uiso   1.00
O1324  O     0.57608   0.16666   0.88050   0.00000  Uiso   1.00
Zn1325 Zn    0.50000   0.16666   0.88437   0.00000  Uiso   1.00
Zn1326 Zn    0.50000   0.16667   0.78229   0.00000  Uiso   1.00
C1327  C     0.66019   0.12895   0.76853   0.00000  Uiso   1.00
C1328  C     0.35616   0.08793   0.76025   0.00000  Uiso   1.00
C1329  C     0.34250   0.07172   0.71093   0.00000  Uiso   1.00
H1330  H     0.63304   0.06805   0.70188   0.00000  Uiso   1.00
H1331  H     0.35627   0.09349   0.68671   0.00000  Uiso   1.00
H1332  H     0.36193   0.04101   0.70717   0.00000  Uiso   1.00
H1333  H     0.39913   0.09192   0.76712   0.00000  Uiso   1.00
H1334  H     0.34587   0.06410   0.78412   0.00000  Uiso   1.00
H1335  H     0.61849   0.12123   0.76378   0.00000  Uiso   1.00
H1336  H     0.66521   0.15171   0.74166   0.00000  Uiso   1.00
C1337  C     0.34401   0.14533   0.90300   0.00000  Uiso   1.00
C1338  C     0.35154   0.18744   0.92958   0.00000  Uiso   1.00
C1339  C     0.34454   0.18356   0.97989   0.00000  Uiso   1.00
H1340  H     0.63785   0.17281   0.98271   0.00000  Uiso   1.00
H1341  H     0.37363   0.16127   0.99722   0.00000  Uiso   1.00
H1342  H     0.35037   0.21433   0.99762   0.00000  Uiso   1.00
H1343  H     0.39123   0.19955   0.92828   0.00000  Uiso   1.00
H1344  H     0.65638   0.21125   0.91402   0.00000  Uiso   1.00
H1345  H     0.65029   0.12557   0.91904   0.00000  Uiso   1.00
H1346  H     0.38027   0.12613   0.90710   0.00000  Uiso   1.00
C1347  C     0.56033   0.03591   0.76851   0.00000  Uiso   1.00
C1348  C     0.52808   0.03428   0.72062   0.00000  Uiso   1.00
H1349  H     0.52639   0.00176   0.70697   0.00000  Uiso   1.00
H1350  H     0.48748   0.04560   0.72190   0.00000  Uiso   1.00
H1351  H     0.54580   0.05395   0.69672   0.00000  Uiso   1.00
H1352  H     0.57300   0.06780   0.77796   0.00000  Uiso   1.00
H1353  H     0.59715   0.01757   0.76796   0.00000  Uiso   1.00
C1354  C     0.42690   0.29553   0.88872   0.00000  Uiso   1.00
C1355  C     0.44729   0.29698   0.94007   0.00000  Uiso   1.00
H1356  H     0.41943   0.28112   0.95909   0.00000  Uiso   1.00
H1357  H     0.48596   0.28102   0.94701   0.00000  Uiso   1.00
H1358  H     0.45133   0.32973   0.95278   0.00000  Uiso   1.00
H1359  H     0.38933   0.31334   0.88243   0.00000  Uiso   1.00
H1360  H     0.41706   0.26306   0.87771   0.00000  Uiso   1.00
C1361  C     0.83459   0.08655   0.83294   0.00000  Uiso   1.00
C1362  C     0.83089   0.24658   0.83354   0.00000  Uiso   1.00
C1363  C     0.73417   0.16168   0.82169   0.00000  Uiso   1.00
C1364  C     0.93252   0.16109   0.84499   0.00000  Uiso   1.00
C1365  C     0.68095   0.14780   0.81588   0.00000  Uiso   1.00
C1366  C     0.98728   0.15089   0.85235   0.00000  Uiso   1.00
C1367  C     0.86257   0.01838   0.80317   0.00000  Uiso   1.00
C1368  C     0.79918   0.31415   0.86124   0.00000  Uiso   1.00
C1369  C     0.86086   0.30918   0.80546   0.00000  Uiso   1.00
C1370  C     0.80267   0.02361   0.86053   0.00000  Uiso   1.00
C1371  C     0.82996   0.29061   0.83405   0.00000  Uiso   1.00
C1372  C     0.83397   0.04228   0.83200   0.00000  Uiso   1.00
C1373  C     0.85788   0.19735   0.69451   0.00000  Uiso   1.00
C1374  C     0.81001   0.13543   0.97237   0.00000  Uiso   1.00
C1375  C     0.85779   0.19736   0.97981   0.00000  Uiso   1.00
C1376  C     0.80944   0.13575   0.68693   0.00000  Uiso   1.00
H1377  H     0.88374   0.29030   0.78439   0.00000  Uiso   1.00
H1378  H     0.77933   0.04255   0.88112   0.00000  Uiso   1.00
H1379  H     0.87762   0.22181   0.71580   0.00000  Uiso   1.00
H1380  H     0.79181   0.11018   0.95143   0.00000  Uiso   1.00
H1381  H     0.87774   0.22164   0.96467   0.00000  Uiso   1.00
H1382  H     0.78947   0.11156   0.70206   0.00000  Uiso   1.00
N1383  N     0.83332   0.16666   0.95240   0.00000  Uiso   1.00
N1384  N     0.83335   0.16668   0.71427   0.00000  Uiso   1.00
O1385  O     0.83333   0.10558   0.87154   0.00000  Uiso   1.00
O1386  O     0.83334   0.22775   0.79513   0.00000  Uiso   1.00
O1387  O     0.83333   0.10559   0.79510   0.00000  Uiso   1.00
O1388  O     0.83334   0.22774   0.87157   0.00000  Uiso   1.00
O1389  O     0.75725   0.16666   0.86261   0.00000  Uiso   1.00
O1390  O     0.90942   0.16667   0.80405   0.00000  Uiso   1.00
O1391  O     0.75725   0.16667   0.78617   0.00000  Uiso   1.00
O1392  O     0.90942   0.16666   0.88050   0.00000  Uiso   1.00
Zn1393 Zn    0.83333   0.16666   0.88437   0.00000  Uiso   1.00
Zn1394 Zn    0.83333   0.16667   0.78229   0.00000  Uiso   1.00
C1395  C     0.99352   0.12895   0.76853   0.00000  Uiso   1.00
C1396  C     0.68949   0.08793   0.76025   0.00000  Uiso   1.00
C1397  C     0.67583   0.07172   0.71093   0.00000  Uiso   1.00
H1398  H     0.96637   0.06805   0.70188   0.00000  Uiso   1.00
H1399  H     0.68960   0.09349   0.68671   0.00000  Uiso   1.00
H1400  H     0.69526   0.04101   0.70717   0.00000  Uiso   1.00
H1401  H     0.73246   0.09192   0.76712   0.00000  Uiso   1.00
H1402  H     0.67921   0.06410   0.78412   0.00000  Uiso   1.00
H1403  H     0.95182   0.12123   0.76378   0.00000  Uiso   1.00
H1404  H     0.99854   0.15171   0.74166   0.00000  Uiso   1.00
C1405  C     0.67734   0.14533   0.90300   0.00000  Uiso   1.00
C1406  C     0.68488   0.18744   0.92958   0.00000  Uiso   1.00
C1407  C     0.67788   0.18356   0.97989   0.00000  Uiso   1.00
H1408  H     0.97119   0.17281   0.98271   0.00000  Uiso   1.00
H1409  H     0.70696   0.16127   0.99722   0.00000  Uiso   1.00
H1410  H     0.68370   0.21433   0.99762   0.00000  Uiso   1.00
H1411  H     0.72457   0.19955   0.92828   0.00000  Uiso   1.00
H1412  H     0.98971   0.21125   0.91402   0.00000  Uiso   1.00
H1413  H     0.98363   0.12557   0.91904   0.00000  Uiso   1.00
H1414  H     0.71360   0.12613   0.90710   0.00000  Uiso   1.00
C1415  C     0.89366   0.03591   0.76851   0.00000  Uiso   1.00
C1416  C     0.86141   0.03428   0.72062   0.00000  Uiso   1.00
H1417  H     0.85972   0.00176   0.70697   0.00000  Uiso   1.00
H1418  H     0.82081   0.04560   0.72190   0.00000  Uiso   1.00
H1419  H     0.87914   0.05395   0.69672   0.00000  Uiso   1.00
H1420  H     0.90633   0.06780   0.77796   0.00000  Uiso   1.00
H1421  H     0.93049   0.01757   0.76796   0.00000  Uiso   1.00
C1422  C     0.76024   0.29553   0.88872   0.00000  Uiso   1.00
C1423  C     0.78062   0.29698   0.94007   0.00000  Uiso   1.00
H1424  H     0.75277   0.28112   0.95909   0.00000  Uiso   1.00
H1425  H     0.81929   0.28102   0.94701   0.00000  Uiso   1.00
H1426  H     0.78466   0.32973   0.95278   0.00000  Uiso   1.00
H1427  H     0.72266   0.31334   0.88243   0.00000  Uiso   1.00
H1428  H     0.75039   0.26306   0.87771   0.00000  Uiso   1.00
C1429  C     0.16792   0.41989   0.83294   0.00000  Uiso   1.00
C1430  C     0.16423   0.57991   0.83354   0.00000  Uiso   1.00
C1431  C     0.06750   0.49501   0.82169   0.00000  Uiso   1.00
C1432  C     0.26585   0.49442   0.84499   0.00000  Uiso   1.00
C1433  C     0.01429   0.48114   0.81588   0.00000  Uiso   1.00
C1434  C     0.32062   0.48422   0.85235   0.00000  Uiso   1.00
C1435  C     0.19591   0.35171   0.80317   0.00000  Uiso   1.00
C1436  C     0.13252   0.64748   0.86124   0.00000  Uiso   1.00
C1437  C     0.19420   0.64251   0.80546   0.00000  Uiso   1.00
C1438  C     0.13600   0.35694   0.86053   0.00000  Uiso   1.00
C1439  C     0.16330   0.62394   0.83405   0.00000  Uiso   1.00
C1440  C     0.16730   0.37561   0.83200   0.00000  Uiso   1.00
C1441  C     0.19121   0.53069   0.69451   0.00000  Uiso   1.00
C1442  C     0.14334   0.46876   0.97237   0.00000  Uiso   1.00
C1443  C     0.19112   0.53070   0.97981   0.00000  Uiso   1.00
C1444  C     0.14277   0.46909   0.68693   0.00000  Uiso   1.00
H1445  H     0.21707   0.62363   0.78439   0.00000  Uiso   1.00
H1446  H     0.11267   0.37589   0.88112   0.00000  Uiso   1.00
H1447  H     0.21095   0.55514   0.71580   0.00000  Uiso   1.00
H1448  H     0.12514   0.44351   0.95143   0.00000  Uiso   1.00
H1449  H     0.21107   0.55498   0.96467   0.00000  Uiso   1.00
H1450  H     0.12280   0.44489   0.70206   0.00000  Uiso   1.00
N1451  N     0.16665   0.49999   0.95240   0.00000  Uiso   1.00
N1452  N     0.16668   0.50001   0.71427   0.00000  Uiso   1.00
O1453  O     0.16666   0.43892   0.87154   0.00000  Uiso   1.00
O1454  O     0.16667   0.56108   0.79513   0.00000  Uiso   1.00
O1455  O     0.16666   0.43893   0.79510   0.00000  Uiso   1.00
O1456  O     0.16667   0.56107   0.87157   0.00000  Uiso   1.00
O1457  O     0.09058   0.50000   0.86261   0.00000  Uiso   1.00
O1458  O     0.24275   0.50000   0.80405   0.00000  Uiso   1.00
O1459  O     0.09058   0.50000   0.78617   0.00000  Uiso   1.00
O1460  O     0.24275   0.50000   0.88050   0.00000  Uiso   1.00
Zn1461 Zn    0.16667   0.49999   0.88437   0.00000  Uiso   1.00
Zn1462 Zn    0.16667   0.50001   0.78229   0.00000  Uiso   1.00
C1463  C     0.32685   0.46229   0.76853   0.00000  Uiso   1.00
C1464  C     0.02283   0.42126   0.76025   0.00000  Uiso   1.00
C1465  C     0.00916   0.40505   0.71093   0.00000  Uiso   1.00
H1466  H     0.29970   0.40139   0.70188   0.00000  Uiso   1.00
H1467  H     0.02294   0.42683   0.68671   0.00000  Uiso   1.00
H1468  H     0.02860   0.37434   0.70717   0.00000  Uiso   1.00
H1469  H     0.06579   0.42525   0.76712   0.00000  Uiso   1.00
H1470  H     0.01254   0.39743   0.78412   0.00000  Uiso   1.00
H1471  H     0.28516   0.45456   0.76378   0.00000  Uiso   1.00
H1472  H     0.33187   0.48504   0.74166   0.00000  Uiso   1.00
C1473  C     0.01068   0.47866   0.90300   0.00000  Uiso   1.00
C1474  C     0.01821   0.52077   0.92958   0.00000  Uiso   1.00
C1475  C     0.01121   0.51690   0.97989   0.00000  Uiso   1.00
H1476  H     0.30452   0.50614   0.98271   0.00000  Uiso   1.00
H1477  H     0.04029   0.49460   0.99722   0.00000  Uiso   1.00
H1478  H     0.01703   0.54767   0.99762   0.00000  Uiso   1.00
H1479  H     0.05790   0.53289   0.92828   0.00000  Uiso   1.00
H1480  H     0.32304   0.54458   0.91402   0.00000  Uiso   1.00
H1481  H     0.31696   0.45890   0.91904   0.00000  Uiso   1.00
H1482  H     0.04694   0.45946   0.90710   0.00000  Uiso   1.00
C1483  C     0.22699   0.36924   0.76851   0.00000  Uiso   1.00
C1484  C     0.19475   0.36761   0.72062   0.00000  Uiso   1.00
H1485  H     0.19305   0.33509   0.70697   0.00000  Uiso   1.00
H1486  H     0.15415   0.37894   0.72190   0.00000  Uiso   1.00
H1487  H     0.21247   0.38728   0.69672   0.00000  Uiso   1.00
H1488  H     0.23966   0.40114   0.77796   0.00000  Uiso   1.00
H1489  H     0.26382   0.35090   0.76796   0.00000  Uiso   1.00
C1490  C     0.09357   0.62887   0.88872   0.00000  Uiso   1.00
C1491  C     0.11396   0.63031   0.94007   0.00000  Uiso   1.00
H1492  H     0.08610   0.61445   0.95909   0.00000  Uiso   1.00
H1493  H     0.15263   0.61436   0.94701   0.00000  Uiso   1.00
H1494  H     0.11799   0.66306   0.95278   0.00000  Uiso   1.00
H1495  H     0.05600   0.64667   0.88243   0.00000  Uiso   1.00
H1496  H     0.08372   0.59640   0.87771   0.00000  Uiso   1.00
C1497  C     0.50125   0.41989   0.83294   0.00000  Uiso   1.00
C1498  C     0.49756   0.57991   0.83354   0.00000  Uiso   1.00
C1499  C     0.40083   0.49501   0.82169   0.00000  Uiso   1.00
C1500  C     0.59918   0.49442   0.84499   0.00000  Uiso   1.00
C1501  C     0.34762   0.48114   0.81588   0.00000  Uiso   1.00
C1502  C     0.65395   0.48422   0.85235   0.00000  Uiso   1.00
C1503  C     0.52924   0.35171   0.80317   0.00000  Uiso   1.00
C1504  C     0.46585   0.64748   0.86124   0.00000  Uiso   1.00
C1505  C     0.52753   0.64251   0.80546   0.00000  Uiso   1.00
C1506  C     0.46934   0.35694   0.86053   0.00000  Uiso   1.00
C1507  C     0.49663   0.62394   0.83405   0.00000  Uiso   1.00
C1508  C     0.50063   0.37561   0.83200   0.00000  Uiso   1.00
C1509  C     0.52454   0.53069   0.69451   0.00000  Uiso   1.00
C1510  C     0.47667   0.46876   0.97237   0.00000  Uiso   1.00
C1511  C     0.52446   0.53070   0.97981   0.00000  Uiso   1.00
C1512  C     0.47611   0.46909   0.68693   0.00000  Uiso   1.00
H1513  H     0.55040   0.62363   0.78439   0.00000  Uiso   1.00
H1514  H     0.44600   0.37589   0.88112   0.00000  Uiso   1.00
H1515  H     0.54428   0.55514   0.71580   0.00000  Uiso   1.00
H1516  H     0.45848   0.44351   0.95143   0.00000  Uiso   1.00
H1517  H     0.54440   0.55498   0.96467   0.00000  Uiso   1.00
H1518  H     0.45614   0.44489   0.70206   0.00000  Uiso   1.00
N1519  N     0.49999   0.49999   0.95240   0.00000  Uiso   1.00
N1520  N     0.50001   0.50001   0.71427   0.00000  Uiso   1.00
O1521  O     0.50000   0.43892   0.87154   0.00000  Uiso   1.00
O1522  O     0.50000   0.56108   0.79513   0.00000  Uiso   1.00
O1523  O     0.50000   0.43893   0.79510   0.00000  Uiso   1.00
O1524  O     0.50000   0.56107   0.87157   0.00000  Uiso   1.00
O1525  O     0.42392   0.50000   0.86261   0.00000  Uiso   1.00
O1526  O     0.57608   0.50000   0.80405   0.00000  Uiso   1.00
O1527  O     0.42392   0.50000   0.78617   0.00000  Uiso   1.00
O1528  O     0.57608   0.50000   0.88050   0.00000  Uiso   1.00
Zn1529 Zn    0.50000   0.49999   0.88437   0.00000  Uiso   1.00
Zn1530 Zn    0.50000   0.50001   0.78229   0.00000  Uiso   1.00
C1531  C     0.66019   0.46229   0.76853   0.00000  Uiso   1.00
C1532  C     0.35616   0.42126   0.76025   0.00000  Uiso   1.00
C1533  C     0.34250   0.40505   0.71093   0.00000  Uiso   1.00
H1534  H     0.63304   0.40139   0.70188   0.00000  Uiso   1.00
H1535  H     0.35627   0.42683   0.68671   0.00000  Uiso   1.00
H1536  H     0.36193   0.37434   0.70717   0.00000  Uiso   1.00
H1537  H     0.39913   0.42525   0.76712   0.00000  Uiso   1.00
H1538  H     0.34587   0.39743   0.78412   0.00000  Uiso   1.00
H1539  H     0.61849   0.45456   0.76378   0.00000  Uiso   1.00
H1540  H     0.66521   0.48504   0.74166   0.00000  Uiso   1.00
C1541  C     0.34401   0.47866   0.90300   0.00000  Uiso   1.00
C1542  C     0.35154   0.52077   0.92958   0.00000  Uiso   1.00
C1543  C     0.34454   0.51690   0.97989   0.00000  Uiso   1.00
H1544  H     0.63785   0.50614   0.98271   0.00000  Uiso   1.00
H1545  H     0.37363   0.49460   0.99722   0.00000  Uiso   1.00
H1546  H     0.35037   0.54767   0.99762   0.00000  Uiso   1.00
H1547  H     0.39123   0.53289   0.92828   0.00000  Uiso   1.00
H1548  H     0.65638   0.54458   0.91402   0.00000  Uiso   1.00
H1549  H     0.65029   0.45890   0.91904   0.00000  Uiso   1.00
H1550  H     0.38027   0.45946   0.90710   0.00000  Uiso   1.00
C1551  C     0.56033   0.36924   0.76851   0.00000  Uiso   1.00
C1552  C     0.52808   0.36761   0.72062   0.00000  Uiso   1.00
H1553  H     0.52639   0.33509   0.70697   0.00000  Uiso   1.00
H1554  H     0.48748   0.37894   0.72190   0.00000  Uiso   1.00
H1555  H     0.54580   0.38728   0.69672   0.00000  Uiso   1.00
H1556  H     0.57300   0.40114   0.77796   0.00000  Uiso   1.00
H1557  H     0.59715   0.35090   0.76796   0.00000  Uiso   1.00
C1558  C     0.42690   0.62887   0.88872   0.00000  Uiso   1.00
C1559  C     0.44729   0.63031   0.94007   0.00000  Uiso   1.00
H1560  H     0.41943   0.61445   0.95909   0.00000  Uiso   1.00
H1561  H     0.48596   0.61436   0.94701   0.00000  Uiso   1.00
H1562  H     0.45133   0.66306   0.95278   0.00000  Uiso   1.00
H1563  H     0.38933   0.64667   0.88243   0.00000  Uiso   1.00
H1564  H     0.41706   0.59640   0.87771   0.00000  Uiso   1.00
C1565  C     0.83459   0.41989   0.83294   0.00000  Uiso   1.00
C1566  C     0.83089   0.57991   0.83354   0.00000  Uiso   1.00
C1567  C     0.73417   0.49501   0.82169   0.00000  Uiso   1.00
C1568  C     0.93252   0.49442   0.84499   0.00000  Uiso   1.00
C1569  C     0.68095   0.48114   0.81588   0.00000  Uiso   1.00
C1570  C     0.98728   0.48422   0.85235   0.00000  Uiso   1.00
C1571  C     0.86257   0.35171   0.80317   0.00000  Uiso   1.00
C1572  C     0.79918   0.64748   0.86124   0.00000  Uiso   1.00
C1573  C     0.86086   0.64251   0.80546   0.00000  Uiso   1.00
C1574  C     0.80267   0.35694   0.86053   0.00000  Uiso   1.00
C1575  C     0.82996   0.62394   0.83405   0.00000  Uiso   1.00
C1576  C     0.83397   0.37561   0.83200   0.00000  Uiso   1.00
C1577  C     0.85788   0.53069   0.69451   0.00000  Uiso   1.00
C1578  C     0.81001   0.46876   0.97237   0.00000  Uiso   1.00
C1579  C     0.85779   0.53070   0.97981   0.00000  Uiso   1.00
C1580  C     0.80944   0.46909   0.68693   0.00000  Uiso   1.00
H1581  H     0.88374   0.62363   0.78439   0.00000  Uiso   1.00
H1582  H     0.77933   0.37589   0.88112   0.00000  Uiso   1.00
H1583  H     0.87762   0.55514   0.71580   0.00000  Uiso   1.00
H1584  H     0.79181   0.44351   0.95143   0.00000  Uiso   1.00
H1585  H     0.87774   0.55498   0.96467   0.00000  Uiso   1.00
H1586  H     0.78947   0.44489   0.70206   0.00000  Uiso   1.00
N1587  N     0.83332   0.49999   0.95240   0.00000  Uiso   1.00
N1588  N     0.83335   0.50001   0.71427   0.00000  Uiso   1.00
O1589  O     0.83333   0.43892   0.87154   0.00000  Uiso   1.00
O1590  O     0.83334   0.56108   0.79513   0.00000  Uiso   1.00
O1591  O     0.83333   0.43893   0.79510   0.00000  Uiso   1.00
O1592  O     0.83334   0.56107   0.87157   0.00000  Uiso   1.00
O1593  O     0.75725   0.50000   0.86261   0.00000  Uiso   1.00
O1594  O     0.90942   0.50000   0.80405   0.00000  Uiso   1.00
O1595  O     0.75725   0.50000   0.78617   0.00000  Uiso   1.00
O1596  O     0.90942   0.50000   0.88050   0.00000  Uiso   1.00
Zn1597 Zn    0.83333   0.49999   0.88437   0.00000  Uiso   1.00
Zn1598 Zn    0.83333   0.50001   0.78229   0.00000  Uiso   1.00
C1599  C     0.99352   0.46229   0.76853   0.00000  Uiso   1.00
C1600  C     0.68949   0.42126   0.76025   0.00000  Uiso   1.00
C1601  C     0.67583   0.40505   0.71093   0.00000  Uiso   1.00
H1602  H     0.96637   0.40139   0.70188   0.00000  Uiso   1.00
H1603  H     0.68960   0.42683   0.68671   0.00000  Uiso   1.00
H1604  H     0.69526   0.37434   0.70717   0.00000  Uiso   1.00
H1605  H     0.73246   0.42525   0.76712   0.00000  Uiso   1.00
H1606  H     0.67921   0.39743   0.78412   0.00000  Uiso   1.00
H1607  H     0.95182   0.45456   0.76378   0.00000  Uiso   1.00
H1608  H     0.99854   0.48504   0.74166   0.00000  Uiso   1.00
C1609  C     0.67734   0.47866   0.90300   0.00000  Uiso   1.00
C1610  C     0.68488   0.52077   0.92958   0.00000  Uiso   1.00
C1611  C     0.67788   0.51690   0.97989   0.00000  Uiso   1.00
H1612  H     0.97119   0.50614   0.98271   0.00000  Uiso   1.00
H1613  H     0.70696   0.49460   0.99722   0.00000  Uiso   1.00
H1614  H     0.68370   0.54767   0.99762   0.00000  Uiso   1.00
H1615  H     0.72457   0.53289   0.92828   0.00000  Uiso   1.00
H1616  H     0.98971   0.54458   0.91402   0.00000  Uiso   1.00
H1617  H     0.98363   0.45890   0.91904   0.00000  Uiso   1.00
H1618  H     0.71360   0.45946   0.90710   0.00000  Uiso   1.00
C1619  C     0.89366   0.36924   0.76851   0.00000  Uiso   1.00
C1620  C     0.86141   0.36761   0.72062   0.00000  Uiso   1.00
H1621  H     0.85972   0.33509   0.70697   0.00000  Uiso   1.00
H1622  H     0.82081   0.37894   0.72190   0.00000  Uiso   1.00
H1623  H     0.87914   0.38728   0.69672   0.00000  Uiso   1.00
H1624  H     0.90633   0.40114   0.77796   0.00000  Uiso   1.00
H1625  H     0.93049   0.35090   0.76796   0.00000  Uiso   1.00
C1626  C     0.76024   0.62887   0.88872   0.00000  Uiso   1.00
C1627  C     0.78062   0.63031   0.94007   0.00000  Uiso   1.00
H1628  H     0.75277   0.61445   0.95909   0.00000  Uiso   1.00
H1629  H     0.81929   0.61436   0.94701   0.00000  Uiso   1.00
H1630  H     0.78466   0.66306   0.95278   0.00000  Uiso   1.00
H1631  H     0.72266   0.64667   0.88243   0.00000  Uiso   1.00
H1632  H     0.75039   0.59640   0.87771   0.00000  Uiso   1.00
C1633  C     0.16792   0.75322   0.83294   0.00000  Uiso   1.00
C1634  C     0.16423   0.91324   0.83354   0.00000  Uiso   1.00
C1635  C     0.06750   0.82834   0.82169   0.00000  Uiso   1.00
C1636  C     0.26585   0.82776   0.84499   0.00000  Uiso   1.00
C1637  C     0.01429   0.81447   0.81588   0.00000  Uiso   1.00
C1638  C     0.32062   0.81755   0.85235   0.00000  Uiso   1.00
C1639  C     0.19591   0.68505   0.80317   0.00000  Uiso   1.00
C1640  C     0.13252   0.98081   0.86124   0.00000  Uiso   1.00
C1641  C     0.19420   0.97585   0.80546   0.00000  Uiso   1.00
C1642  C     0.13600   0.69028   0.86053   0.00000  Uiso   1.00
C1643  C     0.16330   0.95728   0.83405   0.00000  Uiso   1.00
C1644  C     0.16730   0.70894   0.83200   0.00000  Uiso   1.00
C1645  C     0.19121   0.86402   0.69451   0.00000  Uiso   1.00
C1646  C     0.14334   0.80209   0.97237   0.00000  Uiso   1.00
C1647  C     0.19112   0.86403   0.97981   0.00000  Uiso   1.00
C1648  C     0.14277   0.80242   0.68693   0.00000  Uiso   1.00
H1649  H     0.21707   0.95696   0.78439   0.00000  Uiso   1.00
H1650  H     0.11267   0.70922   0.88112   0.00000  Uiso   1.00
H1651  H     0.21095   0.88847   0.71580   0.00000  Uiso   1.00
H1652  H     0.12514   0.77685   0.95143   0.00000  Uiso   1.00
H1653  H     0.21107   0.88831   0.96467   0.00000  Uiso   1.00
H1654  H     0.12280   0.77823   0.70206   0.00000  Uiso   1.00
N1655  N     0.16665   0.83332   0.95240   0.00000  Uiso   1.00
N1656  N     0.16668   0.83334   0.71427   0.00000  Uiso   1.00
O1657  O     0.16666   0.77225   0.87154   0.00000  Uiso   1.00
O1658  O     0.16667   0.89442   0.79513   0.00000  Uiso   1.00
O1659  O     0.16666   0.77226   0.79510   0.00000  Uiso   1.00
O1660  O     0.16667   0.89441   0.87157   0.00000  Uiso   1.00
O1661  O     0.09058   0.83333   0.86261   0.00000  Uiso   1.00
O1662  O     0.24275   0.83334   0.80405   0.00000  Uiso   1.00
O1663  O     0.09058   0.83334   0.78617   0.00000  Uiso   1.00
O1664  O     0.24275   0.83333   0.88050   0.00000  Uiso   1.00
Zn1665 Zn    0.16667   0.83333   0.88437   0.00000  Uiso   1.00
Zn1666 Zn    0.16667   0.83334   0.78229   0.00000  Uiso   1.00
C1667  C     0.32685   0.79562   0.76853   0.00000  Uiso   1.00
C1668  C     0.02283   0.75459   0.76025   0.00000  Uiso   1.00
C1669  C     0.00916   0.73839   0.71093   0.00000  Uiso   1.00
H1670  H     0.29970   0.73472   0.70188   0.00000  Uiso   1.00
H1671  H     0.02294   0.76016   0.68671   0.00000  Uiso   1.00
H1672  H     0.02860   0.70767   0.70717   0.00000  Uiso   1.00
H1673  H     0.06579   0.75859   0.76712   0.00000  Uiso   1.00
H1674  H     0.01254   0.73077   0.78412   0.00000  Uiso   1.00
H1675  H     0.28516   0.78789   0.76378   0.00000  Uiso   1.00
H1676  H     0.33187   0.81837   0.74166   0.00000  Uiso   1.00
C1677  C     0.01068   0.81200   0.90300   0.00000  Uiso   1.00
C1678  C     0.01821   0.85410   0.92958   0.00000  Uiso   1.00
C1679  C     0.01121   0.85023   0.97989   0.00000  Uiso   1.00
H1680  H     0.30452   0.83947   0.98271   0.00000  Uiso   1.00
H1681  H     0.04029   0.82793   0.99722   0.00000  Uiso   1.00
H1682  H     0.01703   0.88100   0.99762   0.00000  Uiso   1.00
H1683  H     0.05790   0.86622   0.92828   0.00000  Uiso   1.00
H1684  H     0.32304   0.87792   0.91402   0.00000  Uiso   1.00
H1685  H     0.31696   0.79224   0.91904   0.00000  Uiso   1.00
H1686  H     0.04694   0.79280   0.90710   0.00000  Uiso   1.00
C1687  C     0.22699   0.70258   0.76851   0.00000  Uiso   1.00
C1688  C     0.19475   0.70094   0.72062   0.00000  Uiso   1.00
H1689  H     0.19305   0.66842   0.70697   0.00000  Uiso   1.00
H1690  H     0.15415   0.71227   0.72190   0.00000  Uiso   1.00
H1691  H     0.21247   0.72062   0.69672   0.00000  Uiso   1.00
H1692  H     0.23966   0.73447   0.77796   0.00000  Uiso   1.00
H1693  H     0.26382   0.68424   0.76796   0.00000  Uiso   1.00
C1694  C     0.09357   0.96220   0.88872   0.00000  Uiso   1.00
C1695  C     0.11396   0.96365   0.94007   0.00000  Uiso   1.00
H1696  H     0.08610   0.94779   0.95909   0.00000  Uiso   1.00
H1697  H     0.15263   0.94769   0.94701   0.00000  Uiso   1.00
H1698  H     0.11799   0.99639   0.95278   0.00000  Uiso   1.00
H1699  H     0.05600   0.98001   0.88243   0.00000  Uiso   1.00
H1700  H     0.08372   0.92973   0.87771   0.00000  Uiso   1.00
C1701  C     0.50125   0.75322   0.83294   0.00000  Uiso   1.00
C1702  C     0.49756   0.91324   0.83354   0.00000  Uiso   1.00
C1703  C     0.40083   0.82834   0.82169   0.00000  Uiso   1.00
C1704  C     0.59918   0.82776   0.84499   0.00000  Uiso   1.00
C1705  C     0.34762   0.81447   0.81588   0.00000  Uiso   1.00
C1706  C     0.65395   0.81755   0.85235   0.00000  Uiso   1.00
C1707  C     0.52924   0.68505   0.80317   0.00000  Uiso   1.00
C1708  C     0.46585   0.98081   0.86124   0.00000  Uiso   1.00
C1709  C     0.52753   0.97585   0.80546   0.00000  Uiso   1.00
C1710  C     0.46934   0.69028   0.86053   0.00000  Uiso   1.00
C1711  C     0.49663   0.95728   0.83405   0.00000  Uiso   1.00
C1712  C     0.50063   0.70894   0.83200   0.00000  Uiso   1.00
C1713  C     0.52454   0.86402   0.69451   0.00000  Uiso   1.00
C1714  C     0.47667   0.80209   0.97237   0.00000  Uiso   1.00
C1715  C     0.52446   0.86403   0.97981   0.00000  Uiso   1.00
C1716  C     0.47611   0.80242   0.68693   0.00000  Uiso   1.00
H1717  H     0.55040   0.95696   0.78439   0.00000  Uiso   1.00
H1718  H     0.44600   0.70922   0.88112   0.00000  Uiso   1.00
H1719  H     0.54428   0.88847   0.71580   0.00000  Uiso   1.00
H1720  H     0.45848   0.77685   0.95143   0.00000  Uiso   1.00
H1721  H     0.54440   0.88831   0.96467   0.00000  Uiso   1.00
H1722  H     0.45614   0.77823   0.70206   0.00000  Uiso   1.00
N1723  N     0.49999   0.83332   0.95240   0.00000  Uiso   1.00
N1724  N     0.50001   0.83334   0.71427   0.00000  Uiso   1.00
O1725  O     0.50000   0.77225   0.87154   0.00000  Uiso   1.00
O1726  O     0.50000   0.89442   0.79513   0.00000  Uiso   1.00
O1727  O     0.50000   0.77226   0.79510   0.00000  Uiso   1.00
O1728  O     0.50000   0.89441   0.87157   0.00000  Uiso   1.00
O1729  O     0.42392   0.83333   0.86261   0.00000  Uiso   1.00
O1730  O     0.57608   0.83334   0.80405   0.00000  Uiso   1.00
O1731  O     0.42392   0.83334   0.78617   0.00000  Uiso   1.00
O1732  O     0.57608   0.83333   0.88050   0.00000  Uiso   1.00
Zn1733 Zn    0.50000   0.83333   0.88437   0.00000  Uiso   1.00
Zn1734 Zn    0.50000   0.83334   0.78229   0.00000  Uiso   1.00
C1735  C     0.66019   0.79562   0.76853   0.00000  Uiso   1.00
C1736  C     0.35616   0.75459   0.76025   0.00000  Uiso   1.00
C1737  C     0.34250   0.73839   0.71093   0.00000  Uiso   1.00
H1738  H     0.63304   0.73472   0.70188   0.00000  Uiso   1.00
H1739  H     0.35627   0.76016   0.68671   0.00000  Uiso   1.00
H1740  H     0.36193   0.70767   0.70717   0.00000  Uiso   1.00
H1741  H     0.39913   0.75859   0.76712   0.00000  Uiso   1.00
H1742  H     0.34587   0.73077   0.78412   0.00000  Uiso   1.00
H1743  H     0.61849   0.78789   0.76378   0.00000  Uiso   1.00
H1744  H     0.66521   0.81837   0.74166   0.00000  Uiso   1.00
C1745  C     0.34401   0.81200   0.90300   0.00000  Uiso   1.00
C1746  C     0.35154   0.85410   0.92958   0.00000  Uiso   1.00
C1747  C     0.34454   0.85023   0.97989   0.00000  Uiso   1.00
H1748  H     0.63785   0.83947   0.98271   0.00000  Uiso   1.00
H1749  H     0.37363   0.82793   0.99722   0.00000  Uiso   1.00
H1750  H     0.35037   0.88100   0.99762   0.00000  Uiso   1.00
H1751  H     0.39123   0.86622   0.92828   0.00000  Uiso   1.00
H1752  H     0.65638   0.87792   0.91402   0.00000  Uiso   1.00
H1753  H     0.65029   0.79224   0.91904   0.00000  Uiso   1.00
H1754  H     0.38027   0.79280   0.90710   0.00000  Uiso   1.00
C1755  C     0.56033   0.70258   0.76851   0.00000  Uiso   1.00
C1756  C     0.52808   0.70094   0.72062   0.00000  Uiso   1.00
H1757  H     0.52639   0.66842   0.70697   0.00000  Uiso   1.00
H1758  H     0.48748   0.71227   0.72190   0.00000  Uiso   1.00
H1759  H     0.54580   0.72062   0.69672   0.00000  Uiso   1.00
H1760  H     0.57300   0.73447   0.77796   0.00000  Uiso   1.00
H1761  H     0.59715   0.68424   0.76796   0.00000  Uiso   1.00
C1762  C     0.42690   0.96220   0.88872   0.00000  Uiso   1.00
C1763  C     0.44729   0.96365   0.94007   0.00000  Uiso   1.00
H1764  H     0.41943   0.94779   0.95909   0.00000  Uiso   1.00
H1765  H     0.48596   0.94769   0.94701   0.00000  Uiso   1.00
H1766  H     0.45133   0.99639   0.95278   0.00000  Uiso   1.00
H1767  H     0.38933   0.98001   0.88243   0.00000  Uiso   1.00
H1768  H     0.41706   0.92973   0.87771   0.00000  Uiso   1.00
C1769  C     0.83459   0.75322   0.83294   0.00000  Uiso   1.00
C1770  C     0.83089   0.91324   0.83354   0.00000  Uiso   1.00
C1771  C     0.73417   0.82834   0.82169   0.00000  Uiso   1.00
C1772  C     0.93252   0.82776   0.84499   0.00000  Uiso   1.00
C1773  C     0.68095   0.81447   0.81588   0.00000  Uiso   1.00
C1774  C     0.98728   0.81755   0.85235   0.00000  Uiso   1.00
C1775  C     0.86257   0.68505   0.80317   0.00000  Uiso   1.00
C1776  C     0.79918   0.98081   0.86124   0.00000  Uiso   1.00
C1777  C     0.86086   0.97585   0.80546   0.00000  Uiso   1.00
C1778  C     0.80267   0.69028   0.86053   0.00000  Uiso   1.00
C1779  C     0.82996   0.95728   0.83405   0.00000  Uiso   1.00
C1780  C     0.83397   0.70894   0.83200   0.00000  Uiso   1.00
C1781  C     0.85788   0.86402   0.69451   0.00000  Uiso   1.00
C1782  C     0.81001   0.80209   0.97237   0.00000  Uiso   1.00
C1783  C     0.85779   0.86403   0.97981   0.00000  Uiso   1.00
C1784  C     0.80944   0.80242   0.68693   0.00000  Uiso   1.00
H1785  H     0.88374   0.95696   0.78439   0.00000  Uiso   1.00
H1786  H     0.77933   0.70922   0.88112   0.00000  Uiso   1.00
H1787  H     0.87762   0.88847   0.71580   0.00000  Uiso   1.00
H1788  H     0.79181   0.77685   0.95143   0.00000  Uiso   1.00
H1789  H     0.87774   0.88831   0.96467   0.00000  Uiso   1.00
H1790  H     0.78947   0.77823   0.70206   0.00000  Uiso   1.00
N1791  N     0.83332   0.83332   0.95240   0.00000  Uiso   1.00
N1792  N     0.83335   0.83334   0.71427   0.00000  Uiso   1.00
O1793  O     0.83333   0.77225   0.87154   0.00000  Uiso   1.00
O1794  O     0.83334   0.89442   0.79513   0.00000  Uiso   1.00
O1795  O     0.83333   0.77226   0.79510   0.00000  Uiso   1.00
O1796  O     0.83334   0.89441   0.87157   0.00000  Uiso   1.00
O1797  O     0.75725   0.83333   0.86261   0.00000  Uiso   1.00
O1798  O     0.90942   0.83334   0.80405   0.00000  Uiso   1.00
O1799  O     0.75725   0.83334   0.78617   0.00000  Uiso   1.00
O1800  O     0.90942   0.83333   0.88050   0.00000  Uiso   1.00
Zn1801 Zn    0.83333   0.83333   0.88437   0.00000  Uiso   1.00
Zn1802 Zn    0.83333   0.83334   0.78229   0.00000  Uiso   1.00
C1803  C     0.99352   0.79562   0.76853   0.00000  Uiso   1.00
C1804  C     0.68949   0.75459   0.76025   0.00000  Uiso   1.00
C1805  C     0.67583   0.73839   0.71093   0.00000  Uiso   1.00
H1806  H     0.96637   0.73472   0.70188   0.00000  Uiso   1.00
H1807  H     0.68960   0.76016   0.68671   0.00000  Uiso   1.00
H1808  H     0.69526   0.70767   0.70717   0.00000  Uiso   1.00
H1809  H     0.73246   0.75859   0.76712   0.00000  Uiso   1.00
H1810  H     0.67921   0.73077   0.78412   0.00000  Uiso   1.00
H1811  H     0.95182   0.78789   0.76378   0.00000  Uiso   1.00
H1812  H     0.99854   0.81837   0.74166   0.00000  Uiso   1.00
C1813  C     0.67734   0.81200   0.90300   0.00000  Uiso   1.00
C1814  C     0.68488   0.85410   0.92958   0.00000  Uiso   1.00
C1815  C     0.67788   0.85023   0.97989   0.00000  Uiso   1.00
H1816  H     0.97119   0.83947   0.98271   0.00000  Uiso   1.00
H1817  H     0.70696   0.82793   0.99722   0.00000  Uiso   1.00
H1818  H     0.68370   0.88100   0.99762   0.00000  Uiso   1.00
H1819  H     0.72457   0.86622   0.92828   0.00000  Uiso   1.00
H1820  H     0.98971   0.87792   0.91402   0.00000  Uiso   1.00
H1821  H     0.98363   0.79224   0.91904   0.00000  Uiso   1.00
H1822  H     0.71360   0.79280   0.90710   0.00000  Uiso   1.00
C1823  C     0.89366   0.70258   0.76851   0.00000  Uiso   1.00
C1824  C     0.86141   0.70094   0.72062   0.00000  Uiso   1.00
H1825  H     0.85972   0.66842   0.70697   0.00000  Uiso   1.00
H1826  H     0.82081   0.71227   0.72190   0.00000  Uiso   1.00
H1827  H     0.87914   0.72062   0.69672   0.00000  Uiso   1.00
H1828  H     0.90633   0.73447   0.77796   0.00000  Uiso   1.00
H1829  H     0.93049   0.68424   0.76796   0.00000  Uiso   1.00
C1830  C     0.76024   0.96220   0.88872   0.00000  Uiso   1.00
C1831  C     0.78062   0.96365   0.94007   0.00000  Uiso   1.00
H1832  H     0.75277   0.94779   0.95909   0.00000  Uiso   1.00
H1833  H     0.81929   0.94769   0.94701   0.00000  Uiso   1.00
H1834  H     0.78466   0.99639   0.95278   0.00000  Uiso   1.00
H1835  H     0.72266   0.98001   0.88243   0.00000  Uiso   1.00
H1836  H     0.75039   0.92973   0.87771   0.00000  Uiso   1.00
loop_
_geom_bond_atom_site_label_1
_geom_bond_atom_site_label_2
_geom_bond_distance
_geom_bond_site_symmetry_2
_ccdc_geom_bond_type
C1     O25     1.283   .     A
C1     C12     1.423   .     S
C1     O27     1.279   .     A
C2     C11     1.415   .     S
C2     O28     1.277   .     A
C2     O26     1.280   .     A
C3     O31     1.291   .     A
C3     O29     1.272   .     A
C3     C5      1.437   .     S
C4     O32     1.284   .     A
C4     C6      1.433   .     S
C4     O30     1.279   .     A
C5     C142    1.364   1_455 S
C5     C171    1.534   1_455 S
C6     C73     1.364   .     S
C6     C113    1.538   .     S
C7     C55     1.511   .     S
C7     C12     1.411   .     A
C7     C417    1.372   1_545 S
C8     C11     1.408   .     A
C8     C62     1.517   .     S
C8     C214    1.381   .     S
C9     C11     1.391   .     A
C9     H17     1.086   .     S
C9     C211    1.372   .     S
C10    C12     1.398   .     A
C10    H18     1.086   .     S
C10    C416    1.381   1_545 S
C13    H19     1.082   .     S
C13    N24     1.366   .     A
C13    C1239   1.413   1_554 S
C14    N23     1.366   .     A
C14    H20     1.080   .     S
C14    C628    1.412   .     S
C15    N23     1.365   .     A
C15    H21     1.081   .     S
C15    C625    1.413   .     S
C16    N24     1.363   .     A
C16    H22     1.079   .     S
C16    C1238   1.412   1_554 S
N23    Zn33    2.002   .     S
N24    Zn34    2.002   .     S
O25    Zn33    1.991   .     S
O26    Zn34    1.991   .     S
O27    Zn34    2.007   .     S
O28    Zn33    2.007   .     S
O29    Zn33    1.976   .     S
O30    Zn34    1.976   .     S
O31    Zn34    1.985   .     S
O32    Zn33    1.985   .     S
C35    H43     1.098   .     S
C35    H44     1.112   .     S
C35    C73     1.534   .     S
C35    C104    1.542   .     S
C36    H42     1.112   .     S
C36    H41     1.108   .     S
C36    C37     1.525   .     S
C36    C171    1.542   1_455 S
C37    H40     1.110   .     S
C37    H39     1.109   .     S
C37    H174    1.106   1_455 S
H38    C105    1.106   .     S
C45    H54     1.106   .     S
C45    C46     1.549   .     S
C45    C142    1.538   1_455 S
C45    H189    1.113   1_455 S
C46    C47     1.526   .     S
C46    H51     1.109   .     S
C46    H188    1.111   1_455 S
C47    H50     1.110   .     S
C47    H49     1.106   .     S
C47    H184    1.111   1_455 S
H48    C115    1.111   .     S
H52    C114    1.111   .     S
H53    C113    1.113   .     S
C55    C56     1.530   .     S
C55    H60     1.099   .     S
C55    H61     1.112   .     S
C56    H59     1.108   .     S
C56    H58     1.110   .     S
C56    H57     1.111   .     S
C62    H68     1.109   .     S
C62    C63     1.526   .     S
C62    H67     1.112   .     S
C63    H65     1.109   .     S
C63    H66     1.111   .     S
C63    H64     1.111   .     S
C69    O93     1.283   .     A
C69    C80     1.423   .     S
C69    O95     1.279   .     A
C70    C79     1.415   .     S
C70    O96     1.277   .     A
C70    O94     1.280   .     A
C71    O99     1.291   .     A
C71    O97     1.272   .     A
C71    C73     1.437   .     S
C72    O100    1.284   .     A
C72    C74     1.433   .     S
C72    O98     1.279   .     A
C74    C141    1.364   .     S
C74    C181    1.538   .     S
C75    C123    1.511   .     S
C75    C80     1.411   .     A
C75    C485    1.372   1_545 S
C76    C79     1.408   .     A
C76    C130    1.517   .     S
C76    C282    1.381   .     S
C77    C79     1.391   .     A
C77    H85     1.086   .     S
C77    C279    1.372   .     S
C78    C80     1.398   .     A
C78    H86     1.086   .     S
C78    C484    1.381   1_545 S
C81    H87     1.082   .     S
C81    N92     1.366   .     A
C81    C1307   1.413   1_554 S
C82    N91     1.366   .     A
C82    H88     1.080   .     S
C82    C696    1.412   .     S
C83    N91     1.365   .     A
C83    H89     1.081   .     S
C83    C693    1.413   .     S
C84    N92     1.363   .     A
C84    H90     1.079   .     S
C84    C1306   1.412   1_554 S
N91    Zn101   2.002   .     S
N92    Zn102   2.002   .     S
O93    Zn101   1.991   .     S
O94    Zn102   1.991   .     S
O95    Zn102   2.007   .     S
O96    Zn101   2.007   .     S
O97    Zn101   1.976   .     S
O98    Zn102   1.976   .     S
O99    Zn102   1.985   .     S
O100   Zn101   1.985   .     S
C103   H111    1.098   .     S
C103   H112    1.112   .     S
C103   C141    1.534   .     S
C103   C172    1.542   .     S
C104   H110    1.112   .     S
C104   H109    1.108   .     S
C104   C105    1.525   .     S
C105   H108    1.110   .     S
C105   H107    1.109   .     S
H106   C173    1.106   .     S
C113   H122    1.106   .     S
C113   C114    1.549   .     S
C114   C115    1.526   .     S
C114   H119    1.109   .     S
C115   H118    1.110   .     S
C115   H117    1.106   .     S
H116   C183    1.111   .     S
H120   C182    1.111   .     S
H121   C181    1.113   .     S
C123   C124    1.530   .     S
C123   H128    1.099   .     S
C123   H129    1.112   .     S
C124   H127    1.108   .     S
C124   H126    1.110   .     S
C124   H125    1.111   .     S
C130   H136    1.109   .     S
C130   C131    1.526   .     S
C130   H135    1.112   .     S
C131   H133    1.109   .     S
C131   H134    1.111   .     S
C131   H132    1.111   .     S
C137   O161    1.283   .     A
C137   C148    1.423   .     S
C137   O163    1.279   .     A
C138   C147    1.415   .     S
C138   O164    1.277   .     A
C138   O162    1.280   .     A
C139   O167    1.291   .     A
C139   O165    1.272   .     A
C139   C141    1.437   .     S
C140   O168    1.284   .     A
C140   C142    1.433   .     S
C140   O166    1.279   .     A
C142   C5      1.364   1_655 S
C142   C45     1.538   1_655 S
C143   C191    1.511   .     S
C143   C148    1.411   .     A
C143   C553    1.372   1_545 S
C144   C147    1.408   .     A
C144   C198    1.517   .     S
C144   C350    1.381   .     S
C145   C147    1.391   .     A
C145   H153    1.086   .     S
C145   C347    1.372   .     S
C146   C148    1.398   .     A
C146   H154    1.086   .     S
C146   C552    1.381   1_545 S
C149   H155    1.082   .     S
C149   N160    1.366   .     A
C149   C1375   1.413   1_554 S
C150   N159    1.366   .     A
C150   H156    1.080   .     S
C150   C764    1.412   .     S
C151   N159    1.365   .     A
C151   H157    1.081   .     S
C151   C761    1.413   .     S
C152   N160    1.363   .     A
C152   H158    1.079   .     S
C152   C1374   1.412   1_554 S
N159   Zn169   2.002   .     S
N160   Zn170   2.002   .     S
O161   Zn169   1.991   .     S
O162   Zn170   1.991   .     S
O163   Zn170   2.007   .     S
O164   Zn169   2.007   .     S
O165   Zn169   1.976   .     S
O166   Zn170   1.976   .     S
O167   Zn170   1.985   .     S
O168   Zn169   1.985   .     S
C171   H179    1.098   .     S
C171   H180    1.112   .     S
C171   C5      1.534   1_655 S
C171   C36     1.542   1_655 S
C172   H178    1.112   .     S
C172   H177    1.108   .     S
C172   C173    1.525   .     S
C173   H176    1.110   .     S
C173   H175    1.109   .     S
H174   C37     1.106   1_655 S
C181   H190    1.106   .     S
C181   C182    1.549   .     S
C182   C183    1.526   .     S
C182   H187    1.109   .     S
C183   H186    1.110   .     S
C183   H185    1.106   .     S
H184   C47     1.111   1_655 S
H188   C46     1.111   1_655 S
H189   C45     1.113   1_655 S
C191   C192    1.530   .     S
C191   H196    1.099   .     S
C191   H197    1.112   .     S
C192   H195    1.108   .     S
C192   H194    1.110   .     S
C192   H193    1.111   .     S
C198   H204    1.109   .     S
C198   C199    1.526   .     S
C198   H203    1.112   .     S
C199   H201    1.109   .     S
C199   H202    1.111   .     S
C199   H200    1.111   .     S
C205   O229    1.283   .     A
C205   C216    1.423   .     S
C205   O231    1.279   .     A
C206   C215    1.415   .     S
C206   O232    1.277   .     A
C206   O230    1.280   .     A
C207   O235    1.291   .     A
C207   O233    1.272   .     A
C207   C209    1.437   .     S
C208   O236    1.284   .     A
C208   C210    1.433   .     S
C208   O234    1.279   .     A
C209   C346    1.364   1_455 S
C209   C375    1.534   1_455 S
C210   C277    1.364   .     S
C210   C317    1.538   .     S
C211   C259    1.511   .     S
C211   C216    1.411   .     A
C212   C215    1.408   .     A
C212   C266    1.517   .     S
C212   C418    1.381   .     S
C213   C215    1.391   .     A
C213   H221    1.086   .     S
C213   C415    1.372   .     S
C214   C216    1.398   .     A
C214   H222    1.086   .     S
C217   H223    1.082   .     S
C217   N228    1.366   .     A
C217   C1443   1.413   1_554 S
C218   N227    1.366   .     A
C218   H224    1.080   .     S
C218   C832    1.412   .     S
C219   N227    1.365   .     A
C219   H225    1.081   .     S
C219   C829    1.413   .     S
C220   N228    1.363   .     A
C220   H226    1.079   .     S
C220   C1442   1.412   1_554 S
N227   Zn237   2.002   .     S
N228   Zn238   2.002   .     S
O229   Zn237   1.991   .     S
O230   Zn238   1.991   .     S
O231   Zn238   2.007   .     S
O232   Zn237   2.007   .     S
O233   Zn237   1.976   .     S
O234   Zn238   1.976   .     S
O235   Zn238   1.985   .     S
O236   Zn237   1.985   .     S
C239   H247    1.098   .     S
C239   H248    1.112   .     S
C239   C277    1.534   .     S
C239   C308    1.542   .     S
C240   H246    1.112   .     S
C240   H245    1.108   .     S
C240   C241    1.525   .     S
C240   C375    1.542   1_455 S
C241   H244    1.110   .     S
C241   H243    1.109   .     S
C241   H378    1.106   1_455 S
H242   C309    1.106   .     S
C249   H258    1.106   .     S
C249   C250    1.549   .     S
C249   C346    1.538   1_455 S
C249   H393    1.113   1_455 S
C250   C251    1.526   .     S
C250   H255    1.109   .     S
C250   H392    1.111   1_455 S
C251   H254    1.110   .     S
C251   H253    1.106   .     S
C251   H388    1.111   1_455 S
H252   C319    1.111   .     S
H256   C318    1.111   .     S
H257   C317    1.113   .     S
C259   C260    1.530   .     S
C259   H264    1.099   .     S
C259   H265    1.112   .     S
C260   H263    1.108   .     S
C260   H262    1.110   .     S
C260   H261    1.111   .     S
C266   H272    1.109   .     S
C266   C267    1.526   .     S
C266   H271    1.112   .     S
C267   H269    1.109   .     S
C267   H270    1.111   .     S
C267   H268    1.111   .     S
C273   O297    1.283   .     A
C273   C284    1.423   .     S
C273   O299    1.279   .     A
C274   C283    1.415   .     S
C274   O300    1.277   .     A
C274   O298    1.280   .     A
C275   O303    1.291   .     A
C275   O301    1.272   .     A
C275   C277    1.437   .     S
C276   O304    1.284   .     A
C276   C278    1.433   .     S
C276   O302    1.279   .     A
C278   C345    1.364   .     S
C278   C385    1.538   .     S
C279   C327    1.511   .     S
C279   C284    1.411   .     A
C280   C283    1.408   .     A
C280   C334    1.517   .     S
C280   C486    1.381   .     S
C281   C283    1.391   .     A
C281   H289    1.086   .     S
C281   C483    1.372   .     S
C282   C284    1.398   .     A
C282   H290    1.086   .     S
C285   H291    1.082   .     S
C285   N296    1.366   .     A
C285   C1511   1.413   1_554 S
C286   N295    1.366   .     A
C286   H292    1.080   .     S
C286   C900    1.412   .     S
C287   N295    1.365   .     A
C287   H293    1.081   .     S
C287   C897    1.413   .     S
C288   N296    1.363   .     A
C288   H294    1.079   .     S
C288   C1510   1.412   1_554 S
N295   Zn305   2.002   .     S
N296   Zn306   2.002   .     S
O297   Zn305   1.991   .     S
O298   Zn306   1.991   .     S
O299   Zn306   2.007   .     S
O300   Zn305   2.007   .     S
O301   Zn305   1.976   .     S
O302   Zn306   1.976   .     S
O303   Zn306   1.985   .     S
O304   Zn305   1.985   .     S
C307   H315    1.098   .     S
C307   H316    1.112   .     S
C307   C345    1.534   .     S
C307   C376    1.542   .     S
C308   H314    1.112   .     S
C308   H313    1.108   .     S
C308   C309    1.525   .     S
C309   H312    1.110   .     S
C309   H311    1.109   .     S
H310   C377    1.106   .     S
C317   H326    1.106   .     S
C317   C318    1.549   .     S
C318   C319    1.526   .     S
C318   H323    1.109   .     S
C319   H322    1.110   .     S
C319   H321    1.106   .     S
H320   C387    1.111   .     S
H324   C386    1.111   .     S
H325   C385    1.113   .     S
C327   C328    1.530   .     S
C327   H332    1.099   .     S
C327   H333    1.112   .     S
C328   H331    1.108   .     S
C328   H330    1.110   .     S
C328   H329    1.111   .     S
C334   H340    1.109   .     S
C334   C335    1.526   .     S
C334   H339    1.112   .     S
C335   H337    1.109   .     S
C335   H338    1.111   .     S
C335   H336    1.111   .     S
C341   O365    1.283   .     A
C341   C352    1.423   .     S
C341   O367    1.279   .     A
C342   C351    1.415   .     S
C342   O368    1.277   .     A
C342   O366    1.280   .     A
C343   O371    1.291   .     A
C343   O369    1.272   .     A
C343   C345    1.437   .     S
C344   O372    1.284   .     A
C344   C346    1.433   .     S
C344   O370    1.279   .     A
C346   C209    1.364   1_655 S
C346   C249    1.538   1_655 S
C347   C395    1.511   .     S
C347   C352    1.411   .     A
C348   C351    1.408   .     A
C348   C402    1.517   .     S
C348   C554    1.381   .     S
C349   C351    1.391   .     A
C349   H357    1.086   .     S
C349   C551    1.372   .     S
C350   C352    1.398   .     A
C350   H358    1.086   .     S
C353   H359    1.082   .     S
C353   N364    1.366   .     A
C353   C1579   1.413   1_554 S
C354   N363    1.366   .     A
C354   H360    1.080   .     S
C354   C968    1.412   .     S
C355   N363    1.365   .     A
C355   H361    1.081   .     S
C355   C965    1.413   .     S
C356   N364    1.363   .     A
C356   H362    1.079   .     S
C356   C1578   1.412   1_554 S
N363   Zn373   2.002   .     S
N364   Zn374   2.002   .     S
O365   Zn373   1.991   .     S
O366   Zn374   1.991   .     S
O367   Zn374   2.007   .     S
O368   Zn373   2.007   .     S
O369   Zn373   1.976   .     S
O370   Zn374   1.976   .     S
O371   Zn374   1.985   .     S
O372   Zn373   1.985   .     S
C375   H383    1.098   .     S
C375   H384    1.112   .     S
C375   C209    1.534   1_655 S
C375   C240    1.542   1_655 S
C376   H382    1.112   .     S
C376   H381    1.108   .     S
C376   C377    1.525   .     S
C377   H380    1.110   .     S
C377   H379    1.109   .     S
H378   C241    1.106   1_655 S
C385   H394    1.106   .     S
C385   C386    1.549   .     S
C386   C387    1.526   .     S
C386   H391    1.109   .     S
C387   H390    1.110   .     S
C387   H389    1.106   .     S
H388   C251    1.111   1_655 S
H392   C250    1.111   1_655 S
H393   C249    1.113   1_655 S
C395   C396    1.530   .     S
C395   H400    1.099   .     S
C395   H401    1.112   .     S
C396   H399    1.108   .     S
C396   H398    1.110   .     S
C396   H397    1.111   .     S
C402   H408    1.109   .     S
C402   C403    1.526   .     S
C402   H407    1.112   .     S
C403   H405    1.109   .     S
C403   H406    1.111   .     S
C403   H404    1.111   .     S
C409   O433    1.283   .     A
C409   C420    1.423   .     S
C409   O435    1.279   .     A
C410   C419    1.415   .     S
C410   O436    1.277   .     A
C410   O434    1.280   .     A
C411   O439    1.291   .     A
C411   O437    1.272   .     A
C411   C413    1.437   .     S
C412   O440    1.284   .     A
C412   C414    1.433   .     S
C412   O438    1.279   .     A
C413   C550    1.364   1_455 S
C413   C579    1.534   1_455 S
C414   C481    1.364   .     S
C414   C521    1.538   .     S
C415   C463    1.511   .     S
C415   C420    1.411   .     A
C416   C419    1.408   .     A
C416   C470    1.517   .     S
C416   C10     1.381   1_565 S
C417   C419    1.391   .     A
C417   H425    1.086   .     S
C417   C7      1.372   1_565 S
C418   C420    1.398   .     A
C418   H426    1.086   .     S
C421   H427    1.082   .     S
C421   N432    1.366   .     A
C421   C1647   1.413   1_554 S
C422   N431    1.366   .     A
C422   H428    1.080   .     S
C422   C1036   1.412   .     S
C423   N431    1.365   .     A
C423   H429    1.081   .     S
C423   C1033   1.413   .     S
C424   N432    1.363   .     A
C424   H430    1.079   .     S
C424   C1646   1.412   1_554 S
N431   Zn441   2.002   .     S
N432   Zn442   2.002   .     S
O433   Zn441   1.991   .     S
O434   Zn442   1.991   .     S
O435   Zn442   2.007   .     S
O436   Zn441   2.007   .     S
O437   Zn441   1.976   .     S
O438   Zn442   1.976   .     S
O439   Zn442   1.985   .     S
O440   Zn441   1.985   .     S
C443   H451    1.098   .     S
C443   H452    1.112   .     S
C443   C481    1.534   .     S
C443   C512    1.542   .     S
C444   H450    1.112   .     S
C444   H449    1.108   .     S
C444   C445    1.525   .     S
C444   C579    1.542   1_455 S
C445   H448    1.110   .     S
C445   H447    1.109   .     S
C445   H582    1.106   1_455 S
H446   C513    1.106   .     S
C453   H462    1.106   .     S
C453   C454    1.549   .     S
C453   C550    1.538   1_455 S
C453   H597    1.113   1_455 S
C454   C455    1.526   .     S
C454   H459    1.109   .     S
C454   H596    1.111   1_455 S
C455   H458    1.110   .     S
C455   H457    1.106   .     S
C455   H592    1.111   1_455 S
H456   C523    1.111   .     S
H460   C522    1.111   .     S
H461   C521    1.113   .     S
C463   C464    1.530   .     S
C463   H468    1.099   .     S
C463   H469    1.112   .     S
C464   H467    1.108   .     S
C464   H466    1.110   .     S
C464   H465    1.111   .     S
C470   H476    1.109   .     S
C470   C471    1.526   .     S
C470   H475    1.112   .     S
C471   H473    1.109   .     S
C471   H474    1.111   .     S
C471   H472    1.111   .     S
C477   O501    1.283   .     A
C477   C488    1.423   .     S
C477   O503    1.279   .     A
C478   C487    1.415   .     S
C478   O504    1.277   .     A
C478   O502    1.280   .     A
C479   O507    1.291   .     A
C479   O505    1.272   .     A
C479   C481    1.437   .     S
C480   O508    1.284   .     A
C480   C482    1.433   .     S
C480   O506    1.279   .     A
C482   C549    1.364   .     S
C482   C589    1.538   .     S
C483   C531    1.511   .     S
C483   C488    1.411   .     A
C484   C487    1.408   .     A
C484   C538    1.517   .     S
C484   C78     1.381   1_565 S
C485   C487    1.391   .     A
C485   H493    1.086   .     S
C485   C75     1.372   1_565 S
C486   C488    1.398   .     A
C486   H494    1.086   .     S
C489   H495    1.082   .     S
C489   N500    1.366   .     A
C489   C1715   1.413   1_554 S
C490   N499    1.366   .     A
C490   H496    1.080   .     S
C490   C1104   1.412   .     S
C491   N499    1.365   .     A
C491   H497    1.081   .     S
C491   C1101   1.413   .     S
C492   N500    1.363   .     A
C492   H498    1.079   .     S
C492   C1714   1.412   1_554 S
N499   Zn509   2.002   .     S
N500   Zn510   2.002   .     S
O501   Zn509   1.991   .     S
O502   Zn510   1.991   .     S
O503   Zn510   2.007   .     S
O504   Zn509   2.007   .     S
O505   Zn509   1.976   .     S
O506   Zn510   1.976   .     S
O507   Zn510   1.985   .     S
O508   Zn509   1.985   .     S
C511   H519    1.098   .     S
C511   H520    1.112   .     S
C511   C549    1.534   .     S
C511   C580    1.542   .     S
C512   H518    1.112   .     S
C512   H517    1.108   .     S
C512   C513    1.525   .     S
C513   H516    1.110   .     S
C513   H515    1.109   .     S
H514   C581    1.106   .     S
C521   H530    1.106   .     S
C521   C522    1.549   .     S
C522   C523    1.526   .     S
C522   H527    1.109   .     S
C523   H526    1.110   .     S
C523   H525    1.106   .     S
H524   C591    1.111   .     S
H528   C590    1.111   .     S
H529   C589    1.113   .     S
C531   C532    1.530   .     S
C531   H536    1.099   .     S
C531   H537    1.112   .     S
C532   H535    1.108   .     S
C532   H534    1.110   .     S
C532   H533    1.111   .     S
C538   H544    1.109   .     S
C538   C539    1.526   .     S
C538   H543    1.112   .     S
C539   H541    1.109   .     S
C539   H542    1.111   .     S
C539   H540    1.111   .     S
C545   O569    1.283   .     A
C545   C556    1.423   .     S
C545   O571    1.279   .     A
C546   C555    1.415   .     S
C546   O572    1.277   .     A
C546   O570    1.280   .     A
C547   O575    1.291   .     A
C547   O573    1.272   .     A
C547   C549    1.437   .     S
C548   O576    1.284   .     A
C548   C550    1.433   .     S
C548   O574    1.279   .     A
C550   C413    1.364   1_655 S
C550   C453    1.538   1_655 S
C551   C599    1.511   .     S
C551   C556    1.411   .     A
C552   C555    1.408   .     A
C552   C606    1.517   .     S
C552   C146    1.381   1_565 S
C553   C555    1.391   .     A
C553   H561    1.086   .     S
C553   C143    1.372   1_565 S
C554   C556    1.398   .     A
C554   H562    1.086   .     S
C557   H563    1.082   .     S
C557   N568    1.366   .     A
C557   C1783   1.413   1_554 S
C558   N567    1.366   .     A
C558   H564    1.080   .     S
C558   C1172   1.412   .     S
C559   N567    1.365   .     A
C559   H565    1.081   .     S
C559   C1169   1.413   .     S
C560   N568    1.363   .     A
C560   H566    1.079   .     S
C560   C1782   1.412   1_554 S
N567   Zn577   2.002   .     S
N568   Zn578   2.002   .     S
O569   Zn577   1.991   .     S
O570   Zn578   1.991   .     S
O571   Zn578   2.007   .     S
O572   Zn577   2.007   .     S
O573   Zn577   1.976   .     S
O574   Zn578   1.976   .     S
O575   Zn578   1.985   .     S
O576   Zn577   1.985   .     S
C579   H587    1.098   .     S
C579   H588    1.112   .     S
C579   C413    1.534   1_655 S
C579   C444    1.542   1_655 S
C580   H586    1.112   .     S
C580   H585    1.108   .     S
C580   C581    1.525   .     S
C581   H584    1.110   .     S
C581   H583    1.109   .     S
H582   C445    1.106   1_655 S
C589   H598    1.106   .     S
C589   C590    1.549   .     S
C590   C591    1.526   .     S
C590   H595    1.109   .     S
C591   H594    1.110   .     S
C591   H593    1.106   .     S
H592   C455    1.111   1_655 S
H596   C454    1.111   1_655 S
H597   C453    1.113   1_655 S
C599   C600    1.530   .     S
C599   H604    1.099   .     S
C599   H605    1.112   .     S
C600   H603    1.108   .     S
C600   H602    1.110   .     S
C600   H601    1.111   .     S
C606   H612    1.109   .     S
C606   C607    1.526   .     S
C606   H611    1.112   .     S
C607   H609    1.109   .     S
C607   H610    1.111   .     S
C607   H608    1.111   .     S
C613   O637    1.283   .     A
C613   C624    1.423   .     S
C613   O639    1.279   .     A
C614   C623    1.415   .     S
C614   O640    1.277   .     A
C614   O638    1.280   .     A
C615   O643    1.291   .     A
C615   O641    1.272   .     A
C615   C617    1.437   .     S
C616   O644    1.284   .     A
C616   C618    1.433   .     S
C616   O642    1.279   .     A
C617   C754    1.364   1_455 S
C617   C783    1.534   1_455 S
C618   C685    1.364   .     S
C618   C725    1.538   .     S
C619   C667    1.511   .     S
C619   C624    1.411   .     A
C619   C1029   1.372   1_545 S
C620   C623    1.408   .     A
C620   C674    1.517   .     S
C620   C826    1.381   .     S
C621   C623    1.391   .     A
C621   H629    1.086   .     S
C621   C823    1.372   .     S
C622   C624    1.398   .     A
C622   H630    1.086   .     S
C622   C1028   1.381   1_545 S
C625   H631    1.082   .     S
C625   N636    1.366   .     A
C626   N635    1.366   .     A
C626   H632    1.080   .     S
C626   C1240   1.412   .     S
C627   N635    1.365   .     A
C627   H633    1.081   .     S
C627   C1237   1.413   .     S
C628   N636    1.363   .     A
C628   H634    1.079   .     S
N635   Zn645   2.002   .     S
N636   Zn646   2.002   .     S
O637   Zn645   1.991   .     S
O638   Zn646   1.991   .     S
O639   Zn646   2.007   .     S
O640   Zn645   2.007   .     S
O641   Zn645   1.976   .     S
O642   Zn646   1.976   .     S
O643   Zn646   1.985   .     S
O644   Zn645   1.985   .     S
C647   H655    1.098   .     S
C647   H656    1.112   .     S
C647   C685    1.534   .     S
C647   C716    1.542   .     S
C648   H654    1.112   .     S
C648   H653    1.108   .     S
C648   C649    1.525   .     S
C648   C783    1.542   1_455 S
C649   H652    1.110   .     S
C649   H651    1.109   .     S
C649   H786    1.106   1_455 S
H650   C717    1.106   .     S
C657   H666    1.106   .     S
C657   C658    1.549   .     S
C657   C754    1.538   1_455 S
C657   H801    1.113   1_455 S
C658   C659    1.526   .     S
C658   H663    1.109   .     S
C658   H800    1.111   1_455 S
C659   H662    1.110   .     S
C659   H661    1.106   .     S
C659   H796    1.111   1_455 S
H660   C727    1.111   .     S
H664   C726    1.111   .     S
H665   C725    1.113   .     S
C667   C668    1.530   .     S
C667   H672    1.099   .     S
C667   H673    1.112   .     S
C668   H671    1.108   .     S
C668   H670    1.110   .     S
C668   H669    1.111   .     S
C674   H680    1.109   .     S
C674   C675    1.526   .     S
C674   H679    1.112   .     S
C675   H677    1.109   .     S
C675   H678    1.111   .     S
C675   H676    1.111   .     S
C681   O705    1.283   .     A
C681   C692    1.423   .     S
C681   O707    1.279   .     A
C682   C691    1.415   .     S
C682   O708    1.277   .     A
C682   O706    1.280   .     A
C683   O711    1.291   .     A
C683   O709    1.272   .     A
C683   C685    1.437   .     S
C684   O712    1.284   .     A
C684   C686    1.433   .     S
C684   O710    1.279   .     A
C686   C753    1.364   .     S
C686   C793    1.538   .     S
C687   C735    1.511   .     S
C687   C692    1.411   .     A
C687   C1097   1.372   1_545 S
C688   C691    1.408   .     A
C688   C742    1.517   .     S
C688   C894    1.381   .     S
C689   C691    1.391   .     A
C689   H697    1.086   .     S
C689   C891    1.372   .     S
C690   C692    1.398   .     A
C690   H698    1.086   .     S
C690   C1096   1.381   1_545 S
C693   H699    1.082   .     S
C693   N704    1.366   .     A
C694   N703    1.366   .     A
C694   H700    1.080   .     S
C694   C1308   1.412   .     S
C695   N703    1.365   .     A
C695   H701    1.081   .     S
C695   C1305   1.413   .     S
C696   N704    1.363   .     A
C696   H702    1.079   .     S
N703   Zn713   2.002   .     S
N704   Zn714   2.002   .     S
O705   Zn713   1.991   .     S
O706   Zn714   1.991   .     S
O707   Zn714   2.007   .     S
O708   Zn713   2.007   .     S
O709   Zn713   1.976   .     S
O710   Zn714   1.976   .     S
O711   Zn714   1.985   .     S
O712   Zn713   1.985   .     S
C715   H723    1.098   .     S
C715   H724    1.112   .     S
C715   C753    1.534   .     S
C715   C784    1.542   .     S
C716   H722    1.112   .     S
C716   H721    1.108   .     S
C716   C717    1.525   .     S
C717   H720    1.110   .     S
C717   H719    1.109   .     S
H718   C785    1.106   .     S
C725   H734    1.106   .     S
C725   C726    1.549   .     S
C726   C727    1.526   .     S
C726   H731    1.109   .     S
C727   H730    1.110   .     S
C727   H729    1.106   .     S
H728   C795    1.111   .     S
H732   C794    1.111   .     S
H733   C793    1.113   .     S
C735   C736    1.530   .     S
C735   H740    1.099   .     S
C735   H741    1.112   .     S
C736   H739    1.108   .     S
C736   H738    1.110   .     S
C736   H737    1.111   .     S
C742   H748    1.109   .     S
C742   C743    1.526   .     S
C742   H747    1.112   .     S
C743   H745    1.109   .     S
C743   H746    1.111   .     S
C743   H744    1.111   .     S
C749   O773    1.283   .     A
C749   C760    1.423   .     S
C749   O775    1.279   .     A
C750   C759    1.415   .     S
C750   O776    1.277   .     A
C750   O774    1.280   .     A
C751   O779    1.291   .     A
C751   O777    1.272   .     A
C751   C753    1.437   .     S
C752   O780    1.284   .     A
C752   C754    1.433   .     S
C752   O778    1.279   .     A
C754   C617    1.364   1_655 S
C754   C657    1.538   1_655 S
C755   C803    1.511   .     S
C755   C760    1.411   .     A
C755   C1165   1.372   1_545 S
C756   C759    1.408   .     A
C756   C810    1.517   .     S
C756   C962    1.381   .     S
C757   C759    1.391   .     A
C757   H765    1.086   .     S
C757   C959    1.372   .     S
C758   C760    1.398   .     A
C758   H766    1.086   .     S
C758   C1164   1.381   1_545 S
C761   H767    1.082   .     S
C761   N772    1.366   .     A
C762   N771    1.366   .     A
C762   H768    1.080   .     S
C762   C1376   1.412   .     S
C763   N771    1.365   .     A
C763   H769    1.081   .     S
C763   C1373   1.413   .     S
C764   N772    1.363   .     A
C764   H770    1.079   .     S
N771   Zn781   2.002   .     S
N772   Zn782   2.002   .     S
O773   Zn781   1.991   .     S
O774   Zn782   1.991   .     S
O775   Zn782   2.007   .     S
O776   Zn781   2.007   .     S
O777   Zn781   1.976   .     S
O778   Zn782   1.976   .     S
O779   Zn782   1.985   .     S
O780   Zn781   1.985   .     S
C783   H791    1.098   .     S
C783   H792    1.112   .     S
C783   C617    1.534   1_655 S
C783   C648    1.542   1_655 S
C784   H790    1.112   .     S
C784   H789    1.108   .     S
C784   C785    1.525   .     S
C785   H788    1.110   .     S
C785   H787    1.109   .     S
H786   C649    1.106   1_655 S
C793   H802    1.106   .     S
C793   C794    1.549   .     S
C794   C795    1.526   .     S
C794   H799    1.109   .     S
C795   H798    1.110   .     S
C795   H797    1.106   .     S
H796   C659    1.111   1_655 S
H800   C658    1.111   1_655 S
H801   C657    1.113   1_655 S
C803   C804    1.530   .     S
C803   H808    1.099   .     S
C803   H809    1.112   .     S
C804   H807    1.108   .     S
C804   H806    1.110   .     S
C804   H805    1.111   .     S
C810   H816    1.109   .     S
C810   C811    1.526   .     S
C810   H815    1.112   .     S
C811   H813    1.109   .     S
C811   H814    1.111   .     S
C811   H812    1.111   .     S
C817   O841    1.283   .     A
C817   C828    1.423   .     S
C817   O843    1.279   .     A
C818   C827    1.415   .     S
C818   O844    1.277   .     A
C818   O842    1.280   .     A
C819   O847    1.291   .     A
C819   O845    1.272   .     A
C819   C821    1.437   .     S
C820   O848    1.284   .     A
C820   C822    1.433   .     S
C820   O846    1.279   .     A
C821   C958    1.364   1_455 S
C821   C987    1.534   1_455 S
C822   C889    1.364   .     S
C822   C929    1.538   .     S
C823   C871    1.511   .     S
C823   C828    1.411   .     A
C824   C827    1.408   .     A
C824   C878    1.517   .     S
C824   C1030   1.381   .     S
C825   C827    1.391   .     A
C825   H833    1.086   .     S
C825   C1027   1.372   .     S
C826   C828    1.398   .     A
C826   H834    1.086   .     S
C829   H835    1.082   .     S
C829   N840    1.366   .     A
C830   N839    1.366   .     A
C830   H836    1.080   .     S
C830   C1444   1.412   .     S
C831   N839    1.365   .     A
C831   H837    1.081   .     S
C831   C1441   1.413   .     S
C832   N840    1.363   .     A
C832   H838    1.079   .     S
N839   Zn849   2.002   .     S
N840   Zn850   2.002   .     S
O841   Zn849   1.991   .     S
O842   Zn850   1.991   .     S
O843   Zn850   2.007   .     S
O844   Zn849   2.007   .     S
O845   Zn849   1.976   .     S
O846   Zn850   1.976   .     S
O847   Zn850   1.985   .     S
O848   Zn849   1.985   .     S
C851   H859    1.098   .     S
C851   H860    1.112   .     S
C851   C889    1.534   .     S
C851   C920    1.542   .     S
C852   H858    1.112   .     S
C852   H857    1.108   .     S
C852   C853    1.525   .     S
C852   C987    1.542   1_455 S
C853   H856    1.110   .     S
C853   H855    1.109   .     S
C853   H990    1.106   1_455 S
H854   C921    1.106   .     S
C861   H870    1.106   .     S
C861   C862    1.549   .     S
C861   C958    1.538   1_455 S
C861   H1005   1.113   1_455 S
C862   C863    1.526   .     S
C862   H867    1.109   .     S
C862   H1004   1.111   1_455 S
C863   H866    1.110   .     S
C863   H865    1.106   .     S
C863   H1000   1.111   1_455 S
H864   C931    1.111   .     S
H868   C930    1.111   .     S
H869   C929    1.113   .     S
C871   C872    1.530   .     S
C871   H876    1.099   .     S
C871   H877    1.112   .     S
C872   H875    1.108   .     S
C872   H874    1.110   .     S
C872   H873    1.111   .     S
C878   H884    1.109   .     S
C878   C879    1.526   .     S
C878   H883    1.112   .     S
C879   H881    1.109   .     S
C879   H882    1.111   .     S
C879   H880    1.111   .     S
C885   O909    1.283   .     A
C885   C896    1.423   .     S
C885   O911    1.279   .     A
C886   C895    1.415   .     S
C886   O912    1.277   .     A
C886   O910    1.280   .     A
C887   O915    1.291   .     A
C887   O913    1.272   .     A
C887   C889    1.437   .     S
C888   O916    1.284   .     A
C888   C890    1.433   .     S
C888   O914    1.279   .     A
C890   C957    1.364   .     S
C890   C997    1.538   .     S
C891   C939    1.511   .     S
C891   C896    1.411   .     A
C892   C895    1.408   .     A
C892   C946    1.517   .     S
C892   C1098   1.381   .     S
C893   C895    1.391   .     A
C893   H901    1.086   .     S
C893   C1095   1.372   .     S
C894   C896    1.398   .     A
C894   H902    1.086   .     S
C897   H903    1.082   .     S
C897   N908    1.366   .     A
C898   N907    1.366   .     A
C898   H904    1.080   .     S
C898   C1512   1.412   .     S
C899   N907    1.365   .     A
C899   H905    1.081   .     S
C899   C1509   1.413   .     S
C900   N908    1.363   .     A
C900   H906    1.079   .     S
N907   Zn917   2.002   .     S
N908   Zn918   2.002   .     S
O909   Zn917   1.991   .     S
O910   Zn918   1.991   .     S
O911   Zn918   2.007   .     S
O912   Zn917   2.007   .     S
O913   Zn917   1.976   .     S
O914   Zn918   1.976   .     S
O915   Zn918   1.985   .     S
O916   Zn917   1.985   .     S
C919   H927    1.098   .     S
C919   H928    1.112   .     S
C919   C957    1.534   .     S
C919   C988    1.542   .     S
C920   H926    1.112   .     S
C920   H925    1.108   .     S
C920   C921    1.525   .     S
C921   H924    1.110   .     S
C921   H923    1.109   .     S
H922   C989    1.106   .     S
C929   H938    1.106   .     S
C929   C930    1.549   .     S
C930   C931    1.526   .     S
C930   H935    1.109   .     S
C931   H934    1.110   .     S
C931   H933    1.106   .     S
H932   C999    1.111   .     S
H936   C998    1.111   .     S
H937   C997    1.113   .     S
C939   C940    1.530   .     S
C939   H944    1.099   .     S
C939   H945    1.112   .     S
C940   H943    1.108   .     S
C940   H942    1.110   .     S
C940   H941    1.111   .     S
C946   H952    1.109   .     S
C946   C947    1.526   .     S
C946   H951    1.112   .     S
C947   H949    1.109   .     S
C947   H950    1.111   .     S
C947   H948    1.111   .     S
C953   O977    1.283   .     A
C953   C964    1.423   .     S
C953   O979    1.279   .     A
C954   C963    1.415   .     S
C954   O980    1.277   .     A
C954   O978    1.280   .     A
C955   O983    1.291   .     A
C955   O981    1.272   .     A
C955   C957    1.437   .     S
C956   O984    1.284   .     A
C956   C958    1.433   .     S
C956   O982    1.279   .     A
C958   C821    1.364   1_655 S
C958   C861    1.538   1_655 S
C959   C1007   1.511   .     S
C959   C964    1.411   .     A
C960   C963    1.408   .     A
C960   C1014   1.517   .     S
C960   C1166   1.381   .     S
C961   C963    1.391   .     A
C961   H969    1.086   .     S
C961   C1163   1.372   .     S
C962   C964    1.398   .     A
C962   H970    1.086   .     S
C965   H971    1.082   .     S
C965   N976    1.366   .     A
C966   N975    1.366   .     A
C966   H972    1.080   .     S
C966   C1580   1.412   .     S
C967   N975    1.365   .     A
C967   H973    1.081   .     S
C967   C1577   1.413   .     S
C968   N976    1.363   .     A
C968   H974    1.079   .     S
N975   Zn985   2.002   .     S
N976   Zn986   2.002   .     S
O977   Zn985   1.991   .     S
O978   Zn986   1.991   .     S
O979   Zn986   2.007   .     S
O980   Zn985   2.007   .     S
O981   Zn985   1.976   .     S
O982   Zn986   1.976   .     S
O983   Zn986   1.985   .     S
O984   Zn985   1.985   .     S
C987   H995    1.098   .     S
C987   H996    1.112   .     S
C987   C821    1.534   1_655 S
C987   C852    1.542   1_655 S
C988   H994    1.112   .     S
C988   H993    1.108   .     S
C988   C989    1.525   .     S
C989   H992    1.110   .     S
C989   H991    1.109   .     S
H990   C853    1.106   1_655 S
C997   H1006   1.106   .     S
C997   C998    1.549   .     S
C998   C999    1.526   .     S
C998   H1003   1.109   .     S
C999   H1002   1.110   .     S
C999   H1001   1.106   .     S
H1000  C863    1.111   1_655 S
H1004  C862    1.111   1_655 S
H1005  C861    1.113   1_655 S
C1007  C1008   1.530   .     S
C1007  H1012   1.099   .     S
C1007  H1013   1.112   .     S
C1008  H1011   1.108   .     S
C1008  H1010   1.110   .     S
C1008  H1009   1.111   .     S
C1014  H1020   1.109   .     S
C1014  C1015   1.526   .     S
C1014  H1019   1.112   .     S
C1015  H1017   1.109   .     S
C1015  H1018   1.111   .     S
C1015  H1016   1.111   .     S
C1021  O1045   1.283   .     A
C1021  C1032   1.423   .     S
C1021  O1047   1.279   .     A
C1022  C1031   1.415   .     S
C1022  O1048   1.277   .     A
C1022  O1046   1.280   .     A
C1023  O1051   1.291   .     A
C1023  O1049   1.272   .     A
C1023  C1025   1.437   .     S
C1024  O1052   1.284   .     A
C1024  C1026   1.433   .     S
C1024  O1050   1.279   .     A
C1025  C1162   1.364   1_455 S
C1025  C1191   1.534   1_455 S
C1026  C1093   1.364   .     S
C1026  C1133   1.538   .     S
C1027  C1075   1.511   .     S
C1027  C1032   1.411   .     A
C1028  C1031   1.408   .     A
C1028  C1082   1.517   .     S
C1028  C622    1.381   1_565 S
C1029  C1031   1.391   .     A
C1029  H1037   1.086   .     S
C1029  C619    1.372   1_565 S
C1030  C1032   1.398   .     A
C1030  H1038   1.086   .     S
C1033  H1039   1.082   .     S
C1033  N1044   1.366   .     A
C1034  N1043   1.366   .     A
C1034  H1040   1.080   .     S
C1034  C1648   1.412   .     S
C1035  N1043   1.365   .     A
C1035  H1041   1.081   .     S
C1035  C1645   1.413   .     S
C1036  N1044   1.363   .     A
C1036  H1042   1.079   .     S
N1043  Zn1053  2.002   .     S
N1044  Zn1054  2.002   .     S
O1045  Zn1053  1.991   .     S
O1046  Zn1054  1.991   .     S
O1047  Zn1054  2.007   .     S
O1048  Zn1053  2.007   .     S
O1049  Zn1053  1.976   .     S
O1050  Zn1054  1.976   .     S
O1051  Zn1054  1.985   .     S
O1052  Zn1053  1.985   .     S
C1055  H1063   1.098   .     S
C1055  H1064   1.112   .     S
C1055  C1093   1.534   .     S
C1055  C1124   1.542   .     S
C1056  H1062   1.112   .     S
C1056  H1061   1.108   .     S
C1056  C1057   1.525   .     S
C1056  C1191   1.542   1_455 S
C1057  H1060   1.110   .     S
C1057  H1059   1.109   .     S
C1057  H1194   1.106   1_455 S
H1058  C1125   1.106   .     S
C1065  H1074   1.106   .     S
C1065  C1066   1.549   .     S
C1065  C1162   1.538   1_455 S
C1065  H1209   1.113   1_455 S
C1066  C1067   1.526   .     S
C1066  H1071   1.109   .     S
C1066  H1208   1.111   1_455 S
C1067  H1070   1.110   .     S
C1067  H1069   1.106   .     S
C1067  H1204   1.111   1_455 S
H1068  C1135   1.111   .     S
H1072  C1134   1.111   .     S
H1073  C1133   1.113   .     S
C1075  C1076   1.530   .     S
C1075  H1080   1.099   .     S
C1075  H1081   1.112   .     S
C1076  H1079   1.108   .     S
C1076  H1078   1.110   .     S
C1076  H1077   1.111   .     S
C1082  H1088   1.109   .     S
C1082  C1083   1.526   .     S
C1082  H1087   1.112   .     S
C1083  H1085   1.109   .     S
C1083  H1086   1.111   .     S
C1083  H1084   1.111   .     S
C1089  O1113   1.283   .     A
C1089  C1100   1.423   .     S
C1089  O1115   1.279   .     A
C1090  C1099   1.415   .     S
C1090  O1116   1.277   .     A
C1090  O1114   1.280   .     A
C1091  O1119   1.291   .     A
C1091  O1117   1.272   .     A
C1091  C1093   1.437   .     S
C1092  O1120   1.284   .     A
C1092  C1094   1.433   .     S
C1092  O1118   1.279   .     A
C1094  C1161   1.364   .     S
C1094  C1201   1.538   .     S
C1095  C1143   1.511   .     S
C1095  C1100   1.411   .     A
C1096  C1099   1.408   .     A
C1096  C1150   1.517   .     S
C1096  C690    1.381   1_565 S
C1097  C1099   1.391   .     A
C1097  H1105   1.086   .     S
C1097  C687    1.372   1_565 S
C1098  C1100   1.398   .     A
C1098  H1106   1.086   .     S
C1101  H1107   1.082   .     S
C1101  N1112   1.366   .     A
C1102  N1111   1.366   .     A
C1102  H1108   1.080   .     S
C1102  C1716   1.412   .     S
C1103  N1111   1.365   .     A
C1103  H1109   1.081   .     S
C1103  C1713   1.413   .     S
C1104  N1112   1.363   .     A
C1104  H1110   1.079   .     S
N1111  Zn1121  2.002   .     S
N1112  Zn1122  2.002   .     S
O1113  Zn1121  1.991   .     S
O1114  Zn1122  1.991   .     S
O1115  Zn1122  2.007   .     S
O1116  Zn1121  2.007   .     S
O1117  Zn1121  1.976   .     S
O1118  Zn1122  1.976   .     S
O1119  Zn1122  1.985   .     S
O1120  Zn1121  1.985   .     S
C1123  H1131   1.098   .     S
C1123  H1132   1.112   .     S
C1123  C1161   1.534   .     S
C1123  C1192   1.542   .     S
C1124  H1130   1.112   .     S
C1124  H1129   1.108   .     S
C1124  C1125   1.525   .     S
C1125  H1128   1.110   .     S
C1125  H1127   1.109   .     S
H1126  C1193   1.106   .     S
C1133  H1142   1.106   .     S
C1133  C1134   1.549   .     S
C1134  C1135   1.526   .     S
C1134  H1139   1.109   .     S
C1135  H1138   1.110   .     S
C1135  H1137   1.106   .     S
H1136  C1203   1.111   .     S
H1140  C1202   1.111   .     S
H1141  C1201   1.113   .     S
C1143  C1144   1.530   .     S
C1143  H1148   1.099   .     S
C1143  H1149   1.112   .     S
C1144  H1147   1.108   .     S
C1144  H1146   1.110   .     S
C1144  H1145   1.111   .     S
C1150  H1156   1.109   .     S
C1150  C1151   1.526   .     S
C1150  H1155   1.112   .     S
C1151  H1153   1.109   .     S
C1151  H1154   1.111   .     S
C1151  H1152   1.111   .     S
C1157  O1181   1.283   .     A
C1157  C1168   1.423   .     S
C1157  O1183   1.279   .     A
C1158  C1167   1.415   .     S
C1158  O1184   1.277   .     A
C1158  O1182   1.280   .     A
C1159  O1187   1.291   .     A
C1159  O1185   1.272   .     A
C1159  C1161   1.437   .     S
C1160  O1188   1.284   .     A
C1160  C1162   1.433   .     S
C1160  O1186   1.279   .     A
C1162  C1025   1.364   1_655 S
C1162  C1065   1.538   1_655 S
C1163  C1211   1.511   .     S
C1163  C1168   1.411   .     A
C1164  C1167   1.408   .     A
C1164  C1218   1.517   .     S
C1164  C758    1.381   1_565 S
C1165  C1167   1.391   .     A
C1165  H1173   1.086   .     S
C1165  C755    1.372   1_565 S
C1166  C1168   1.398   .     A
C1166  H1174   1.086   .     S
C1169  H1175   1.082   .     S
C1169  N1180   1.366   .     A
C1170  N1179   1.366   .     A
C1170  H1176   1.080   .     S
C1170  C1784   1.412   .     S
C1171  N1179   1.365   .     A
C1171  H1177   1.081   .     S
C1171  C1781   1.413   .     S
C1172  N1180   1.363   .     A
C1172  H1178   1.079   .     S
N1179  Zn1189  2.002   .     S
N1180  Zn1190  2.002   .     S
O1181  Zn1189  1.991   .     S
O1182  Zn1190  1.991   .     S
O1183  Zn1190  2.007   .     S
O1184  Zn1189  2.007   .     S
O1185  Zn1189  1.976   .     S
O1186  Zn1190  1.976   .     S
O1187  Zn1190  1.985   .     S
O1188  Zn1189  1.985   .     S
C1191  H1199   1.098   .     S
C1191  H1200   1.112   .     S
C1191  C1025   1.534   1_655 S
C1191  C1056   1.542   1_655 S
C1192  H1198   1.112   .     S
C1192  H1197   1.108   .     S
C1192  C1193   1.525   .     S
C1193  H1196   1.110   .     S
C1193  H1195   1.109   .     S
H1194  C1057   1.106   1_655 S
C1201  H1210   1.106   .     S
C1201  C1202   1.549   .     S
C1202  C1203   1.526   .     S
C1202  H1207   1.109   .     S
C1203  H1206   1.110   .     S
C1203  H1205   1.106   .     S
H1204  C1067   1.111   1_655 S
H1208  C1066   1.111   1_655 S
H1209  C1065   1.113   1_655 S
C1211  C1212   1.530   .     S
C1211  H1216   1.099   .     S
C1211  H1217   1.112   .     S
C1212  H1215   1.108   .     S
C1212  H1214   1.110   .     S
C1212  H1213   1.111   .     S
C1218  H1224   1.109   .     S
C1218  C1219   1.526   .     S
C1218  H1223   1.112   .     S
C1219  H1221   1.109   .     S
C1219  H1222   1.111   .     S
C1219  H1220   1.111   .     S
C1225  O1249   1.283   .     A
C1225  C1236   1.423   .     S
C1225  O1251   1.279   .     A
C1226  C1235   1.415   .     S
C1226  O1252   1.277   .     A
C1226  O1250   1.280   .     A
C1227  O1255   1.291   .     A
C1227  O1253   1.272   .     A
C1227  C1229   1.437   .     S
C1228  O1256   1.284   .     A
C1228  C1230   1.433   .     S
C1228  O1254   1.279   .     A
C1229  C1366   1.364   1_455 S
C1229  C1395   1.534   1_455 S
C1230  C1297   1.364   .     S
C1230  C1337   1.538   .     S
C1231  C1279   1.511   .     S
C1231  C1236   1.411   .     A
C1231  C1641   1.372   1_545 S
C1232  C1235   1.408   .     A
C1232  C1286   1.517   .     S
C1232  C1438   1.381   .     S
C1233  C1235   1.391   .     A
C1233  H1241   1.086   .     S
C1233  C1435   1.372   .     S
C1234  C1236   1.398   .     A
C1234  H1242   1.086   .     S
C1234  C1640   1.381   1_545 S
C1237  H1243   1.082   .     S
C1237  N1248   1.366   .     A
C1238  N1247   1.366   .     A
C1238  H1244   1.080   .     S
C1238  C16     1.412   1_556 S
C1239  N1247   1.365   .     A
C1239  H1245   1.081   .     S
C1239  C13     1.413   1_556 S
C1240  N1248   1.363   .     A
C1240  H1246   1.079   .     S
N1247  Zn1257  2.002   .     S
N1248  Zn1258  2.002   .     S
O1249  Zn1257  1.991   .     S
O1250  Zn1258  1.991   .     S
O1251  Zn1258  2.007   .     S
O1252  Zn1257  2.007   .     S
O1253  Zn1257  1.976   .     S
O1254  Zn1258  1.976   .     S
O1255  Zn1258  1.985   .     S
O1256  Zn1257  1.985   .     S
C1259  H1267   1.098   .     S
C1259  H1268   1.112   .     S
C1259  C1297   1.534   .     S
C1259  C1328   1.542   .     S
C1260  H1266   1.112   .     S
C1260  H1265   1.108   .     S
C1260  C1261   1.525   .     S
C1260  C1395   1.542   1_455 S
C1261  H1264   1.110   .     S
C1261  H1263   1.109   .     S
C1261  H1398   1.106   1_455 S
H1262  C1329   1.106   .     S
C1269  H1278   1.106   .     S
C1269  C1270   1.549   .     S
C1269  C1366   1.538   1_455 S
C1269  H1413   1.113   1_455 S
C1270  C1271   1.526   .     S
C1270  H1275   1.109   .     S
C1270  H1412   1.111   1_455 S
C1271  H1274   1.110   .     S
C1271  H1273   1.106   .     S
C1271  H1408   1.111   1_455 S
H1272  C1339   1.111   .     S
H1276  C1338   1.111   .     S
H1277  C1337   1.113   .     S
C1279  C1280   1.530   .     S
C1279  H1284   1.099   .     S
C1279  H1285   1.112   .     S
C1280  H1283   1.108   .     S
C1280  H1282   1.110   .     S
C1280  H1281   1.111   .     S
C1286  H1292   1.109   .     S
C1286  C1287   1.526   .     S
C1286  H1291   1.112   .     S
C1287  H1289   1.109   .     S
C1287  H1290   1.111   .     S
C1287  H1288   1.111   .     S
C1293  O1317   1.283   .     A
C1293  C1304   1.423   .     S
C1293  O1319   1.279   .     A
C1294  C1303   1.415   .     S
C1294  O1320   1.277   .     A
C1294  O1318   1.280   .     A
C1295  O1323   1.291   .     A
C1295  O1321   1.272   .     A
C1295  C1297   1.437   .     S
C1296  O1324   1.284   .     A
C1296  C1298   1.433   .     S
C1296  O1322   1.279   .     A
C1298  C1365   1.364   .     S
C1298  C1405   1.538   .     S
C1299  C1347   1.511   .     S
C1299  C1304   1.411   .     A
C1299  C1709   1.372   1_545 S
C1300  C1303   1.408   .     A
C1300  C1354   1.517   .     S
C1300  C1506   1.381   .     S
C1301  C1303   1.391   .     A
C1301  H1309   1.086   .     S
C1301  C1503   1.372   .     S
C1302  C1304   1.398   .     A
C1302  H1310   1.086   .     S
C1302  C1708   1.381   1_545 S
C1305  H1311   1.082   .     S
C1305  N1316   1.366   .     A
C1306  N1315   1.366   .     A
C1306  H1312   1.080   .     S
C1306  C84     1.412   1_556 S
C1307  N1315   1.365   .     A
C1307  H1313   1.081   .     S
C1307  C81     1.413   1_556 S
C1308  N1316   1.363   .     A
C1308  H1314   1.079   .     S
N1315  Zn1325  2.002   .     S
N1316  Zn1326  2.002   .     S
O1317  Zn1325  1.991   .     S
O1318  Zn1326  1.991   .     S
O1319  Zn1326  2.007   .     S
O1320  Zn1325  2.007   .     S
O1321  Zn1325  1.976   .     S
O1322  Zn1326  1.976   .     S
O1323  Zn1326  1.985   .     S
O1324  Zn1325  1.985   .     S
C1327  H1335   1.098   .     S
C1327  H1336   1.112   .     S
C1327  C1365   1.534   .     S
C1327  C1396   1.542   .     S
C1328  H1334   1.112   .     S
C1328  H1333   1.108   .     S
C1328  C1329   1.525   .     S
C1329  H1332   1.110   .     S
C1329  H1331   1.109   .     S
H1330  C1397   1.106   .     S
C1337  H1346   1.106   .     S
C1337  C1338   1.549   .     S
C1338  C1339   1.526   .     S
C1338  H1343   1.109   .     S
C1339  H1342   1.110   .     S
C1339  H1341   1.106   .     S
H1340  C1407   1.111   .     S
H1344  C1406   1.111   .     S
H1345  C1405   1.113   .     S
C1347  C1348   1.530   .     S
C1347  H1352   1.099   .     S
C1347  H1353   1.112   .     S
C1348  H1351   1.108   .     S
C1348  H1350   1.110   .     S
C1348  H1349   1.111   .     S
C1354  H1360   1.109   .     S
C1354  C1355   1.526   .     S
C1354  H1359   1.112   .     S
C1355  H1357   1.109   .     S
C1355  H1358   1.111   .     S
C1355  H1356   1.111   .     S
C1361  O1385   1.283   .     A
C1361  C1372   1.423   .     S
C1361  O1387   1.279   .     A
C1362  C1371   1.415   .     S
C1362  O1388   1.277   .     A
C1362  O1386   1.280   .     A
C1363  O1391   1.291   .     A
C1363  O1389   1.272   .     A
C1363  C1365   1.437   .     S
C1364  O1392   1.284   .     A
C1364  C1366   1.433   .     S
C1364  O1390   1.279   .     A
C1366  C1229   1.364   1_655 S
C1366  C1269   1.538   1_655 S
C1367  C1415   1.511   .     S
C1367  C1372   1.411   .     A
C1367  C1777   1.372   1_545 S
C1368  C1371   1.408   .     A
C1368  C1422   1.517   .     S
C1368  C1574   1.381   .     S
C1369  C1371   1.391   .     A
C1369  H1377   1.086   .     S
C1369  C1571   1.372   .     S
C1370  C1372   1.398   .     A
C1370  H1378   1.086   .     S
C1370  C1776   1.381   1_545 S
C1373  H1379   1.082   .     S
C1373  N1384   1.366   .     A
C1374  N1383   1.366   .     A
C1374  H1380   1.080   .     S
C1374  C152    1.412   1_556 S
C1375  N1383   1.365   .     A
C1375  H1381   1.081   .     S
C1375  C149    1.413   1_556 S
C1376  N1384   1.363   .     A
C1376  H1382   1.079   .     S
N1383  Zn1393  2.002   .     S
N1384  Zn1394  2.002   .     S
O1385  Zn1393  1.991   .     S
O1386  Zn1394  1.991   .     S
O1387  Zn1394  2.007   .     S
O1388  Zn1393  2.007   .     S
O1389  Zn1393  1.976   .     S
O1390  Zn1394  1.976   .     S
O1391  Zn1394  1.985   .     S
O1392  Zn1393  1.985   .     S
C1395  H1403   1.098   .     S
C1395  H1404   1.112   .     S
C1395  C1229   1.534   1_655 S
C1395  C1260   1.542   1_655 S
C1396  H1402   1.112   .     S
C1396  H1401   1.108   .     S
C1396  C1397   1.525   .     S
C1397  H1400   1.110   .     S
C1397  H1399   1.109   .     S
H1398  C1261   1.106   1_655 S
C1405  H1414   1.106   .     S
C1405  C1406   1.549   .     S
C1406  C1407   1.526   .     S
C1406  H1411   1.109   .     S
C1407  H1410   1.110   .     S
C1407  H1409   1.106   .     S
H1408  C1271   1.111   1_655 S
H1412  C1270   1.111   1_655 S
H1413  C1269   1.113   1_655 S
C1415  C1416   1.530   .     S
C1415  H1420   1.099   .     S
C1415  H1421   1.112   .     S
C1416  H1419   1.108   .     S
C1416  H1418   1.110   .     S
C1416  H1417   1.111   .     S
C1422  H1428   1.109   .     S
C1422  C1423   1.526   .     S
C1422  H1427   1.112   .     S
C1423  H1425   1.109   .     S
C1423  H1426   1.111   .     S
C1423  H1424   1.111   .     S
C1429  O1453   1.283   .     A
C1429  C1440   1.423   .     S
C1429  O1455   1.279   .     A
C1430  C1439   1.415   .     S
C1430  O1456   1.277   .     A
C1430  O1454   1.280   .     A
C1431  O1459   1.291   .     A
C1431  O1457   1.272   .     A
C1431  C1433   1.437   .     S
C1432  O1460   1.284   .     A
C1432  C1434   1.433   .     S
C1432  O1458   1.279   .     A
C1433  C1570   1.364   1_455 S
C1433  C1599   1.534   1_455 S
C1434  C1501   1.364   .     S
C1434  C1541   1.538   .     S
C1435  C1483   1.511   .     S
C1435  C1440   1.411   .     A
C1436  C1439   1.408   .     A
C1436  C1490   1.517   .     S
C1436  C1642   1.381   .     S
C1437  C1439   1.391   .     A
C1437  H1445   1.086   .     S
C1437  C1639   1.372   .     S
C1438  C1440   1.398   .     A
C1438  H1446   1.086   .     S
C1441  H1447   1.082   .     S
C1441  N1452   1.366   .     A
C1442  N1451   1.366   .     A
C1442  H1448   1.080   .     S
C1442  C220    1.412   1_556 S
C1443  N1451   1.365   .     A
C1443  H1449   1.081   .     S
C1443  C217    1.413   1_556 S
C1444  N1452   1.363   .     A
C1444  H1450   1.079   .     S
N1451  Zn1461  2.002   .     S
N1452  Zn1462  2.002   .     S
O1453  Zn1461  1.991   .     S
O1454  Zn1462  1.991   .     S
O1455  Zn1462  2.007   .     S
O1456  Zn1461  2.007   .     S
O1457  Zn1461  1.976   .     S
O1458  Zn1462  1.976   .     S
O1459  Zn1462  1.985   .     S
O1460  Zn1461  1.985   .     S
C1463  H1471   1.098   .     S
C1463  H1472   1.112   .     S
C1463  C1501   1.534   .     S
C1463  C1532   1.542   .     S
C1464  H1470   1.112   .     S
C1464  H1469   1.108   .     S
C1464  C1465   1.525   .     S
C1464  C1599   1.542   1_455 S
C1465  H1468   1.110   .     S
C1465  H1467   1.109   .     S
C1465  H1602   1.106   1_455 S
H1466  C1533   1.106   .     S
C1473  H1482   1.106   .     S
C1473  C1474   1.549   .     S
C1473  C1570   1.538   1_455 S
C1473  H1617   1.113   1_455 S
C1474  C1475   1.526   .     S
C1474  H1479   1.109   .     S
C1474  H1616   1.111   1_455 S
C1475  H1478   1.110   .     S
C1475  H1477   1.106   .     S
C1475  H1612   1.111   1_455 S
H1476  C1543   1.111   .     S
H1480  C1542   1.111   .     S
H1481  C1541   1.113   .     S
C1483  C1484   1.530   .     S
C1483  H1488   1.099   .     S
C1483  H1489   1.112   .     S
C1484  H1487   1.108   .     S
C1484  H1486   1.110   .     S
C1484  H1485   1.111   .     S
C1490  H1496   1.109   .     S
C1490  C1491   1.526   .     S
C1490  H1495   1.112   .     S
C1491  H1493   1.109   .     S
C1491  H1494   1.111   .     S
C1491  H1492   1.111   .     S
C1497  O1521   1.283   .     A
C1497  C1508   1.423   .     S
C1497  O1523   1.279   .     A
C1498  C1507   1.415   .     S
C1498  O1524   1.277   .     A
C1498  O1522   1.280   .     A
C1499  O1527   1.291   .     A
C1499  O1525   1.272   .     A
C1499  C1501   1.437   .     S
C1500  O1528   1.284   .     A
C1500  C1502   1.433   .     S
C1500  O1526   1.279   .     A
C1502  C1569   1.364   .     S
C1502  C1609   1.538   .     S
C1503  C1551   1.511   .     S
C1503  C1508   1.411   .     A
C1504  C1507   1.408   .     A
C1504  C1558   1.517   .     S
C1504  C1710   1.381   .     S
C1505  C1507   1.391   .     A
C1505  H1513   1.086   .     S
C1505  C1707   1.372   .     S
C1506  C1508   1.398   .     A
C1506  H1514   1.086   .     S
C1509  H1515   1.082   .     S
C1509  N1520   1.366   .     A
C1510  N1519   1.366   .     A
C1510  H1516   1.080   .     S
C1510  C288    1.412   1_556 S
C1511  N1519   1.365   .     A
C1511  H1517   1.081   .     S
C1511  C285    1.413   1_556 S
C1512  N1520   1.363   .     A
C1512  H1518   1.079   .     S
N1519  Zn1529  2.002   .     S
N1520  Zn1530  2.002   .     S
O1521  Zn1529  1.991   .     S
O1522  Zn1530  1.991   .     S
O1523  Zn1530  2.007   .     S
O1524  Zn1529  2.007   .     S
O1525  Zn1529  1.976   .     S
O1526  Zn1530  1.976   .     S
O1527  Zn1530  1.985   .     S
O1528  Zn1529  1.985   .     S
C1531  H1539   1.098   .     S
C1531  H1540   1.112   .     S
C1531  C1569   1.534   .     S
C1531  C1600   1.542   .     S
C1532  H1538   1.112   .     S
C1532  H1537   1.108   .     S
C1532  C1533   1.525   .     S
C1533  H1536   1.110   .     S
C1533  H1535   1.109   .     S
H1534  C1601   1.106   .     S
C1541  H1550   1.106   .     S
C1541  C1542   1.549   .     S
C1542  C1543   1.526   .     S
C1542  H1547   1.109   .     S
C1543  H1546   1.110   .     S
C1543  H1545   1.106   .     S
H1544  C1611   1.111   .     S
H1548  C1610   1.111   .     S
H1549  C1609   1.113   .     S
C1551  C1552   1.530   .     S
C1551  H1556   1.099   .     S
C1551  H1557   1.112   .     S
C1552  H1555   1.108   .     S
C1552  H1554   1.110   .     S
C1552  H1553   1.111   .     S
C1558  H1564   1.109   .     S
C1558  C1559   1.526   .     S
C1558  H1563   1.112   .     S
C1559  H1561   1.109   .     S
C1559  H1562   1.111   .     S
C1559  H1560   1.111   .     S
C1565  O1589   1.283   .     A
C1565  C1576   1.423   .     S
C1565  O1591   1.279   .     A
C1566  C1575   1.415   .     S
C1566  O1592   1.277   .     A
C1566  O1590   1.280   .     A
C1567  O1595   1.291   .     A
C1567  O1593   1.272   .     A
C1567  C1569   1.437   .     S
C1568  O1596   1.284   .     A
C1568  C1570   1.433   .     S
C1568  O1594   1.279   .     A
C1570  C1433   1.364   1_655 S
C1570  C1473   1.538   1_655 S
C1571  C1619   1.511   .     S
C1571  C1576   1.411   .     A
C1572  C1575   1.408   .     A
C1572  C1626   1.517   .     S
C1572  C1778   1.381   .     S
C1573  C1575   1.391   .     A
C1573  H1581   1.086   .     S
C1573  C1775   1.372   .     S
C1574  C1576   1.398   .     A
C1574  H1582   1.086   .     S
C1577  H1583   1.082   .     S
C1577  N1588   1.366   .     A
C1578  N1587   1.366   .     A
C1578  H1584   1.080   .     S
C1578  C356    1.412   1_556 S
C1579  N1587   1.365   .     A
C1579  H1585   1.081   .     S
C1579  C353    1.413   1_556 S
C1580  N1588   1.363   .     A
C1580  H1586   1.079   .     S
N1587  Zn1597  2.002   .     S
N1588  Zn1598  2.002   .     S
O1589  Zn1597  1.991   .     S
O1590  Zn1598  1.991   .     S
O1591  Zn1598  2.007   .     S
O1592  Zn1597  2.007   .     S
O1593  Zn1597  1.976   .     S
O1594  Zn1598  1.976   .     S
O1595  Zn1598  1.985   .     S
O1596  Zn1597  1.985   .     S
C1599  H1607   1.098   .     S
C1599  H1608   1.112   .     S
C1599  C1433   1.534   1_655 S
C1599  C1464   1.542   1_655 S
C1600  H1606   1.112   .     S
C1600  H1605   1.108   .     S
C1600  C1601   1.525   .     S
C1601  H1604   1.110   .     S
C1601  H1603   1.109   .     S
H1602  C1465   1.106   1_655 S
C1609  H1618   1.106   .     S
C1609  C1610   1.549   .     S
C1610  C1611   1.526   .     S
C1610  H1615   1.109   .     S
C1611  H1614   1.110   .     S
C1611  H1613   1.106   .     S
H1612  C1475   1.111   1_655 S
H1616  C1474   1.111   1_655 S
H1617  C1473   1.113   1_655 S
C1619  C1620   1.530   .     S
C1619  H1624   1.099   .     S
C1619  H1625   1.112   .     S
C1620  H1623   1.108   .     S
C1620  H1622   1.110   .     S
C1620  H1621   1.111   .     S
C1626  H1632   1.109   .     S
C1626  C1627   1.526   .     S
C1626  H1631   1.112   .     S
C1627  H1629   1.109   .     S
C1627  H1630   1.111   .     S
C1627  H1628   1.111   .     S
C1633  O1657   1.283   .     A
C1633  C1644   1.423   .     S
C1633  O1659   1.279   .     A
C1634  C1643   1.415   .     S
C1634  O1660   1.277   .     A
C1634  O1658   1.280   .     A
C1635  O1663   1.291   .     A
C1635  O1661   1.272   .     A
C1635  C1637   1.437   .     S
C1636  O1664   1.284   .     A
C1636  C1638   1.433   .     S
C1636  O1662   1.279   .     A
C1637  C1774   1.364   1_455 S
C1637  C1803   1.534   1_455 S
C1638  C1705   1.364   .     S
C1638  C1745   1.538   .     S
C1639  C1687   1.511   .     S
C1639  C1644   1.411   .     A
C1640  C1643   1.408   .     A
C1640  C1694   1.517   .     S
C1640  C1234   1.381   1_565 S
C1641  C1643   1.391   .     A
C1641  H1649   1.086   .     S
C1641  C1231   1.372   1_565 S
C1642  C1644   1.398   .     A
C1642  H1650   1.086   .     S
C1645  H1651   1.082   .     S
C1645  N1656   1.366   .     A
C1646  N1655   1.366   .     A
C1646  H1652   1.080   .     S
C1646  C424    1.412   1_556 S
C1647  N1655   1.365   .     A
C1647  H1653   1.081   .     S
C1647  C421    1.413   1_556 S
C1648  N1656   1.363   .     A
C1648  H1654   1.079   .     S
N1655  Zn1665  2.002   .     S
N1656  Zn1666  2.002   .     S
O1657  Zn1665  1.991   .     S
O1658  Zn1666  1.991   .     S
O1659  Zn1666  2.007   .     S
O1660  Zn1665  2.007   .     S
O1661  Zn1665  1.976   .     S
O1662  Zn1666  1.976   .     S
O1663  Zn1666  1.985   .     S
O1664  Zn1665  1.985   .     S
C1667  H1675   1.098   .     S
C1667  H1676   1.112   .     S
C1667  C1705   1.534   .     S
C1667  C1736   1.542   .     S
C1668  H1674   1.112   .     S
C1668  H1673   1.108   .     S
C1668  C1669   1.525   .     S
C1668  C1803   1.542   1_455 S
C1669  H1672   1.110   .     S
C1669  H1671   1.109   .     S
C1669  H1806   1.106   1_455 S
H1670  C1737   1.106   .     S
C1677  H1686   1.106   .     S
C1677  C1678   1.549   .     S
C1677  C1774   1.538   1_455 S
C1677  H1821   1.113   1_455 S
C1678  C1679   1.526   .     S
C1678  H1683   1.109   .     S
C1678  H1820   1.111   1_455 S
C1679  H1682   1.110   .     S
C1679  H1681   1.106   .     S
C1679  H1816   1.111   1_455 S
H1680  C1747   1.111   .     S
H1684  C1746   1.111   .     S
H1685  C1745   1.113   .     S
C1687  C1688   1.530   .     S
C1687  H1692   1.099   .     S
C1687  H1693   1.112   .     S
C1688  H1691   1.108   .     S
C1688  H1690   1.110   .     S
C1688  H1689   1.111   .     S
C1694  H1700   1.109   .     S
C1694  C1695   1.526   .     S
C1694  H1699   1.112   .     S
C1695  H1697   1.109   .     S
C1695  H1698   1.111   .     S
C1695  H1696   1.111   .     S
C1701  O1725   1.283   .     A
C1701  C1712   1.423   .     S
C1701  O1727   1.279   .     A
C1702  C1711   1.415   .     S
C1702  O1728   1.277   .     A
C1702  O1726   1.280   .     A
C1703  O1731   1.291   .     A
C1703  O1729   1.272   .     A
C1703  C1705   1.437   .     S
C1704  O1732   1.284   .     A
C1704  C1706   1.433   .     S
C1704  O1730   1.279   .     A
C1706  C1773   1.364   .     S
C1706  C1813   1.538   .     S
C1707  C1755   1.511   .     S
C1707  C1712   1.411   .     A
C1708  C1711   1.408   .     A
C1708  C1762   1.517   .     S
C1708  C1302   1.381   1_565 S
C1709  C1711   1.391   .     A
C1709  H1717   1.086   .     S
C1709  C1299   1.372   1_565 S
C1710  C1712   1.398   .     A
C1710  H1718   1.086   .     S
C1713  H1719   1.082   .     S
C1713  N1724   1.366   .     A
C1714  N1723   1.366   .     A
C1714  H1720   1.080   .     S
C1714  C492    1.412   1_556 S
C1715  N1723   1.365   .     A
C1715  H1721   1.081   .     S
C1715  C489    1.413   1_556 S
C1716  N1724   1.363   .     A
C1716  H1722   1.079   .     S
N1723  Zn1733  2.002   .     S
N1724  Zn1734  2.002   .     S
O1725  Zn1733  1.991   .     S
O1726  Zn1734  1.991   .     S
O1727  Zn1734  2.007   .     S
O1728  Zn1733  2.007   .     S
O1729  Zn1733  1.976   .     S
O1730  Zn1734  1.976   .     S
O1731  Zn1734  1.985   .     S
O1732  Zn1733  1.985   .     S
C1735  H1743   1.098   .     S
C1735  H1744   1.112   .     S
C1735  C1773   1.534   .     S
C1735  C1804   1.542   .     S
C1736  H1742   1.112   .     S
C1736  H1741   1.108   .     S
C1736  C1737   1.525   .     S
C1737  H1740   1.110   .     S
C1737  H1739   1.109   .     S
H1738  C1805   1.106   .     S
C1745  H1754   1.106   .     S
C1745  C1746   1.549   .     S
C1746  C1747   1.526   .     S
C1746  H1751   1.109   .     S
C1747  H1750   1.110   .     S
C1747  H1749   1.106   .     S
H1748  C1815   1.111   .     S
H1752  C1814   1.111   .     S
H1753  C1813   1.113   .     S
C1755  C1756   1.530   .     S
C1755  H1760   1.099   .     S
C1755  H1761   1.112   .     S
C1756  H1759   1.108   .     S
C1756  H1758   1.110   .     S
C1756  H1757   1.111   .     S
C1762  H1768   1.109   .     S
C1762  C1763   1.526   .     S
C1762  H1767   1.112   .     S
C1763  H1765   1.109   .     S
C1763  H1766   1.111   .     S
C1763  H1764   1.111   .     S
C1769  O1793   1.283   .     A
C1769  C1780   1.423   .     S
C1769  O1795   1.279   .     A
C1770  C1779   1.415   .     S
C1770  O1796   1.277   .     A
C1770  O1794   1.280   .     A
C1771  O1799   1.291   .     A
C1771  O1797   1.272   .     A
C1771  C1773   1.437   .     S
C1772  O1800   1.284   .     A
C1772  C1774   1.433   .     S
C1772  O1798   1.279   .     A
C1774  C1637   1.364   1_655 S
C1774  C1677   1.538   1_655 S
C1775  C1823   1.511   .     S
C1775  C1780   1.411   .     A
C1776  C1779   1.408   .     A
C1776  C1830   1.517   .     S
C1776  C1370   1.381   1_565 S
C1777  C1779   1.391   .     A
C1777  H1785   1.086   .     S
C1777  C1367   1.372   1_565 S
C1778  C1780   1.398   .     A
C1778  H1786   1.086   .     S
C1781  H1787   1.082   .     S
C1781  N1792   1.366   .     A
C1782  N1791   1.366   .     A
C1782  H1788   1.080   .     S
C1782  C560    1.412   1_556 S
C1783  N1791   1.365   .     A
C1783  H1789   1.081   .     S
C1783  C557    1.413   1_556 S
C1784  N1792   1.363   .     A
C1784  H1790   1.079   .     S
N1791  Zn1801  2.002   .     S
N1792  Zn1802  2.002   .     S
O1793  Zn1801  1.991   .     S
O1794  Zn1802  1.991   .     S
O1795  Zn1802  2.007   .     S
O1796  Zn1801  2.007   .     S
O1797  Zn1801  1.976   .     S
O1798  Zn1802  1.976   .     S
O1799  Zn1802  1.985   .     S
O1800  Zn1801  1.985   .     S
C1803  H1811   1.098   .     S
C1803  H1812   1.112   .     S
C1803  C1637   1.534   1_655 S
C1803  C1668   1.542   1_655 S
C1804  H1810   1.112   .     S
C1804  H1809   1.108   .     S
C1804  C1805   1.525   .     S
C1805  H1808   1.110   .     S
C1805  H1807   1.109   .     S
H1806  C1669   1.106   1_655 S
C1813  H1822   1.106   .     S
C1813  C1814   1.549   .     S
C1814  C1815   1.526   .     S
C1814  H1819   1.109   .     S
C1815  H1818   1.110   .     S
C1815  H1817   1.106   .     S
H1816  C1679   1.111   1_655 S
H1820  C1678   1.111   1_655 S
H1821  C1677   1.113   1_655 S
C1823  C1824   1.530   .     S
C1823  H1828   1.099   .     S
C1823  H1829   1.112   .     S
C1824  H1827   1.108   .     S
C1824  H1826   1.110   .     S
C1824  H1825   1.111   .     S
C1830  H1836   1.109   .     S
C1830  C1831   1.526   .     S
C1830  H1835   1.112   .     S
C1831  H1833   1.109   .     S
C1831  H1834   1.111   .     S
C1831  H1832   1.111   .     S
