data_str_m3_o1_o18_pcu_sym.32
_audit_creation_date              2020-01-03
_audit_creation_method            'Materials Studio'
_symmetry_space_group_name_H-M    'P1'
_symmetry_Int_Tables_number       1
_symmetry_cell_setting            triclinic
loop_
_symmetry_equiv_pos_as_xyz
  x,y,z
_cell_length_a                    29.6830
_cell_length_b                    31.9937
_cell_length_c                    30.3855
_cell_angle_alpha                 89.7733
_cell_angle_beta                  70.5814
_cell_angle_gamma                 89.9014
loop_
_atom_site_label
_atom_site_type_symbol
_atom_site_fract_x
_atom_site_fract_y
_atom_site_fract_z
_atom_site_U_iso_or_equiv
_atom_site_adp_type
_atom_site_occupancy
C1     C     0.16663   0.24662   0.25008   0.00000  Uiso   1.00
C2     C     0.12308   0.31193   0.26707   0.00000  Uiso   1.00
C3     C     0.16664   0.04254   0.25019   0.00000  Uiso   1.00
C4     C     0.16660   0.29078   0.25023   0.00000  Uiso   1.00
C5     C     0.32191   0.15027   0.21345   0.00000  Uiso   1.00
C6     C     0.01138   0.18291   0.28661   0.00000  Uiso   1.00
C7     C     0.03641   0.15057   0.21334   0.00000  Uiso   1.00
C8     C     0.29693   0.18303   0.28656   0.00000  Uiso   1.00
C9     C     0.13746   0.16627   0.33798   0.00000  Uiso   1.00
C10    C     0.19602   0.16550   0.16186   0.00000  Uiso   1.00
C11    C     0.12102   0.16019   0.38847   0.00000  Uiso   1.00
C12    C     0.16666   0.08671   0.25004   0.00000  Uiso   1.00
C13    C     0.21252   0.15522   0.11190   0.00000  Uiso   1.00
C14    C     0.05857   0.15792   0.46320   0.00000  Uiso   1.00
C15    C     0.27324   0.12782   0.04342   0.00000  Uiso   1.00
C16    C     0.07415   0.17009   0.41659   0.00000  Uiso   1.00
C17    C     0.26132   0.14925   0.08590   0.00000  Uiso   1.00
C18    C     0.15279   0.14220   0.40838   0.00000  Uiso   1.00
C19    C     0.17787   0.14512   0.09191   0.00000  Uiso   1.00
C20    C     0.13791   0.13056   0.45546   0.00000  Uiso   1.00
C21    C     0.19006   0.12618   0.04810   0.00000  Uiso   1.00
C22    C     0.08968   0.13823   0.48283   0.00000  Uiso   1.00
C23    C     0.10594   0.11633   0.05212   0.00000  Uiso   1.00
C24    C     0.23857   0.11885   0.02302   0.00000  Uiso   1.00
C25    C     0.17056   0.11641   0.47758   0.00000  Uiso   1.00
C26    C     0.15542   0.11854   0.02675   0.00000  Uiso   1.00
C27    C     0.29943   0.20477   0.10740   0.00000  Uiso   1.00
C28    C     0.00026   0.22481   0.06317   0.00000  Uiso   1.00
C29    C     0.00603   0.27151   0.07005   0.00000  Uiso   1.00
C30    C     0.05394   0.23315   0.39178   0.00000  Uiso   1.00
C31    C     0.03075   0.25802   0.43659   0.00000  Uiso   1.00
C32    C     0.03746   0.30497   0.42779   0.00000  Uiso   1.00
C33    C     0.09750   0.06195   0.10293   0.00000  Uiso   1.00
C34    C     0.21847   0.10333   0.45377   0.00000  Uiso   1.00
C35    C     0.07827   0.04930   0.15439   0.00000  Uiso   1.00
C36    C     0.08604   0.00284   0.16094   0.00000  Uiso   1.00
C37    C     0.21531   0.04989   0.40468   0.00000  Uiso   1.00
C38    C     0.25029   0.01594   0.40856   0.00000  Uiso   1.00
C39    C     0.23330   0.30580   0.40072   0.00000  Uiso   1.00
C40    C     0.07371   0.12749   0.03002   0.00000  Uiso   1.00
C41    C     0.25189   0.10445   0.47710   0.00000  Uiso   1.00
C42    C     0.21013   0.31193   0.23355   0.00000  Uiso   1.00
C43    C     0.12310   0.02140   0.26696   0.00000  Uiso   1.00
C44    C     0.21015   0.02138   0.23356   0.00000  Uiso   1.00
H45    H     0.03663   0.12948   0.05065   0.00000  Uiso   1.00
H46    H     0.08935   0.29547   0.28052   0.00000  Uiso   1.00
H47    H     0.31400   0.13694   0.18421   0.00000  Uiso   1.00
H48    H     0.01924   0.19586   0.31596   0.00000  Uiso   1.00
H49    H     0.06443   0.13798   0.18385   0.00000  Uiso   1.00
H50    H     0.26901   0.19624   0.31587   0.00000  Uiso   1.00
H51    H     0.31295   0.21105   0.13672   0.00000  Uiso   1.00
H52    H     0.26403   0.22052   0.11642   0.00000  Uiso   1.00
H53    H     0.03582   0.20959   0.05386   0.00000  Uiso   1.00
H54    H     0.31903   0.22057   0.03424   0.00000  Uiso   1.00
H55    H     0.30451   0.28776   0.07772   0.00000  Uiso   1.00
H56    H     0.28884   0.09669   0.45818   0.00000  Uiso   1.00
H57    H     0.03169   0.28521   0.03785   0.00000  Uiso   1.00
H58    H     0.01999   0.27668   0.09926   0.00000  Uiso   1.00
H59    H     0.03952   0.24485   0.36469   0.00000  Uiso   1.00
H60    H     0.09315   0.23927   0.37816   0.00000  Uiso   1.00
H61    H     0.32526   0.25086   0.45062   0.00000  Uiso   1.00
H62    H     0.04740   0.24879   0.46290   0.00000  Uiso   1.00
H63    H     0.07608   0.31292   0.41480   0.00000  Uiso   1.00
H64    H     0.02010   0.32208   0.46084   0.00000  Uiso   1.00
H65    H     0.02089   0.31518   0.40170   0.00000  Uiso   1.00
H66    H     0.13656   0.05529   0.08963   0.00000  Uiso   1.00
H67    H     0.14131   0.15372   0.11031   0.00000  Uiso   1.00
H68    H     0.07934   0.04280   0.08320   0.00000  Uiso   1.00
H69    H     0.09686   0.06760   0.17422   0.00000  Uiso   1.00
H70    H     0.03941   0.05632   0.16868   0.00000  Uiso   1.00
H71    H     0.06829   0.31703   0.14107   0.00000  Uiso   1.00
H72    H     0.07049   0.32789   0.19848   0.00000  Uiso   1.00
H73    H     0.12484   0.32885   0.14891   0.00000  Uiso   1.00
H74    H     0.21106   0.04762   0.36978   0.00000  Uiso   1.00
H75    H     0.17916   0.04427   0.43079   0.00000  Uiso   1.00
H76    H     0.28594   0.02185   0.38212   0.00000  Uiso   1.00
H77    H     0.25397   0.01698   0.44376   0.00000  Uiso   1.00
H78    H     0.18953   0.13901   0.38679   0.00000  Uiso   1.00
H79    H     0.19798   0.29893   0.42724   0.00000  Uiso   1.00
H80    H     0.25940   0.28203   0.40384   0.00000  Uiso   1.00
H81    H     0.23035   0.30365   0.36530   0.00000  Uiso   1.00
H82    H     0.02276   0.16617   0.48424   0.00000  Uiso   1.00
H83    H     0.30957   0.11874   0.02556   0.00000  Uiso   1.00
H84    H     0.24388   0.29548   0.22009   0.00000  Uiso   1.00
H85    H     0.08935   0.03786   0.28027   0.00000  Uiso   1.00
H86    H     0.24391   0.03782   0.22016   0.00000  Uiso   1.00
N87    N     0.04759   0.16668   0.25001   0.00000  Uiso   1.00
N88    N     0.28574   0.16666   0.24999   0.00000  Uiso   1.00
O89    O     0.12846   0.22775   0.25000   0.00000  Uiso   1.00
O90    O     0.04236   0.19010   0.39893   0.00000  Uiso   1.00
O91    O     0.08825   0.10488   0.09872   0.00000  Uiso   1.00
O92    O     0.23405   0.09000   0.40789   0.00000  Uiso   1.00
O93    O     0.20488   0.10558   0.24999   0.00000  Uiso   1.00
O94    O     0.20490   0.22774   0.25000   0.00000  Uiso   1.00
O95    O     0.12843   0.10559   0.25000   0.00000  Uiso   1.00
O96    O     0.10661   0.16667   0.31612   0.00000  Uiso   1.00
O97    O     0.22672   0.16666   0.18387   0.00000  Uiso   1.00
O98    O     0.18305   0.16666   0.31612   0.00000  Uiso   1.00
O99    O     0.15028   0.16667   0.18388   0.00000  Uiso   1.00
O100   O     0.29761   0.16066   0.10273   0.00000  Uiso   1.00
Zn101  Zn    0.11562   0.16667   0.25000   0.00000  Uiso   1.00
Zn102  Zn    0.21771   0.16666   0.25000   0.00000  Uiso   1.00
C103   C     0.49996   0.24662   0.25008   0.00000  Uiso   1.00
C104   C     0.45642   0.31193   0.26707   0.00000  Uiso   1.00
C105   C     0.49997   0.04254   0.25019   0.00000  Uiso   1.00
C106   C     0.49993   0.29078   0.25023   0.00000  Uiso   1.00
C107   C     0.65525   0.15027   0.21345   0.00000  Uiso   1.00
C108   C     0.34472   0.18291   0.28661   0.00000  Uiso   1.00
C109   C     0.36975   0.15057   0.21334   0.00000  Uiso   1.00
C110   C     0.63027   0.18303   0.28656   0.00000  Uiso   1.00
C111   C     0.47079   0.16627   0.33798   0.00000  Uiso   1.00
C112   C     0.52935   0.16550   0.16186   0.00000  Uiso   1.00
C113   C     0.45435   0.16019   0.38847   0.00000  Uiso   1.00
C114   C     0.49999   0.08671   0.25004   0.00000  Uiso   1.00
C115   C     0.54586   0.15522   0.11190   0.00000  Uiso   1.00
C116   C     0.39191   0.15792   0.46320   0.00000  Uiso   1.00
C117   C     0.60657   0.12782   0.04342   0.00000  Uiso   1.00
C118   C     0.40749   0.17009   0.41659   0.00000  Uiso   1.00
C119   C     0.59465   0.14925   0.08590   0.00000  Uiso   1.00
C120   C     0.48612   0.14220   0.40838   0.00000  Uiso   1.00
C121   C     0.51121   0.14512   0.09191   0.00000  Uiso   1.00
C122   C     0.47125   0.13056   0.45546   0.00000  Uiso   1.00
C123   C     0.52340   0.12618   0.04810   0.00000  Uiso   1.00
C124   C     0.42301   0.13823   0.48283   0.00000  Uiso   1.00
C125   C     0.43928   0.11633   0.05212   0.00000  Uiso   1.00
C126   C     0.57191   0.11885   0.02302   0.00000  Uiso   1.00
C127   C     0.50389   0.11641   0.47758   0.00000  Uiso   1.00
C128   C     0.48875   0.11854   0.02675   0.00000  Uiso   1.00
C129   C     0.63277   0.20477   0.10740   0.00000  Uiso   1.00
C130   C     0.33359   0.22481   0.06317   0.00000  Uiso   1.00
C131   C     0.33937   0.27151   0.07005   0.00000  Uiso   1.00
C132   C     0.38727   0.23315   0.39178   0.00000  Uiso   1.00
C133   C     0.36408   0.25802   0.43659   0.00000  Uiso   1.00
C134   C     0.37079   0.30497   0.42779   0.00000  Uiso   1.00
C135   C     0.43083   0.06195   0.10293   0.00000  Uiso   1.00
C136   C     0.55180   0.10333   0.45377   0.00000  Uiso   1.00
C137   C     0.41160   0.04930   0.15439   0.00000  Uiso   1.00
C138   C     0.41938   0.00284   0.16094   0.00000  Uiso   1.00
C139   C     0.54864   0.04989   0.40468   0.00000  Uiso   1.00
C140   C     0.58362   0.01594   0.40856   0.00000  Uiso   1.00
C141   C     0.56663   0.30580   0.40072   0.00000  Uiso   1.00
C142   C     0.40705   0.12749   0.03002   0.00000  Uiso   1.00
C143   C     0.58523   0.10445   0.47710   0.00000  Uiso   1.00
C144   C     0.54347   0.31193   0.23355   0.00000  Uiso   1.00
C145   C     0.45643   0.02140   0.26696   0.00000  Uiso   1.00
C146   C     0.54349   0.02138   0.23356   0.00000  Uiso   1.00
H147   H     0.36997   0.12948   0.05065   0.00000  Uiso   1.00
H148   H     0.42268   0.29547   0.28052   0.00000  Uiso   1.00
H149   H     0.64734   0.13694   0.18421   0.00000  Uiso   1.00
H150   H     0.35257   0.19586   0.31596   0.00000  Uiso   1.00
H151   H     0.39777   0.13798   0.18385   0.00000  Uiso   1.00
H152   H     0.60234   0.19624   0.31587   0.00000  Uiso   1.00
H153   H     0.64629   0.21105   0.13672   0.00000  Uiso   1.00
H154   H     0.59736   0.22052   0.11642   0.00000  Uiso   1.00
H155   H     0.36915   0.20959   0.05386   0.00000  Uiso   1.00
H156   H     0.65236   0.22057   0.03424   0.00000  Uiso   1.00
H157   H     0.63784   0.28776   0.07772   0.00000  Uiso   1.00
H158   H     0.62217   0.09669   0.45818   0.00000  Uiso   1.00
H159   H     0.36502   0.28521   0.03785   0.00000  Uiso   1.00
H160   H     0.35333   0.27668   0.09926   0.00000  Uiso   1.00
H161   H     0.37286   0.24485   0.36469   0.00000  Uiso   1.00
H162   H     0.42648   0.23927   0.37816   0.00000  Uiso   1.00
H163   H     0.65859   0.25086   0.45062   0.00000  Uiso   1.00
H164   H     0.38073   0.24879   0.46290   0.00000  Uiso   1.00
H165   H     0.40942   0.31292   0.41480   0.00000  Uiso   1.00
H166   H     0.35344   0.32208   0.46084   0.00000  Uiso   1.00
H167   H     0.35422   0.31518   0.40170   0.00000  Uiso   1.00
H168   H     0.46989   0.05529   0.08963   0.00000  Uiso   1.00
H169   H     0.47464   0.15372   0.11031   0.00000  Uiso   1.00
H170   H     0.41267   0.04280   0.08320   0.00000  Uiso   1.00
H171   H     0.43019   0.06760   0.17422   0.00000  Uiso   1.00
H172   H     0.37274   0.05632   0.16868   0.00000  Uiso   1.00
H173   H     0.40162   0.31703   0.14107   0.00000  Uiso   1.00
H174   H     0.40382   0.32789   0.19848   0.00000  Uiso   1.00
H175   H     0.45817   0.32885   0.14891   0.00000  Uiso   1.00
H176   H     0.54440   0.04762   0.36978   0.00000  Uiso   1.00
H177   H     0.51249   0.04427   0.43079   0.00000  Uiso   1.00
H178   H     0.61928   0.02185   0.38212   0.00000  Uiso   1.00
H179   H     0.58730   0.01698   0.44376   0.00000  Uiso   1.00
H180   H     0.52287   0.13901   0.38679   0.00000  Uiso   1.00
H181   H     0.53132   0.29893   0.42724   0.00000  Uiso   1.00
H182   H     0.59273   0.28203   0.40384   0.00000  Uiso   1.00
H183   H     0.56369   0.30365   0.36530   0.00000  Uiso   1.00
H184   H     0.35610   0.16617   0.48424   0.00000  Uiso   1.00
H185   H     0.64291   0.11874   0.02556   0.00000  Uiso   1.00
H186   H     0.57721   0.29548   0.22009   0.00000  Uiso   1.00
H187   H     0.42268   0.03786   0.28027   0.00000  Uiso   1.00
H188   H     0.57724   0.03782   0.22016   0.00000  Uiso   1.00
N189   N     0.38093   0.16668   0.25001   0.00000  Uiso   1.00
N190   N     0.61907   0.16666   0.24999   0.00000  Uiso   1.00
O191   O     0.46179   0.22775   0.25000   0.00000  Uiso   1.00
O192   O     0.37569   0.19010   0.39893   0.00000  Uiso   1.00
O193   O     0.42159   0.10488   0.09872   0.00000  Uiso   1.00
O194   O     0.56739   0.09000   0.40789   0.00000  Uiso   1.00
O195   O     0.53821   0.10558   0.24999   0.00000  Uiso   1.00
O196   O     0.53823   0.22774   0.25000   0.00000  Uiso   1.00
O197   O     0.46177   0.10559   0.25000   0.00000  Uiso   1.00
O198   O     0.43994   0.16667   0.31612   0.00000  Uiso   1.00
O199   O     0.56006   0.16666   0.18387   0.00000  Uiso   1.00
O200   O     0.51639   0.16666   0.31612   0.00000  Uiso   1.00
O201   O     0.48361   0.16667   0.18388   0.00000  Uiso   1.00
O202   O     0.63094   0.16066   0.10273   0.00000  Uiso   1.00
Zn203  Zn    0.44896   0.16667   0.25000   0.00000  Uiso   1.00
Zn204  Zn    0.55104   0.16666   0.25000   0.00000  Uiso   1.00
C205   C     0.83330   0.24662   0.25008   0.00000  Uiso   1.00
C206   C     0.78975   0.31193   0.26707   0.00000  Uiso   1.00
C207   C     0.83330   0.04254   0.25019   0.00000  Uiso   1.00
C208   C     0.83326   0.29078   0.25023   0.00000  Uiso   1.00
C209   C     0.98858   0.15027   0.21345   0.00000  Uiso   1.00
C210   C     0.67805   0.18291   0.28661   0.00000  Uiso   1.00
C211   C     0.70308   0.15057   0.21334   0.00000  Uiso   1.00
C212   C     0.96360   0.18303   0.28656   0.00000  Uiso   1.00
C213   C     0.80413   0.16627   0.33798   0.00000  Uiso   1.00
C214   C     0.86269   0.16550   0.16186   0.00000  Uiso   1.00
C215   C     0.78769   0.16019   0.38847   0.00000  Uiso   1.00
C216   C     0.83333   0.08671   0.25004   0.00000  Uiso   1.00
C217   C     0.87919   0.15522   0.11190   0.00000  Uiso   1.00
C218   C     0.72524   0.15792   0.46320   0.00000  Uiso   1.00
C219   C     0.93990   0.12782   0.04342   0.00000  Uiso   1.00
C220   C     0.74082   0.17009   0.41659   0.00000  Uiso   1.00
C221   C     0.92798   0.14925   0.08590   0.00000  Uiso   1.00
C222   C     0.81945   0.14220   0.40838   0.00000  Uiso   1.00
C223   C     0.84454   0.14512   0.09191   0.00000  Uiso   1.00
C224   C     0.80458   0.13056   0.45546   0.00000  Uiso   1.00
C225   C     0.85673   0.12618   0.04810   0.00000  Uiso   1.00
C226   C     0.75634   0.13823   0.48283   0.00000  Uiso   1.00
C227   C     0.77261   0.11633   0.05212   0.00000  Uiso   1.00
C228   C     0.90524   0.11885   0.02302   0.00000  Uiso   1.00
C229   C     0.83723   0.11641   0.47758   0.00000  Uiso   1.00
C230   C     0.82209   0.11854   0.02675   0.00000  Uiso   1.00
C231   C     0.96610   0.20477   0.10740   0.00000  Uiso   1.00
C232   C     0.66692   0.22481   0.06317   0.00000  Uiso   1.00
C233   C     0.67270   0.27151   0.07005   0.00000  Uiso   1.00
C234   C     0.72061   0.23315   0.39178   0.00000  Uiso   1.00
C235   C     0.69742   0.25802   0.43659   0.00000  Uiso   1.00
C236   C     0.70412   0.30497   0.42779   0.00000  Uiso   1.00
C237   C     0.76416   0.06195   0.10293   0.00000  Uiso   1.00
C238   C     0.88513   0.10333   0.45377   0.00000  Uiso   1.00
C239   C     0.74493   0.04930   0.15439   0.00000  Uiso   1.00
C240   C     0.75271   0.00284   0.16094   0.00000  Uiso   1.00
C241   C     0.88198   0.04989   0.40468   0.00000  Uiso   1.00
C242   C     0.91695   0.01594   0.40856   0.00000  Uiso   1.00
C243   C     0.89997   0.30580   0.40072   0.00000  Uiso   1.00
C244   C     0.74038   0.12749   0.03002   0.00000  Uiso   1.00
C245   C     0.91856   0.10445   0.47710   0.00000  Uiso   1.00
C246   C     0.87680   0.31193   0.23355   0.00000  Uiso   1.00
C247   C     0.78976   0.02140   0.26696   0.00000  Uiso   1.00
C248   C     0.87682   0.02138   0.23356   0.00000  Uiso   1.00
H249   H     0.70330   0.12948   0.05065   0.00000  Uiso   1.00
H250   H     0.75601   0.29547   0.28052   0.00000  Uiso   1.00
H251   H     0.98067   0.13694   0.18421   0.00000  Uiso   1.00
H252   H     0.68591   0.19586   0.31596   0.00000  Uiso   1.00
H253   H     0.73110   0.13798   0.18385   0.00000  Uiso   1.00
H254   H     0.93567   0.19624   0.31587   0.00000  Uiso   1.00
H255   H     0.97962   0.21105   0.13672   0.00000  Uiso   1.00
H256   H     0.93070   0.22052   0.11642   0.00000  Uiso   1.00
H257   H     0.70248   0.20959   0.05386   0.00000  Uiso   1.00
H258   H     0.98570   0.22057   0.03424   0.00000  Uiso   1.00
H259   H     0.97118   0.28776   0.07772   0.00000  Uiso   1.00
H260   H     0.95551   0.09669   0.45818   0.00000  Uiso   1.00
H261   H     0.69835   0.28521   0.03785   0.00000  Uiso   1.00
H262   H     0.68666   0.27668   0.09926   0.00000  Uiso   1.00
H263   H     0.70619   0.24485   0.36469   0.00000  Uiso   1.00
H264   H     0.75981   0.23927   0.37816   0.00000  Uiso   1.00
H265   H     0.99193   0.25086   0.45062   0.00000  Uiso   1.00
H266   H     0.71407   0.24879   0.46290   0.00000  Uiso   1.00
H267   H     0.74275   0.31292   0.41480   0.00000  Uiso   1.00
H268   H     0.68677   0.32208   0.46084   0.00000  Uiso   1.00
H269   H     0.68755   0.31518   0.40170   0.00000  Uiso   1.00
H270   H     0.80323   0.05529   0.08963   0.00000  Uiso   1.00
H271   H     0.80797   0.15372   0.11031   0.00000  Uiso   1.00
H272   H     0.74601   0.04280   0.08320   0.00000  Uiso   1.00
H273   H     0.76352   0.06760   0.17422   0.00000  Uiso   1.00
H274   H     0.70608   0.05632   0.16868   0.00000  Uiso   1.00
H275   H     0.73495   0.31703   0.14107   0.00000  Uiso   1.00
H276   H     0.73716   0.32789   0.19848   0.00000  Uiso   1.00
H277   H     0.79151   0.32885   0.14891   0.00000  Uiso   1.00
H278   H     0.87773   0.04762   0.36978   0.00000  Uiso   1.00
H279   H     0.84583   0.04427   0.43079   0.00000  Uiso   1.00
H280   H     0.95261   0.02185   0.38212   0.00000  Uiso   1.00
H281   H     0.92063   0.01698   0.44376   0.00000  Uiso   1.00
H282   H     0.85620   0.13901   0.38679   0.00000  Uiso   1.00
H283   H     0.86465   0.29893   0.42724   0.00000  Uiso   1.00
H284   H     0.92606   0.28203   0.40384   0.00000  Uiso   1.00
H285   H     0.89702   0.30365   0.36530   0.00000  Uiso   1.00
H286   H     0.68943   0.16617   0.48424   0.00000  Uiso   1.00
H287   H     0.97624   0.11874   0.02556   0.00000  Uiso   1.00
H288   H     0.91055   0.29548   0.22009   0.00000  Uiso   1.00
H289   H     0.75602   0.03786   0.28027   0.00000  Uiso   1.00
H290   H     0.91057   0.03782   0.22016   0.00000  Uiso   1.00
N291   N     0.71426   0.16668   0.25001   0.00000  Uiso   1.00
N292   N     0.95241   0.16666   0.24999   0.00000  Uiso   1.00
O293   O     0.79512   0.22775   0.25000   0.00000  Uiso   1.00
O294   O     0.70902   0.19010   0.39893   0.00000  Uiso   1.00
O295   O     0.75492   0.10488   0.09872   0.00000  Uiso   1.00
O296   O     0.90072   0.09000   0.40789   0.00000  Uiso   1.00
O297   O     0.87154   0.10558   0.24999   0.00000  Uiso   1.00
O298   O     0.87157   0.22774   0.25000   0.00000  Uiso   1.00
O299   O     0.79510   0.10559   0.25000   0.00000  Uiso   1.00
O300   O     0.77328   0.16667   0.31612   0.00000  Uiso   1.00
O301   O     0.89339   0.16666   0.18387   0.00000  Uiso   1.00
O302   O     0.84972   0.16666   0.31612   0.00000  Uiso   1.00
O303   O     0.81695   0.16667   0.18388   0.00000  Uiso   1.00
O304   O     0.96428   0.16066   0.10273   0.00000  Uiso   1.00
Zn305  Zn    0.78229   0.16667   0.25000   0.00000  Uiso   1.00
Zn306  Zn    0.88438   0.16666   0.25000   0.00000  Uiso   1.00
C307   C     0.16663   0.57996   0.25008   0.00000  Uiso   1.00
C308   C     0.12308   0.64526   0.26707   0.00000  Uiso   1.00
C309   C     0.16664   0.37588   0.25019   0.00000  Uiso   1.00
C310   C     0.16660   0.62411   0.25023   0.00000  Uiso   1.00
C311   C     0.32191   0.48361   0.21345   0.00000  Uiso   1.00
C312   C     0.01138   0.51624   0.28661   0.00000  Uiso   1.00
C313   C     0.03641   0.48390   0.21334   0.00000  Uiso   1.00
C314   C     0.29693   0.51636   0.28656   0.00000  Uiso   1.00
C315   C     0.13746   0.49960   0.33798   0.00000  Uiso   1.00
C316   C     0.19602   0.49884   0.16186   0.00000  Uiso   1.00
C317   C     0.12102   0.49353   0.38847   0.00000  Uiso   1.00
C318   C     0.16666   0.42004   0.25004   0.00000  Uiso   1.00
C319   C     0.21252   0.48855   0.11190   0.00000  Uiso   1.00
C320   C     0.05857   0.49126   0.46320   0.00000  Uiso   1.00
C321   C     0.27324   0.46115   0.04342   0.00000  Uiso   1.00
C322   C     0.07415   0.50342   0.41659   0.00000  Uiso   1.00
C323   C     0.26132   0.48258   0.08590   0.00000  Uiso   1.00
C324   C     0.15279   0.47553   0.40838   0.00000  Uiso   1.00
C325   C     0.17787   0.47845   0.09191   0.00000  Uiso   1.00
C326   C     0.13791   0.46389   0.45546   0.00000  Uiso   1.00
C327   C     0.19006   0.45952   0.04810   0.00000  Uiso   1.00
C328   C     0.08968   0.47156   0.48283   0.00000  Uiso   1.00
C329   C     0.10594   0.44966   0.05212   0.00000  Uiso   1.00
C330   C     0.23857   0.45218   0.02302   0.00000  Uiso   1.00
C331   C     0.17056   0.44975   0.47758   0.00000  Uiso   1.00
C332   C     0.15542   0.45188   0.02675   0.00000  Uiso   1.00
C333   C     0.29943   0.53810   0.10740   0.00000  Uiso   1.00
C334   C     0.00026   0.55814   0.06317   0.00000  Uiso   1.00
C335   C     0.00603   0.60484   0.07005   0.00000  Uiso   1.00
C336   C     0.05394   0.56648   0.39178   0.00000  Uiso   1.00
C337   C     0.03075   0.59135   0.43659   0.00000  Uiso   1.00
C338   C     0.03746   0.63830   0.42779   0.00000  Uiso   1.00
C339   C     0.09750   0.39528   0.10293   0.00000  Uiso   1.00
C340   C     0.21847   0.43666   0.45377   0.00000  Uiso   1.00
C341   C     0.07827   0.38263   0.15439   0.00000  Uiso   1.00
C342   C     0.08604   0.33618   0.16094   0.00000  Uiso   1.00
C343   C     0.21531   0.38323   0.40468   0.00000  Uiso   1.00
C344   C     0.25029   0.34927   0.40856   0.00000  Uiso   1.00
C345   C     0.23330   0.63914   0.40072   0.00000  Uiso   1.00
C346   C     0.07371   0.46083   0.03002   0.00000  Uiso   1.00
C347   C     0.25189   0.43778   0.47710   0.00000  Uiso   1.00
C348   C     0.21013   0.64526   0.23355   0.00000  Uiso   1.00
C349   C     0.12310   0.35473   0.26696   0.00000  Uiso   1.00
C350   C     0.21015   0.35472   0.23356   0.00000  Uiso   1.00
H351   H     0.03663   0.46282   0.05065   0.00000  Uiso   1.00
H352   H     0.08935   0.62881   0.28052   0.00000  Uiso   1.00
H353   H     0.31400   0.47027   0.18421   0.00000  Uiso   1.00
H354   H     0.01924   0.52920   0.31596   0.00000  Uiso   1.00
H355   H     0.06443   0.47131   0.18385   0.00000  Uiso   1.00
H356   H     0.26901   0.52957   0.31587   0.00000  Uiso   1.00
H357   H     0.31295   0.54438   0.13672   0.00000  Uiso   1.00
H358   H     0.26403   0.55385   0.11642   0.00000  Uiso   1.00
H359   H     0.03582   0.54292   0.05386   0.00000  Uiso   1.00
H360   H     0.31903   0.55390   0.03424   0.00000  Uiso   1.00
H361   H     0.30451   0.62110   0.07772   0.00000  Uiso   1.00
H362   H     0.28884   0.43002   0.45818   0.00000  Uiso   1.00
H363   H     0.03169   0.61854   0.03785   0.00000  Uiso   1.00
H364   H     0.01999   0.61001   0.09926   0.00000  Uiso   1.00
H365   H     0.03952   0.57819   0.36469   0.00000  Uiso   1.00
H366   H     0.09315   0.57260   0.37816   0.00000  Uiso   1.00
H367   H     0.32526   0.58419   0.45062   0.00000  Uiso   1.00
H368   H     0.04740   0.58212   0.46290   0.00000  Uiso   1.00
H369   H     0.07608   0.64625   0.41480   0.00000  Uiso   1.00
H370   H     0.02010   0.65542   0.46084   0.00000  Uiso   1.00
H371   H     0.02089   0.64851   0.40170   0.00000  Uiso   1.00
H372   H     0.13656   0.38863   0.08963   0.00000  Uiso   1.00
H373   H     0.14131   0.48705   0.11031   0.00000  Uiso   1.00
H374   H     0.07934   0.37614   0.08320   0.00000  Uiso   1.00
H375   H     0.09686   0.40093   0.17422   0.00000  Uiso   1.00
H376   H     0.03941   0.38965   0.16868   0.00000  Uiso   1.00
H377   H     0.06829   0.65036   0.14107   0.00000  Uiso   1.00
H378   H     0.07049   0.66122   0.19848   0.00000  Uiso   1.00
H379   H     0.12484   0.66218   0.14891   0.00000  Uiso   1.00
H380   H     0.21106   0.38096   0.36978   0.00000  Uiso   1.00
H381   H     0.17916   0.37760   0.43079   0.00000  Uiso   1.00
H382   H     0.28594   0.35519   0.38212   0.00000  Uiso   1.00
H383   H     0.25397   0.35031   0.44376   0.00000  Uiso   1.00
H384   H     0.18953   0.47234   0.38679   0.00000  Uiso   1.00
H385   H     0.19798   0.63227   0.42724   0.00000  Uiso   1.00
H386   H     0.25940   0.61536   0.40384   0.00000  Uiso   1.00
H387   H     0.23035   0.63698   0.36530   0.00000  Uiso   1.00
H388   H     0.02276   0.49951   0.48424   0.00000  Uiso   1.00
H389   H     0.30957   0.45208   0.02556   0.00000  Uiso   1.00
H390   H     0.24388   0.62881   0.22009   0.00000  Uiso   1.00
H391   H     0.08935   0.37119   0.28027   0.00000  Uiso   1.00
H392   H     0.24391   0.37115   0.22016   0.00000  Uiso   1.00
N393   N     0.04759   0.50001   0.25001   0.00000  Uiso   1.00
N394   N     0.28574   0.49999   0.24999   0.00000  Uiso   1.00
O395   O     0.12846   0.56108   0.25000   0.00000  Uiso   1.00
O396   O     0.04236   0.52343   0.39893   0.00000  Uiso   1.00
O397   O     0.08825   0.43821   0.09872   0.00000  Uiso   1.00
O398   O     0.23405   0.42333   0.40789   0.00000  Uiso   1.00
O399   O     0.20488   0.43892   0.24999   0.00000  Uiso   1.00
O400   O     0.20490   0.56107   0.25000   0.00000  Uiso   1.00
O401   O     0.12843   0.43893   0.25000   0.00000  Uiso   1.00
O402   O     0.10661   0.50001   0.31612   0.00000  Uiso   1.00
O403   O     0.22672   0.49999   0.18387   0.00000  Uiso   1.00
O404   O     0.18305   0.50000   0.31612   0.00000  Uiso   1.00
O405   O     0.15028   0.50000   0.18388   0.00000  Uiso   1.00
O406   O     0.29761   0.49399   0.10273   0.00000  Uiso   1.00
Zn407  Zn    0.11562   0.50001   0.25000   0.00000  Uiso   1.00
Zn408  Zn    0.21771   0.49999   0.25000   0.00000  Uiso   1.00
C409   C     0.49996   0.57996   0.25008   0.00000  Uiso   1.00
C410   C     0.45642   0.64526   0.26707   0.00000  Uiso   1.00
C411   C     0.49997   0.37588   0.25019   0.00000  Uiso   1.00
C412   C     0.49993   0.62411   0.25023   0.00000  Uiso   1.00
C413   C     0.65525   0.48361   0.21345   0.00000  Uiso   1.00
C414   C     0.34472   0.51624   0.28661   0.00000  Uiso   1.00
C415   C     0.36975   0.48390   0.21334   0.00000  Uiso   1.00
C416   C     0.63027   0.51636   0.28656   0.00000  Uiso   1.00
C417   C     0.47079   0.49960   0.33798   0.00000  Uiso   1.00
C418   C     0.52935   0.49884   0.16186   0.00000  Uiso   1.00
C419   C     0.45435   0.49353   0.38847   0.00000  Uiso   1.00
C420   C     0.49999   0.42004   0.25004   0.00000  Uiso   1.00
C421   C     0.54586   0.48855   0.11190   0.00000  Uiso   1.00
C422   C     0.39191   0.49126   0.46320   0.00000  Uiso   1.00
C423   C     0.60657   0.46115   0.04342   0.00000  Uiso   1.00
C424   C     0.40749   0.50342   0.41659   0.00000  Uiso   1.00
C425   C     0.59465   0.48258   0.08590   0.00000  Uiso   1.00
C426   C     0.48612   0.47553   0.40838   0.00000  Uiso   1.00
C427   C     0.51121   0.47845   0.09191   0.00000  Uiso   1.00
C428   C     0.47125   0.46389   0.45546   0.00000  Uiso   1.00
C429   C     0.52340   0.45952   0.04810   0.00000  Uiso   1.00
C430   C     0.42301   0.47156   0.48283   0.00000  Uiso   1.00
C431   C     0.43928   0.44966   0.05212   0.00000  Uiso   1.00
C432   C     0.57191   0.45218   0.02302   0.00000  Uiso   1.00
C433   C     0.50389   0.44975   0.47758   0.00000  Uiso   1.00
C434   C     0.48875   0.45188   0.02675   0.00000  Uiso   1.00
C435   C     0.63277   0.53810   0.10740   0.00000  Uiso   1.00
C436   C     0.33359   0.55814   0.06317   0.00000  Uiso   1.00
C437   C     0.33937   0.60484   0.07005   0.00000  Uiso   1.00
C438   C     0.38727   0.56648   0.39178   0.00000  Uiso   1.00
C439   C     0.36408   0.59135   0.43659   0.00000  Uiso   1.00
C440   C     0.37079   0.63830   0.42779   0.00000  Uiso   1.00
C441   C     0.43083   0.39528   0.10293   0.00000  Uiso   1.00
C442   C     0.55180   0.43666   0.45377   0.00000  Uiso   1.00
C443   C     0.41160   0.38263   0.15439   0.00000  Uiso   1.00
C444   C     0.41938   0.33618   0.16094   0.00000  Uiso   1.00
C445   C     0.54864   0.38323   0.40468   0.00000  Uiso   1.00
C446   C     0.58362   0.34927   0.40856   0.00000  Uiso   1.00
C447   C     0.56663   0.63914   0.40072   0.00000  Uiso   1.00
C448   C     0.40705   0.46083   0.03002   0.00000  Uiso   1.00
C449   C     0.58523   0.43778   0.47710   0.00000  Uiso   1.00
C450   C     0.54347   0.64526   0.23355   0.00000  Uiso   1.00
C451   C     0.45643   0.35473   0.26696   0.00000  Uiso   1.00
C452   C     0.54349   0.35472   0.23356   0.00000  Uiso   1.00
H453   H     0.36997   0.46282   0.05065   0.00000  Uiso   1.00
H454   H     0.42268   0.62881   0.28052   0.00000  Uiso   1.00
H455   H     0.64734   0.47027   0.18421   0.00000  Uiso   1.00
H456   H     0.35257   0.52920   0.31596   0.00000  Uiso   1.00
H457   H     0.39777   0.47131   0.18385   0.00000  Uiso   1.00
H458   H     0.60234   0.52957   0.31587   0.00000  Uiso   1.00
H459   H     0.64629   0.54438   0.13672   0.00000  Uiso   1.00
H460   H     0.59736   0.55385   0.11642   0.00000  Uiso   1.00
H461   H     0.36915   0.54292   0.05386   0.00000  Uiso   1.00
H462   H     0.65236   0.55390   0.03424   0.00000  Uiso   1.00
H463   H     0.63784   0.62110   0.07772   0.00000  Uiso   1.00
H464   H     0.62217   0.43002   0.45818   0.00000  Uiso   1.00
H465   H     0.36502   0.61854   0.03785   0.00000  Uiso   1.00
H466   H     0.35333   0.61001   0.09926   0.00000  Uiso   1.00
H467   H     0.37286   0.57819   0.36469   0.00000  Uiso   1.00
H468   H     0.42648   0.57260   0.37816   0.00000  Uiso   1.00
H469   H     0.65859   0.58419   0.45062   0.00000  Uiso   1.00
H470   H     0.38073   0.58212   0.46290   0.00000  Uiso   1.00
H471   H     0.40942   0.64625   0.41480   0.00000  Uiso   1.00
H472   H     0.35344   0.65542   0.46084   0.00000  Uiso   1.00
H473   H     0.35422   0.64851   0.40170   0.00000  Uiso   1.00
H474   H     0.46989   0.38863   0.08963   0.00000  Uiso   1.00
H475   H     0.47464   0.48705   0.11031   0.00000  Uiso   1.00
H476   H     0.41267   0.37614   0.08320   0.00000  Uiso   1.00
H477   H     0.43019   0.40093   0.17422   0.00000  Uiso   1.00
H478   H     0.37274   0.38965   0.16868   0.00000  Uiso   1.00
H479   H     0.40162   0.65036   0.14107   0.00000  Uiso   1.00
H480   H     0.40382   0.66122   0.19848   0.00000  Uiso   1.00
H481   H     0.45817   0.66218   0.14891   0.00000  Uiso   1.00
H482   H     0.54440   0.38096   0.36978   0.00000  Uiso   1.00
H483   H     0.51249   0.37760   0.43079   0.00000  Uiso   1.00
H484   H     0.61928   0.35519   0.38212   0.00000  Uiso   1.00
H485   H     0.58730   0.35031   0.44376   0.00000  Uiso   1.00
H486   H     0.52287   0.47234   0.38679   0.00000  Uiso   1.00
H487   H     0.53132   0.63227   0.42724   0.00000  Uiso   1.00
H488   H     0.59273   0.61536   0.40384   0.00000  Uiso   1.00
H489   H     0.56369   0.63698   0.36530   0.00000  Uiso   1.00
H490   H     0.35610   0.49951   0.48424   0.00000  Uiso   1.00
H491   H     0.64291   0.45208   0.02556   0.00000  Uiso   1.00
H492   H     0.57721   0.62881   0.22009   0.00000  Uiso   1.00
H493   H     0.42268   0.37119   0.28027   0.00000  Uiso   1.00
H494   H     0.57724   0.37115   0.22016   0.00000  Uiso   1.00
N495   N     0.38093   0.50001   0.25001   0.00000  Uiso   1.00
N496   N     0.61907   0.49999   0.24999   0.00000  Uiso   1.00
O497   O     0.46179   0.56108   0.25000   0.00000  Uiso   1.00
O498   O     0.37569   0.52343   0.39893   0.00000  Uiso   1.00
O499   O     0.42159   0.43821   0.09872   0.00000  Uiso   1.00
O500   O     0.56739   0.42333   0.40789   0.00000  Uiso   1.00
O501   O     0.53821   0.43892   0.24999   0.00000  Uiso   1.00
O502   O     0.53823   0.56107   0.25000   0.00000  Uiso   1.00
O503   O     0.46177   0.43893   0.25000   0.00000  Uiso   1.00
O504   O     0.43994   0.50001   0.31612   0.00000  Uiso   1.00
O505   O     0.56006   0.49999   0.18387   0.00000  Uiso   1.00
O506   O     0.51639   0.50000   0.31612   0.00000  Uiso   1.00
O507   O     0.48361   0.50000   0.18388   0.00000  Uiso   1.00
O508   O     0.63094   0.49399   0.10273   0.00000  Uiso   1.00
Zn509  Zn    0.44896   0.50001   0.25000   0.00000  Uiso   1.00
Zn510  Zn    0.55104   0.49999   0.25000   0.00000  Uiso   1.00
C511   C     0.83330   0.57996   0.25008   0.00000  Uiso   1.00
C512   C     0.78975   0.64526   0.26707   0.00000  Uiso   1.00
C513   C     0.83330   0.37588   0.25019   0.00000  Uiso   1.00
C514   C     0.83326   0.62411   0.25023   0.00000  Uiso   1.00
C515   C     0.98858   0.48361   0.21345   0.00000  Uiso   1.00
C516   C     0.67805   0.51624   0.28661   0.00000  Uiso   1.00
C517   C     0.70308   0.48390   0.21334   0.00000  Uiso   1.00
C518   C     0.96360   0.51636   0.28656   0.00000  Uiso   1.00
C519   C     0.80413   0.49960   0.33798   0.00000  Uiso   1.00
C520   C     0.86269   0.49884   0.16186   0.00000  Uiso   1.00
C521   C     0.78769   0.49353   0.38847   0.00000  Uiso   1.00
C522   C     0.83333   0.42004   0.25004   0.00000  Uiso   1.00
C523   C     0.87919   0.48855   0.11190   0.00000  Uiso   1.00
C524   C     0.72524   0.49126   0.46320   0.00000  Uiso   1.00
C525   C     0.93990   0.46115   0.04342   0.00000  Uiso   1.00
C526   C     0.74082   0.50342   0.41659   0.00000  Uiso   1.00
C527   C     0.92798   0.48258   0.08590   0.00000  Uiso   1.00
C528   C     0.81945   0.47553   0.40838   0.00000  Uiso   1.00
C529   C     0.84454   0.47845   0.09191   0.00000  Uiso   1.00
C530   C     0.80458   0.46389   0.45546   0.00000  Uiso   1.00
C531   C     0.85673   0.45952   0.04810   0.00000  Uiso   1.00
C532   C     0.75634   0.47156   0.48283   0.00000  Uiso   1.00
C533   C     0.77261   0.44966   0.05212   0.00000  Uiso   1.00
C534   C     0.90524   0.45218   0.02302   0.00000  Uiso   1.00
C535   C     0.83723   0.44975   0.47758   0.00000  Uiso   1.00
C536   C     0.82209   0.45188   0.02675   0.00000  Uiso   1.00
C537   C     0.96610   0.53810   0.10740   0.00000  Uiso   1.00
C538   C     0.66692   0.55814   0.06317   0.00000  Uiso   1.00
C539   C     0.67270   0.60484   0.07005   0.00000  Uiso   1.00
C540   C     0.72061   0.56648   0.39178   0.00000  Uiso   1.00
C541   C     0.69742   0.59135   0.43659   0.00000  Uiso   1.00
C542   C     0.70412   0.63830   0.42779   0.00000  Uiso   1.00
C543   C     0.76416   0.39528   0.10293   0.00000  Uiso   1.00
C544   C     0.88513   0.43666   0.45377   0.00000  Uiso   1.00
C545   C     0.74493   0.38263   0.15439   0.00000  Uiso   1.00
C546   C     0.75271   0.33618   0.16094   0.00000  Uiso   1.00
C547   C     0.88198   0.38323   0.40468   0.00000  Uiso   1.00
C548   C     0.91695   0.34927   0.40856   0.00000  Uiso   1.00
C549   C     0.89997   0.63914   0.40072   0.00000  Uiso   1.00
C550   C     0.74038   0.46083   0.03002   0.00000  Uiso   1.00
C551   C     0.91856   0.43778   0.47710   0.00000  Uiso   1.00
C552   C     0.87680   0.64526   0.23355   0.00000  Uiso   1.00
C553   C     0.78976   0.35473   0.26696   0.00000  Uiso   1.00
C554   C     0.87682   0.35472   0.23356   0.00000  Uiso   1.00
H555   H     0.70330   0.46282   0.05065   0.00000  Uiso   1.00
H556   H     0.75601   0.62881   0.28052   0.00000  Uiso   1.00
H557   H     0.98067   0.47027   0.18421   0.00000  Uiso   1.00
H558   H     0.68591   0.52920   0.31596   0.00000  Uiso   1.00
H559   H     0.73110   0.47131   0.18385   0.00000  Uiso   1.00
H560   H     0.93567   0.52957   0.31587   0.00000  Uiso   1.00
H561   H     0.97962   0.54438   0.13672   0.00000  Uiso   1.00
H562   H     0.93070   0.55385   0.11642   0.00000  Uiso   1.00
H563   H     0.70248   0.54292   0.05386   0.00000  Uiso   1.00
H564   H     0.98570   0.55390   0.03424   0.00000  Uiso   1.00
H565   H     0.97118   0.62110   0.07772   0.00000  Uiso   1.00
H566   H     0.95551   0.43002   0.45818   0.00000  Uiso   1.00
H567   H     0.69835   0.61854   0.03785   0.00000  Uiso   1.00
H568   H     0.68666   0.61001   0.09926   0.00000  Uiso   1.00
H569   H     0.70619   0.57819   0.36469   0.00000  Uiso   1.00
H570   H     0.75981   0.57260   0.37816   0.00000  Uiso   1.00
H571   H     0.99193   0.58419   0.45062   0.00000  Uiso   1.00
H572   H     0.71407   0.58212   0.46290   0.00000  Uiso   1.00
H573   H     0.74275   0.64625   0.41480   0.00000  Uiso   1.00
H574   H     0.68677   0.65542   0.46084   0.00000  Uiso   1.00
H575   H     0.68755   0.64851   0.40170   0.00000  Uiso   1.00
H576   H     0.80323   0.38863   0.08963   0.00000  Uiso   1.00
H577   H     0.80797   0.48705   0.11031   0.00000  Uiso   1.00
H578   H     0.74601   0.37614   0.08320   0.00000  Uiso   1.00
H579   H     0.76352   0.40093   0.17422   0.00000  Uiso   1.00
H580   H     0.70608   0.38965   0.16868   0.00000  Uiso   1.00
H581   H     0.73495   0.65036   0.14107   0.00000  Uiso   1.00
H582   H     0.73716   0.66122   0.19848   0.00000  Uiso   1.00
H583   H     0.79151   0.66218   0.14891   0.00000  Uiso   1.00
H584   H     0.87773   0.38096   0.36978   0.00000  Uiso   1.00
H585   H     0.84583   0.37760   0.43079   0.00000  Uiso   1.00
H586   H     0.95261   0.35519   0.38212   0.00000  Uiso   1.00
H587   H     0.92063   0.35031   0.44376   0.00000  Uiso   1.00
H588   H     0.85620   0.47234   0.38679   0.00000  Uiso   1.00
H589   H     0.86465   0.63227   0.42724   0.00000  Uiso   1.00
H590   H     0.92606   0.61536   0.40384   0.00000  Uiso   1.00
H591   H     0.89702   0.63698   0.36530   0.00000  Uiso   1.00
H592   H     0.68943   0.49951   0.48424   0.00000  Uiso   1.00
H593   H     0.97624   0.45208   0.02556   0.00000  Uiso   1.00
H594   H     0.91055   0.62881   0.22009   0.00000  Uiso   1.00
H595   H     0.75602   0.37119   0.28027   0.00000  Uiso   1.00
H596   H     0.91057   0.37115   0.22016   0.00000  Uiso   1.00
N597   N     0.71426   0.50001   0.25001   0.00000  Uiso   1.00
N598   N     0.95241   0.49999   0.24999   0.00000  Uiso   1.00
O599   O     0.79512   0.56108   0.25000   0.00000  Uiso   1.00
O600   O     0.70902   0.52343   0.39893   0.00000  Uiso   1.00
O601   O     0.75492   0.43821   0.09872   0.00000  Uiso   1.00
O602   O     0.90072   0.42333   0.40789   0.00000  Uiso   1.00
O603   O     0.87154   0.43892   0.24999   0.00000  Uiso   1.00
O604   O     0.87157   0.56107   0.25000   0.00000  Uiso   1.00
O605   O     0.79510   0.43893   0.25000   0.00000  Uiso   1.00
O606   O     0.77328   0.50001   0.31612   0.00000  Uiso   1.00
O607   O     0.89339   0.49999   0.18387   0.00000  Uiso   1.00
O608   O     0.84972   0.50000   0.31612   0.00000  Uiso   1.00
O609   O     0.81695   0.50000   0.18388   0.00000  Uiso   1.00
O610   O     0.96428   0.49399   0.10273   0.00000  Uiso   1.00
Zn611  Zn    0.78229   0.50001   0.25000   0.00000  Uiso   1.00
Zn612  Zn    0.88438   0.49999   0.25000   0.00000  Uiso   1.00
C613   C     0.16663   0.91329   0.25008   0.00000  Uiso   1.00
C614   C     0.12308   0.97860   0.26707   0.00000  Uiso   1.00
C615   C     0.16664   0.70921   0.25019   0.00000  Uiso   1.00
C616   C     0.16660   0.95745   0.25023   0.00000  Uiso   1.00
C617   C     0.32191   0.81694   0.21345   0.00000  Uiso   1.00
C618   C     0.01138   0.84957   0.28661   0.00000  Uiso   1.00
C619   C     0.03641   0.81724   0.21334   0.00000  Uiso   1.00
C620   C     0.29693   0.84970   0.28656   0.00000  Uiso   1.00
C621   C     0.13746   0.83294   0.33798   0.00000  Uiso   1.00
C622   C     0.19602   0.83217   0.16186   0.00000  Uiso   1.00
C623   C     0.12102   0.82686   0.38847   0.00000  Uiso   1.00
C624   C     0.16666   0.75337   0.25004   0.00000  Uiso   1.00
C625   C     0.21252   0.82189   0.11190   0.00000  Uiso   1.00
C626   C     0.05857   0.82459   0.46320   0.00000  Uiso   1.00
C627   C     0.27324   0.79449   0.04342   0.00000  Uiso   1.00
C628   C     0.07415   0.83675   0.41659   0.00000  Uiso   1.00
C629   C     0.26132   0.81591   0.08590   0.00000  Uiso   1.00
C630   C     0.15279   0.80886   0.40838   0.00000  Uiso   1.00
C631   C     0.17787   0.81179   0.09191   0.00000  Uiso   1.00
C632   C     0.13791   0.79723   0.45546   0.00000  Uiso   1.00
C633   C     0.19006   0.79285   0.04810   0.00000  Uiso   1.00
C634   C     0.08968   0.80489   0.48283   0.00000  Uiso   1.00
C635   C     0.10594   0.78300   0.05212   0.00000  Uiso   1.00
C636   C     0.23857   0.78552   0.02302   0.00000  Uiso   1.00
C637   C     0.17056   0.78308   0.47758   0.00000  Uiso   1.00
C638   C     0.15542   0.78521   0.02675   0.00000  Uiso   1.00
C639   C     0.29943   0.87143   0.10740   0.00000  Uiso   1.00
C640   C     0.00026   0.89147   0.06317   0.00000  Uiso   1.00
C641   C     0.00603   0.93817   0.07005   0.00000  Uiso   1.00
C642   C     0.05394   0.89982   0.39178   0.00000  Uiso   1.00
C643   C     0.03075   0.92469   0.43659   0.00000  Uiso   1.00
C644   C     0.03746   0.97163   0.42779   0.00000  Uiso   1.00
C645   C     0.09750   0.72861   0.10293   0.00000  Uiso   1.00
C646   C     0.21847   0.77000   0.45377   0.00000  Uiso   1.00
C647   C     0.07827   0.71596   0.15439   0.00000  Uiso   1.00
C648   C     0.08604   0.66951   0.16094   0.00000  Uiso   1.00
C649   C     0.21531   0.71656   0.40468   0.00000  Uiso   1.00
C650   C     0.25029   0.68260   0.40856   0.00000  Uiso   1.00
C651   C     0.23330   0.97247   0.40072   0.00000  Uiso   1.00
C652   C     0.07371   0.79416   0.03002   0.00000  Uiso   1.00
C653   C     0.25189   0.77112   0.47710   0.00000  Uiso   1.00
C654   C     0.21013   0.97859   0.23355   0.00000  Uiso   1.00
C655   C     0.12310   0.68807   0.26696   0.00000  Uiso   1.00
C656   C     0.21015   0.68805   0.23356   0.00000  Uiso   1.00
H657   H     0.03663   0.79615   0.05065   0.00000  Uiso   1.00
H658   H     0.08935   0.96214   0.28052   0.00000  Uiso   1.00
H659   H     0.31400   0.80360   0.18421   0.00000  Uiso   1.00
H660   H     0.01924   0.86253   0.31596   0.00000  Uiso   1.00
H661   H     0.06443   0.80465   0.18385   0.00000  Uiso   1.00
H662   H     0.26901   0.86290   0.31587   0.00000  Uiso   1.00
H663   H     0.31295   0.87772   0.13672   0.00000  Uiso   1.00
H664   H     0.26403   0.88719   0.11642   0.00000  Uiso   1.00
H665   H     0.03582   0.87625   0.05386   0.00000  Uiso   1.00
H666   H     0.31903   0.88724   0.03424   0.00000  Uiso   1.00
H667   H     0.30451   0.95443   0.07772   0.00000  Uiso   1.00
H668   H     0.28884   0.76335   0.45818   0.00000  Uiso   1.00
H669   H     0.03169   0.95187   0.03785   0.00000  Uiso   1.00
H670   H     0.01999   0.94334   0.09926   0.00000  Uiso   1.00
H671   H     0.03952   0.91152   0.36469   0.00000  Uiso   1.00
H672   H     0.09315   0.90594   0.37816   0.00000  Uiso   1.00
H673   H     0.32526   0.91752   0.45062   0.00000  Uiso   1.00
H674   H     0.04740   0.91545   0.46290   0.00000  Uiso   1.00
H675   H     0.07608   0.97959   0.41480   0.00000  Uiso   1.00
H676   H     0.02010   0.98875   0.46084   0.00000  Uiso   1.00
H677   H     0.02089   0.98185   0.40170   0.00000  Uiso   1.00
H678   H     0.13656   0.72196   0.08963   0.00000  Uiso   1.00
H679   H     0.14131   0.82039   0.11031   0.00000  Uiso   1.00
H680   H     0.07934   0.70947   0.08320   0.00000  Uiso   1.00
H681   H     0.09686   0.73426   0.17422   0.00000  Uiso   1.00
H682   H     0.03941   0.72299   0.16868   0.00000  Uiso   1.00
H683   H     0.06829   0.98370   0.14107   0.00000  Uiso   1.00
H684   H     0.07049   0.99455   0.19848   0.00000  Uiso   1.00
H685   H     0.12484   0.99552   0.14891   0.00000  Uiso   1.00
H686   H     0.21106   0.71429   0.36978   0.00000  Uiso   1.00
H687   H     0.17916   0.71094   0.43079   0.00000  Uiso   1.00
H688   H     0.28594   0.68852   0.38212   0.00000  Uiso   1.00
H689   H     0.25397   0.68364   0.44376   0.00000  Uiso   1.00
H690   H     0.18953   0.80568   0.38679   0.00000  Uiso   1.00
H691   H     0.19798   0.96560   0.42724   0.00000  Uiso   1.00
H692   H     0.25940   0.94869   0.40384   0.00000  Uiso   1.00
H693   H     0.23035   0.97031   0.36530   0.00000  Uiso   1.00
H694   H     0.02276   0.83284   0.48424   0.00000  Uiso   1.00
H695   H     0.30957   0.78541   0.02556   0.00000  Uiso   1.00
H696   H     0.24388   0.96214   0.22009   0.00000  Uiso   1.00
H697   H     0.08935   0.70453   0.28027   0.00000  Uiso   1.00
H698   H     0.24391   0.70449   0.22016   0.00000  Uiso   1.00
N699   N     0.04759   0.83334   0.25001   0.00000  Uiso   1.00
N700   N     0.28574   0.83332   0.24999   0.00000  Uiso   1.00
O701   O     0.12846   0.89442   0.25000   0.00000  Uiso   1.00
O702   O     0.04236   0.85676   0.39893   0.00000  Uiso   1.00
O703   O     0.08825   0.77154   0.09872   0.00000  Uiso   1.00
O704   O     0.23405   0.75667   0.40789   0.00000  Uiso   1.00
O705   O     0.20488   0.77225   0.24999   0.00000  Uiso   1.00
O706   O     0.20490   0.89441   0.25000   0.00000  Uiso   1.00
O707   O     0.12843   0.77226   0.25000   0.00000  Uiso   1.00
O708   O     0.10661   0.83334   0.31612   0.00000  Uiso   1.00
O709   O     0.22672   0.83333   0.18387   0.00000  Uiso   1.00
O710   O     0.18305   0.83333   0.31612   0.00000  Uiso   1.00
O711   O     0.15028   0.83334   0.18388   0.00000  Uiso   1.00
O712   O     0.29761   0.82732   0.10273   0.00000  Uiso   1.00
Zn713  Zn    0.11562   0.83334   0.25000   0.00000  Uiso   1.00
Zn714  Zn    0.21771   0.83333   0.25000   0.00000  Uiso   1.00
C715   C     0.49996   0.91329   0.25008   0.00000  Uiso   1.00
C716   C     0.45642   0.97860   0.26707   0.00000  Uiso   1.00
C717   C     0.49997   0.70921   0.25019   0.00000  Uiso   1.00
C718   C     0.49993   0.95745   0.25023   0.00000  Uiso   1.00
C719   C     0.65525   0.81694   0.21345   0.00000  Uiso   1.00
C720   C     0.34472   0.84957   0.28661   0.00000  Uiso   1.00
C721   C     0.36975   0.81724   0.21334   0.00000  Uiso   1.00
C722   C     0.63027   0.84970   0.28656   0.00000  Uiso   1.00
C723   C     0.47079   0.83294   0.33798   0.00000  Uiso   1.00
C724   C     0.52935   0.83217   0.16186   0.00000  Uiso   1.00
C725   C     0.45435   0.82686   0.38847   0.00000  Uiso   1.00
C726   C     0.49999   0.75337   0.25004   0.00000  Uiso   1.00
C727   C     0.54586   0.82189   0.11190   0.00000  Uiso   1.00
C728   C     0.39191   0.82459   0.46320   0.00000  Uiso   1.00
C729   C     0.60657   0.79449   0.04342   0.00000  Uiso   1.00
C730   C     0.40749   0.83675   0.41659   0.00000  Uiso   1.00
C731   C     0.59465   0.81591   0.08590   0.00000  Uiso   1.00
C732   C     0.48612   0.80886   0.40838   0.00000  Uiso   1.00
C733   C     0.51121   0.81179   0.09191   0.00000  Uiso   1.00
C734   C     0.47125   0.79723   0.45546   0.00000  Uiso   1.00
C735   C     0.52340   0.79285   0.04810   0.00000  Uiso   1.00
C736   C     0.42301   0.80489   0.48283   0.00000  Uiso   1.00
C737   C     0.43928   0.78300   0.05212   0.00000  Uiso   1.00
C738   C     0.57191   0.78552   0.02302   0.00000  Uiso   1.00
C739   C     0.50389   0.78308   0.47758   0.00000  Uiso   1.00
C740   C     0.48875   0.78521   0.02675   0.00000  Uiso   1.00
C741   C     0.63277   0.87143   0.10740   0.00000  Uiso   1.00
C742   C     0.33359   0.89147   0.06317   0.00000  Uiso   1.00
C743   C     0.33937   0.93817   0.07005   0.00000  Uiso   1.00
C744   C     0.38727   0.89982   0.39178   0.00000  Uiso   1.00
C745   C     0.36408   0.92469   0.43659   0.00000  Uiso   1.00
C746   C     0.37079   0.97163   0.42779   0.00000  Uiso   1.00
C747   C     0.43083   0.72861   0.10293   0.00000  Uiso   1.00
C748   C     0.55180   0.77000   0.45377   0.00000  Uiso   1.00
C749   C     0.41160   0.71596   0.15439   0.00000  Uiso   1.00
C750   C     0.41938   0.66951   0.16094   0.00000  Uiso   1.00
C751   C     0.54864   0.71656   0.40468   0.00000  Uiso   1.00
C752   C     0.58362   0.68260   0.40856   0.00000  Uiso   1.00
C753   C     0.56663   0.97247   0.40072   0.00000  Uiso   1.00
C754   C     0.40705   0.79416   0.03002   0.00000  Uiso   1.00
C755   C     0.58523   0.77112   0.47710   0.00000  Uiso   1.00
C756   C     0.54347   0.97859   0.23355   0.00000  Uiso   1.00
C757   C     0.45643   0.68807   0.26696   0.00000  Uiso   1.00
C758   C     0.54349   0.68805   0.23356   0.00000  Uiso   1.00
H759   H     0.36997   0.79615   0.05065   0.00000  Uiso   1.00
H760   H     0.42268   0.96214   0.28052   0.00000  Uiso   1.00
H761   H     0.64734   0.80360   0.18421   0.00000  Uiso   1.00
H762   H     0.35257   0.86253   0.31596   0.00000  Uiso   1.00
H763   H     0.39777   0.80465   0.18385   0.00000  Uiso   1.00
H764   H     0.60234   0.86290   0.31587   0.00000  Uiso   1.00
H765   H     0.64629   0.87772   0.13672   0.00000  Uiso   1.00
H766   H     0.59736   0.88719   0.11642   0.00000  Uiso   1.00
H767   H     0.36915   0.87625   0.05386   0.00000  Uiso   1.00
H768   H     0.65236   0.88724   0.03424   0.00000  Uiso   1.00
H769   H     0.63784   0.95443   0.07772   0.00000  Uiso   1.00
H770   H     0.62217   0.76335   0.45818   0.00000  Uiso   1.00
H771   H     0.36502   0.95187   0.03785   0.00000  Uiso   1.00
H772   H     0.35333   0.94334   0.09926   0.00000  Uiso   1.00
H773   H     0.37286   0.91152   0.36469   0.00000  Uiso   1.00
H774   H     0.42648   0.90594   0.37816   0.00000  Uiso   1.00
H775   H     0.65859   0.91752   0.45062   0.00000  Uiso   1.00
H776   H     0.38073   0.91545   0.46290   0.00000  Uiso   1.00
H777   H     0.40942   0.97959   0.41480   0.00000  Uiso   1.00
H778   H     0.35344   0.98875   0.46084   0.00000  Uiso   1.00
H779   H     0.35422   0.98185   0.40170   0.00000  Uiso   1.00
H780   H     0.46989   0.72196   0.08963   0.00000  Uiso   1.00
H781   H     0.47464   0.82039   0.11031   0.00000  Uiso   1.00
H782   H     0.41267   0.70947   0.08320   0.00000  Uiso   1.00
H783   H     0.43019   0.73426   0.17422   0.00000  Uiso   1.00
H784   H     0.37274   0.72299   0.16868   0.00000  Uiso   1.00
H785   H     0.40162   0.98370   0.14107   0.00000  Uiso   1.00
H786   H     0.40382   0.99455   0.19848   0.00000  Uiso   1.00
H787   H     0.45817   0.99552   0.14891   0.00000  Uiso   1.00
H788   H     0.54440   0.71429   0.36978   0.00000  Uiso   1.00
H789   H     0.51249   0.71094   0.43079   0.00000  Uiso   1.00
H790   H     0.61928   0.68852   0.38212   0.00000  Uiso   1.00
H791   H     0.58730   0.68364   0.44376   0.00000  Uiso   1.00
H792   H     0.52287   0.80568   0.38679   0.00000  Uiso   1.00
H793   H     0.53132   0.96560   0.42724   0.00000  Uiso   1.00
H794   H     0.59273   0.94869   0.40384   0.00000  Uiso   1.00
H795   H     0.56369   0.97031   0.36530   0.00000  Uiso   1.00
H796   H     0.35610   0.83284   0.48424   0.00000  Uiso   1.00
H797   H     0.64291   0.78541   0.02556   0.00000  Uiso   1.00
H798   H     0.57721   0.96214   0.22009   0.00000  Uiso   1.00
H799   H     0.42268   0.70453   0.28027   0.00000  Uiso   1.00
H800   H     0.57724   0.70449   0.22016   0.00000  Uiso   1.00
N801   N     0.38093   0.83334   0.25001   0.00000  Uiso   1.00
N802   N     0.61907   0.83332   0.24999   0.00000  Uiso   1.00
O803   O     0.46179   0.89442   0.25000   0.00000  Uiso   1.00
O804   O     0.37569   0.85676   0.39893   0.00000  Uiso   1.00
O805   O     0.42159   0.77154   0.09872   0.00000  Uiso   1.00
O806   O     0.56739   0.75667   0.40789   0.00000  Uiso   1.00
O807   O     0.53821   0.77225   0.24999   0.00000  Uiso   1.00
O808   O     0.53823   0.89441   0.25000   0.00000  Uiso   1.00
O809   O     0.46177   0.77226   0.25000   0.00000  Uiso   1.00
O810   O     0.43994   0.83334   0.31612   0.00000  Uiso   1.00
O811   O     0.56006   0.83333   0.18387   0.00000  Uiso   1.00
O812   O     0.51639   0.83333   0.31612   0.00000  Uiso   1.00
O813   O     0.48361   0.83334   0.18388   0.00000  Uiso   1.00
O814   O     0.63094   0.82732   0.10273   0.00000  Uiso   1.00
Zn815  Zn    0.44896   0.83334   0.25000   0.00000  Uiso   1.00
Zn816  Zn    0.55104   0.83333   0.25000   0.00000  Uiso   1.00
C817   C     0.83330   0.91329   0.25008   0.00000  Uiso   1.00
C818   C     0.78975   0.97860   0.26707   0.00000  Uiso   1.00
C819   C     0.83330   0.70921   0.25019   0.00000  Uiso   1.00
C820   C     0.83326   0.95745   0.25023   0.00000  Uiso   1.00
C821   C     0.98858   0.81694   0.21345   0.00000  Uiso   1.00
C822   C     0.67805   0.84957   0.28661   0.00000  Uiso   1.00
C823   C     0.70308   0.81724   0.21334   0.00000  Uiso   1.00
C824   C     0.96360   0.84970   0.28656   0.00000  Uiso   1.00
C825   C     0.80413   0.83294   0.33798   0.00000  Uiso   1.00
C826   C     0.86269   0.83217   0.16186   0.00000  Uiso   1.00
C827   C     0.78769   0.82686   0.38847   0.00000  Uiso   1.00
C828   C     0.83333   0.75337   0.25004   0.00000  Uiso   1.00
C829   C     0.87919   0.82189   0.11190   0.00000  Uiso   1.00
C830   C     0.72524   0.82459   0.46320   0.00000  Uiso   1.00
C831   C     0.93990   0.79449   0.04342   0.00000  Uiso   1.00
C832   C     0.74082   0.83675   0.41659   0.00000  Uiso   1.00
C833   C     0.92798   0.81591   0.08590   0.00000  Uiso   1.00
C834   C     0.81945   0.80886   0.40838   0.00000  Uiso   1.00
C835   C     0.84454   0.81179   0.09191   0.00000  Uiso   1.00
C836   C     0.80458   0.79723   0.45546   0.00000  Uiso   1.00
C837   C     0.85673   0.79285   0.04810   0.00000  Uiso   1.00
C838   C     0.75634   0.80489   0.48283   0.00000  Uiso   1.00
C839   C     0.77261   0.78300   0.05212   0.00000  Uiso   1.00
C840   C     0.90524   0.78552   0.02302   0.00000  Uiso   1.00
C841   C     0.83723   0.78308   0.47758   0.00000  Uiso   1.00
C842   C     0.82209   0.78521   0.02675   0.00000  Uiso   1.00
C843   C     0.96610   0.87143   0.10740   0.00000  Uiso   1.00
C844   C     0.66692   0.89147   0.06317   0.00000  Uiso   1.00
C845   C     0.67270   0.93817   0.07005   0.00000  Uiso   1.00
C846   C     0.72061   0.89982   0.39178   0.00000  Uiso   1.00
C847   C     0.69742   0.92469   0.43659   0.00000  Uiso   1.00
C848   C     0.70412   0.97163   0.42779   0.00000  Uiso   1.00
C849   C     0.76416   0.72861   0.10293   0.00000  Uiso   1.00
C850   C     0.88513   0.77000   0.45377   0.00000  Uiso   1.00
C851   C     0.74493   0.71596   0.15439   0.00000  Uiso   1.00
C852   C     0.75271   0.66951   0.16094   0.00000  Uiso   1.00
C853   C     0.88198   0.71656   0.40468   0.00000  Uiso   1.00
C854   C     0.91695   0.68260   0.40856   0.00000  Uiso   1.00
C855   C     0.89997   0.97247   0.40072   0.00000  Uiso   1.00
C856   C     0.74038   0.79416   0.03002   0.00000  Uiso   1.00
C857   C     0.91856   0.77112   0.47710   0.00000  Uiso   1.00
C858   C     0.87680   0.97859   0.23355   0.00000  Uiso   1.00
C859   C     0.78976   0.68807   0.26696   0.00000  Uiso   1.00
C860   C     0.87682   0.68805   0.23356   0.00000  Uiso   1.00
H861   H     0.70330   0.79615   0.05065   0.00000  Uiso   1.00
H862   H     0.75601   0.96214   0.28052   0.00000  Uiso   1.00
H863   H     0.98067   0.80360   0.18421   0.00000  Uiso   1.00
H864   H     0.68591   0.86253   0.31596   0.00000  Uiso   1.00
H865   H     0.73110   0.80465   0.18385   0.00000  Uiso   1.00
H866   H     0.93567   0.86290   0.31587   0.00000  Uiso   1.00
H867   H     0.97962   0.87772   0.13672   0.00000  Uiso   1.00
H868   H     0.93070   0.88719   0.11642   0.00000  Uiso   1.00
H869   H     0.70248   0.87625   0.05386   0.00000  Uiso   1.00
H870   H     0.98570   0.88724   0.03424   0.00000  Uiso   1.00
H871   H     0.97118   0.95443   0.07772   0.00000  Uiso   1.00
H872   H     0.95551   0.76335   0.45818   0.00000  Uiso   1.00
H873   H     0.69835   0.95187   0.03785   0.00000  Uiso   1.00
H874   H     0.68666   0.94334   0.09926   0.00000  Uiso   1.00
H875   H     0.70619   0.91152   0.36469   0.00000  Uiso   1.00
H876   H     0.75981   0.90594   0.37816   0.00000  Uiso   1.00
H877   H     0.99193   0.91752   0.45062   0.00000  Uiso   1.00
H878   H     0.71407   0.91545   0.46290   0.00000  Uiso   1.00
H879   H     0.74275   0.97959   0.41480   0.00000  Uiso   1.00
H880   H     0.68677   0.98875   0.46084   0.00000  Uiso   1.00
H881   H     0.68755   0.98185   0.40170   0.00000  Uiso   1.00
H882   H     0.80323   0.72196   0.08963   0.00000  Uiso   1.00
H883   H     0.80797   0.82039   0.11031   0.00000  Uiso   1.00
H884   H     0.74601   0.70947   0.08320   0.00000  Uiso   1.00
H885   H     0.76352   0.73426   0.17422   0.00000  Uiso   1.00
H886   H     0.70608   0.72299   0.16868   0.00000  Uiso   1.00
H887   H     0.73495   0.98370   0.14107   0.00000  Uiso   1.00
H888   H     0.73716   0.99455   0.19848   0.00000  Uiso   1.00
H889   H     0.79151   0.99552   0.14891   0.00000  Uiso   1.00
H890   H     0.87773   0.71429   0.36978   0.00000  Uiso   1.00
H891   H     0.84583   0.71094   0.43079   0.00000  Uiso   1.00
H892   H     0.95261   0.68852   0.38212   0.00000  Uiso   1.00
H893   H     0.92063   0.68364   0.44376   0.00000  Uiso   1.00
H894   H     0.85620   0.80568   0.38679   0.00000  Uiso   1.00
H895   H     0.86465   0.96560   0.42724   0.00000  Uiso   1.00
H896   H     0.92606   0.94869   0.40384   0.00000  Uiso   1.00
H897   H     0.89702   0.97031   0.36530   0.00000  Uiso   1.00
H898   H     0.68943   0.83284   0.48424   0.00000  Uiso   1.00
H899   H     0.97624   0.78541   0.02556   0.00000  Uiso   1.00
H900   H     0.91055   0.96214   0.22009   0.00000  Uiso   1.00
H901   H     0.75602   0.70453   0.28027   0.00000  Uiso   1.00
H902   H     0.91057   0.70449   0.22016   0.00000  Uiso   1.00
N903   N     0.71426   0.83334   0.25001   0.00000  Uiso   1.00
N904   N     0.95241   0.83332   0.24999   0.00000  Uiso   1.00
O905   O     0.79512   0.89442   0.25000   0.00000  Uiso   1.00
O906   O     0.70902   0.85676   0.39893   0.00000  Uiso   1.00
O907   O     0.75492   0.77154   0.09872   0.00000  Uiso   1.00
O908   O     0.90072   0.75667   0.40789   0.00000  Uiso   1.00
O909   O     0.87154   0.77225   0.24999   0.00000  Uiso   1.00
O910   O     0.87157   0.89441   0.25000   0.00000  Uiso   1.00
O911   O     0.79510   0.77226   0.25000   0.00000  Uiso   1.00
O912   O     0.77328   0.83334   0.31612   0.00000  Uiso   1.00
O913   O     0.89339   0.83333   0.18387   0.00000  Uiso   1.00
O914   O     0.84972   0.83333   0.31612   0.00000  Uiso   1.00
O915   O     0.81695   0.83334   0.18388   0.00000  Uiso   1.00
O916   O     0.96428   0.82732   0.10273   0.00000  Uiso   1.00
Zn917  Zn    0.78229   0.83334   0.25000   0.00000  Uiso   1.00
Zn918  Zn    0.88438   0.83333   0.25000   0.00000  Uiso   1.00
C919   C     0.16663   0.24662   0.75008   0.00000  Uiso   1.00
C920   C     0.12308   0.31193   0.76707   0.00000  Uiso   1.00
C921   C     0.16664   0.04254   0.75019   0.00000  Uiso   1.00
C922   C     0.16660   0.29078   0.75023   0.00000  Uiso   1.00
C923   C     0.32191   0.15027   0.71345   0.00000  Uiso   1.00
C924   C     0.01138   0.18291   0.78661   0.00000  Uiso   1.00
C925   C     0.03641   0.15057   0.71334   0.00000  Uiso   1.00
C926   C     0.29693   0.18303   0.78656   0.00000  Uiso   1.00
C927   C     0.13746   0.16627   0.83798   0.00000  Uiso   1.00
C928   C     0.19602   0.16550   0.66186   0.00000  Uiso   1.00
C929   C     0.12102   0.16019   0.88847   0.00000  Uiso   1.00
C930   C     0.16666   0.08671   0.75004   0.00000  Uiso   1.00
C931   C     0.21252   0.15522   0.61190   0.00000  Uiso   1.00
C932   C     0.05857   0.15792   0.96320   0.00000  Uiso   1.00
C933   C     0.27324   0.12782   0.54342   0.00000  Uiso   1.00
C934   C     0.07415   0.17009   0.91659   0.00000  Uiso   1.00
C935   C     0.26132   0.14925   0.58590   0.00000  Uiso   1.00
C936   C     0.15279   0.14220   0.90838   0.00000  Uiso   1.00
C937   C     0.17787   0.14512   0.59191   0.00000  Uiso   1.00
C938   C     0.13791   0.13056   0.95546   0.00000  Uiso   1.00
C939   C     0.19006   0.12618   0.54810   0.00000  Uiso   1.00
C940   C     0.08968   0.13823   0.98283   0.00000  Uiso   1.00
C941   C     0.10594   0.11633   0.55212   0.00000  Uiso   1.00
C942   C     0.23857   0.11885   0.52302   0.00000  Uiso   1.00
C943   C     0.17056   0.11641   0.97758   0.00000  Uiso   1.00
C944   C     0.15542   0.11854   0.52675   0.00000  Uiso   1.00
C945   C     0.29943   0.20477   0.60740   0.00000  Uiso   1.00
C946   C     0.00026   0.22481   0.56317   0.00000  Uiso   1.00
C947   C     0.00603   0.27151   0.57005   0.00000  Uiso   1.00
C948   C     0.05394   0.23315   0.89178   0.00000  Uiso   1.00
C949   C     0.03075   0.25802   0.93659   0.00000  Uiso   1.00
C950   C     0.03746   0.30497   0.92779   0.00000  Uiso   1.00
C951   C     0.09750   0.06195   0.60293   0.00000  Uiso   1.00
C952   C     0.21847   0.10333   0.95377   0.00000  Uiso   1.00
C953   C     0.07827   0.04930   0.65439   0.00000  Uiso   1.00
C954   C     0.08604   0.00284   0.66094   0.00000  Uiso   1.00
C955   C     0.21531   0.04989   0.90468   0.00000  Uiso   1.00
C956   C     0.25029   0.01594   0.90856   0.00000  Uiso   1.00
C957   C     0.23330   0.30580   0.90072   0.00000  Uiso   1.00
C958   C     0.07371   0.12749   0.53002   0.00000  Uiso   1.00
C959   C     0.25189   0.10445   0.97710   0.00000  Uiso   1.00
C960   C     0.21013   0.31193   0.73355   0.00000  Uiso   1.00
C961   C     0.12310   0.02140   0.76696   0.00000  Uiso   1.00
C962   C     0.21015   0.02138   0.73356   0.00000  Uiso   1.00
H963   H     0.03663   0.12948   0.55065   0.00000  Uiso   1.00
H964   H     0.08935   0.29547   0.78052   0.00000  Uiso   1.00
H965   H     0.31400   0.13694   0.68421   0.00000  Uiso   1.00
H966   H     0.01924   0.19586   0.81596   0.00000  Uiso   1.00
H967   H     0.06443   0.13798   0.68385   0.00000  Uiso   1.00
H968   H     0.26901   0.19624   0.81587   0.00000  Uiso   1.00
H969   H     0.31295   0.21105   0.63672   0.00000  Uiso   1.00
H970   H     0.26403   0.22052   0.61642   0.00000  Uiso   1.00
H971   H     0.03582   0.20959   0.55386   0.00000  Uiso   1.00
H972   H     0.31903   0.22057   0.53424   0.00000  Uiso   1.00
H973   H     0.30451   0.28776   0.57772   0.00000  Uiso   1.00
H974   H     0.28884   0.09669   0.95818   0.00000  Uiso   1.00
H975   H     0.03169   0.28521   0.53785   0.00000  Uiso   1.00
H976   H     0.01999   0.27668   0.59926   0.00000  Uiso   1.00
H977   H     0.03952   0.24485   0.86469   0.00000  Uiso   1.00
H978   H     0.09315   0.23927   0.87816   0.00000  Uiso   1.00
H979   H     0.32526   0.25086   0.95062   0.00000  Uiso   1.00
H980   H     0.04740   0.24879   0.96290   0.00000  Uiso   1.00
H981   H     0.07608   0.31292   0.91480   0.00000  Uiso   1.00
H982   H     0.02010   0.32208   0.96084   0.00000  Uiso   1.00
H983   H     0.02089   0.31518   0.90170   0.00000  Uiso   1.00
H984   H     0.13656   0.05529   0.58963   0.00000  Uiso   1.00
H985   H     0.14131   0.15372   0.61031   0.00000  Uiso   1.00
H986   H     0.07934   0.04280   0.58320   0.00000  Uiso   1.00
H987   H     0.09686   0.06760   0.67422   0.00000  Uiso   1.00
H988   H     0.03941   0.05632   0.66868   0.00000  Uiso   1.00
H989   H     0.06829   0.31703   0.64107   0.00000  Uiso   1.00
H990   H     0.07049   0.32789   0.69848   0.00000  Uiso   1.00
H991   H     0.12484   0.32885   0.64891   0.00000  Uiso   1.00
H992   H     0.21106   0.04762   0.86978   0.00000  Uiso   1.00
H993   H     0.17916   0.04427   0.93079   0.00000  Uiso   1.00
H994   H     0.28594   0.02185   0.88212   0.00000  Uiso   1.00
H995   H     0.25397   0.01698   0.94376   0.00000  Uiso   1.00
H996   H     0.18953   0.13901   0.88679   0.00000  Uiso   1.00
H997   H     0.19798   0.29893   0.92724   0.00000  Uiso   1.00
H998   H     0.25940   0.28203   0.90384   0.00000  Uiso   1.00
H999   H     0.23035   0.30365   0.86530   0.00000  Uiso   1.00
H1000  H     0.02276   0.16617   0.98424   0.00000  Uiso   1.00
H1001  H     0.30957   0.11874   0.52556   0.00000  Uiso   1.00
H1002  H     0.24388   0.29548   0.72009   0.00000  Uiso   1.00
H1003  H     0.08935   0.03786   0.78027   0.00000  Uiso   1.00
H1004  H     0.24391   0.03782   0.72016   0.00000  Uiso   1.00
N1005  N     0.04759   0.16668   0.75001   0.00000  Uiso   1.00
N1006  N     0.28574   0.16666   0.74999   0.00000  Uiso   1.00
O1007  O     0.12846   0.22775   0.75000   0.00000  Uiso   1.00
O1008  O     0.04236   0.19010   0.89893   0.00000  Uiso   1.00
O1009  O     0.08825   0.10488   0.59872   0.00000  Uiso   1.00
O1010  O     0.23405   0.09000   0.90789   0.00000  Uiso   1.00
O1011  O     0.20488   0.10558   0.74999   0.00000  Uiso   1.00
O1012  O     0.20490   0.22774   0.75000   0.00000  Uiso   1.00
O1013  O     0.12843   0.10559   0.75000   0.00000  Uiso   1.00
O1014  O     0.10661   0.16667   0.81612   0.00000  Uiso   1.00
O1015  O     0.22672   0.16666   0.68387   0.00000  Uiso   1.00
O1016  O     0.18305   0.16666   0.81612   0.00000  Uiso   1.00
O1017  O     0.15028   0.16667   0.68388   0.00000  Uiso   1.00
O1018  O     0.29761   0.16066   0.60273   0.00000  Uiso   1.00
Zn1019 Zn    0.11562   0.16667   0.75000   0.00000  Uiso   1.00
Zn1020 Zn    0.21771   0.16666   0.75000   0.00000  Uiso   1.00
C1021  C     0.49996   0.24662   0.75008   0.00000  Uiso   1.00
C1022  C     0.45642   0.31193   0.76707   0.00000  Uiso   1.00
C1023  C     0.49997   0.04254   0.75019   0.00000  Uiso   1.00
C1024  C     0.49993   0.29078   0.75023   0.00000  Uiso   1.00
C1025  C     0.65525   0.15027   0.71345   0.00000  Uiso   1.00
C1026  C     0.34472   0.18291   0.78661   0.00000  Uiso   1.00
C1027  C     0.36975   0.15057   0.71334   0.00000  Uiso   1.00
C1028  C     0.63027   0.18303   0.78656   0.00000  Uiso   1.00
C1029  C     0.47079   0.16627   0.83798   0.00000  Uiso   1.00
C1030  C     0.52935   0.16550   0.66186   0.00000  Uiso   1.00
C1031  C     0.45435   0.16019   0.88847   0.00000  Uiso   1.00
C1032  C     0.49999   0.08671   0.75004   0.00000  Uiso   1.00
C1033  C     0.54586   0.15522   0.61190   0.00000  Uiso   1.00
C1034  C     0.39191   0.15792   0.96320   0.00000  Uiso   1.00
C1035  C     0.60657   0.12782   0.54342   0.00000  Uiso   1.00
C1036  C     0.40749   0.17009   0.91659   0.00000  Uiso   1.00
C1037  C     0.59465   0.14925   0.58590   0.00000  Uiso   1.00
C1038  C     0.48612   0.14220   0.90838   0.00000  Uiso   1.00
C1039  C     0.51121   0.14512   0.59191   0.00000  Uiso   1.00
C1040  C     0.47125   0.13056   0.95546   0.00000  Uiso   1.00
C1041  C     0.52340   0.12618   0.54810   0.00000  Uiso   1.00
C1042  C     0.42301   0.13823   0.98283   0.00000  Uiso   1.00
C1043  C     0.43928   0.11633   0.55212   0.00000  Uiso   1.00
C1044  C     0.57191   0.11885   0.52302   0.00000  Uiso   1.00
C1045  C     0.50389   0.11641   0.97758   0.00000  Uiso   1.00
C1046  C     0.48875   0.11854   0.52675   0.00000  Uiso   1.00
C1047  C     0.63277   0.20477   0.60740   0.00000  Uiso   1.00
C1048  C     0.33359   0.22481   0.56317   0.00000  Uiso   1.00
C1049  C     0.33937   0.27151   0.57005   0.00000  Uiso   1.00
C1050  C     0.38727   0.23315   0.89178   0.00000  Uiso   1.00
C1051  C     0.36408   0.25802   0.93659   0.00000  Uiso   1.00
C1052  C     0.37079   0.30497   0.92779   0.00000  Uiso   1.00
C1053  C     0.43083   0.06195   0.60293   0.00000  Uiso   1.00
C1054  C     0.55180   0.10333   0.95377   0.00000  Uiso   1.00
C1055  C     0.41160   0.04930   0.65439   0.00000  Uiso   1.00
C1056  C     0.41938   0.00284   0.66094   0.00000  Uiso   1.00
C1057  C     0.54864   0.04989   0.90468   0.00000  Uiso   1.00
C1058  C     0.58362   0.01594   0.90856   0.00000  Uiso   1.00
C1059  C     0.56663   0.30580   0.90072   0.00000  Uiso   1.00
C1060  C     0.40705   0.12749   0.53002   0.00000  Uiso   1.00
C1061  C     0.58523   0.10445   0.97710   0.00000  Uiso   1.00
C1062  C     0.54347   0.31193   0.73355   0.00000  Uiso   1.00
C1063  C     0.45643   0.02140   0.76696   0.00000  Uiso   1.00
C1064  C     0.54349   0.02138   0.73356   0.00000  Uiso   1.00
H1065  H     0.36997   0.12948   0.55065   0.00000  Uiso   1.00
H1066  H     0.42268   0.29547   0.78052   0.00000  Uiso   1.00
H1067  H     0.64734   0.13694   0.68421   0.00000  Uiso   1.00
H1068  H     0.35257   0.19586   0.81596   0.00000  Uiso   1.00
H1069  H     0.39777   0.13798   0.68385   0.00000  Uiso   1.00
H1070  H     0.60234   0.19624   0.81587   0.00000  Uiso   1.00
H1071  H     0.64629   0.21105   0.63672   0.00000  Uiso   1.00
H1072  H     0.59736   0.22052   0.61642   0.00000  Uiso   1.00
H1073  H     0.36915   0.20959   0.55386   0.00000  Uiso   1.00
H1074  H     0.65236   0.22057   0.53424   0.00000  Uiso   1.00
H1075  H     0.63784   0.28776   0.57772   0.00000  Uiso   1.00
H1076  H     0.62217   0.09669   0.95818   0.00000  Uiso   1.00
H1077  H     0.36502   0.28521   0.53785   0.00000  Uiso   1.00
H1078  H     0.35333   0.27668   0.59926   0.00000  Uiso   1.00
H1079  H     0.37286   0.24485   0.86469   0.00000  Uiso   1.00
H1080  H     0.42648   0.23927   0.87816   0.00000  Uiso   1.00
H1081  H     0.65859   0.25086   0.95062   0.00000  Uiso   1.00
H1082  H     0.38073   0.24879   0.96290   0.00000  Uiso   1.00
H1083  H     0.40942   0.31292   0.91480   0.00000  Uiso   1.00
H1084  H     0.35344   0.32208   0.96084   0.00000  Uiso   1.00
H1085  H     0.35422   0.31518   0.90170   0.00000  Uiso   1.00
H1086  H     0.46989   0.05529   0.58963   0.00000  Uiso   1.00
H1087  H     0.47464   0.15372   0.61031   0.00000  Uiso   1.00
H1088  H     0.41267   0.04280   0.58320   0.00000  Uiso   1.00
H1089  H     0.43019   0.06760   0.67422   0.00000  Uiso   1.00
H1090  H     0.37274   0.05632   0.66868   0.00000  Uiso   1.00
H1091  H     0.40162   0.31703   0.64107   0.00000  Uiso   1.00
H1092  H     0.40382   0.32789   0.69848   0.00000  Uiso   1.00
H1093  H     0.45817   0.32885   0.64891   0.00000  Uiso   1.00
H1094  H     0.54440   0.04762   0.86978   0.00000  Uiso   1.00
H1095  H     0.51249   0.04427   0.93079   0.00000  Uiso   1.00
H1096  H     0.61928   0.02185   0.88212   0.00000  Uiso   1.00
H1097  H     0.58730   0.01698   0.94376   0.00000  Uiso   1.00
H1098  H     0.52287   0.13901   0.88679   0.00000  Uiso   1.00
H1099  H     0.53132   0.29893   0.92724   0.00000  Uiso   1.00
H1100  H     0.59273   0.28203   0.90384   0.00000  Uiso   1.00
H1101  H     0.56369   0.30365   0.86530   0.00000  Uiso   1.00
H1102  H     0.35610   0.16617   0.98424   0.00000  Uiso   1.00
H1103  H     0.64291   0.11874   0.52556   0.00000  Uiso   1.00
H1104  H     0.57721   0.29548   0.72009   0.00000  Uiso   1.00
H1105  H     0.42268   0.03786   0.78027   0.00000  Uiso   1.00
H1106  H     0.57724   0.03782   0.72016   0.00000  Uiso   1.00
N1107  N     0.38093   0.16668   0.75001   0.00000  Uiso   1.00
N1108  N     0.61907   0.16666   0.74999   0.00000  Uiso   1.00
O1109  O     0.46179   0.22775   0.75000   0.00000  Uiso   1.00
O1110  O     0.37569   0.19010   0.89893   0.00000  Uiso   1.00
O1111  O     0.42159   0.10488   0.59872   0.00000  Uiso   1.00
O1112  O     0.56739   0.09000   0.90789   0.00000  Uiso   1.00
O1113  O     0.53821   0.10558   0.74999   0.00000  Uiso   1.00
O1114  O     0.53823   0.22774   0.75000   0.00000  Uiso   1.00
O1115  O     0.46177   0.10559   0.75000   0.00000  Uiso   1.00
O1116  O     0.43994   0.16667   0.81612   0.00000  Uiso   1.00
O1117  O     0.56006   0.16666   0.68387   0.00000  Uiso   1.00
O1118  O     0.51639   0.16666   0.81612   0.00000  Uiso   1.00
O1119  O     0.48361   0.16667   0.68388   0.00000  Uiso   1.00
O1120  O     0.63094   0.16066   0.60273   0.00000  Uiso   1.00
Zn1121 Zn    0.44896   0.16667   0.75000   0.00000  Uiso   1.00
Zn1122 Zn    0.55104   0.16666   0.75000   0.00000  Uiso   1.00
C1123  C     0.83330   0.24662   0.75008   0.00000  Uiso   1.00
C1124  C     0.78975   0.31193   0.76707   0.00000  Uiso   1.00
C1125  C     0.83330   0.04254   0.75019   0.00000  Uiso   1.00
C1126  C     0.83326   0.29078   0.75023   0.00000  Uiso   1.00
C1127  C     0.98858   0.15027   0.71345   0.00000  Uiso   1.00
C1128  C     0.67805   0.18291   0.78661   0.00000  Uiso   1.00
C1129  C     0.70308   0.15057   0.71334   0.00000  Uiso   1.00
C1130  C     0.96360   0.18303   0.78656   0.00000  Uiso   1.00
C1131  C     0.80413   0.16627   0.83798   0.00000  Uiso   1.00
C1132  C     0.86269   0.16550   0.66186   0.00000  Uiso   1.00
C1133  C     0.78769   0.16019   0.88847   0.00000  Uiso   1.00
C1134  C     0.83333   0.08671   0.75004   0.00000  Uiso   1.00
C1135  C     0.87919   0.15522   0.61190   0.00000  Uiso   1.00
C1136  C     0.72524   0.15792   0.96320   0.00000  Uiso   1.00
C1137  C     0.93990   0.12782   0.54342   0.00000  Uiso   1.00
C1138  C     0.74082   0.17009   0.91659   0.00000  Uiso   1.00
C1139  C     0.92798   0.14925   0.58590   0.00000  Uiso   1.00
C1140  C     0.81945   0.14220   0.90838   0.00000  Uiso   1.00
C1141  C     0.84454   0.14512   0.59191   0.00000  Uiso   1.00
C1142  C     0.80458   0.13056   0.95546   0.00000  Uiso   1.00
C1143  C     0.85673   0.12618   0.54810   0.00000  Uiso   1.00
C1144  C     0.75634   0.13823   0.98283   0.00000  Uiso   1.00
C1145  C     0.77261   0.11633   0.55212   0.00000  Uiso   1.00
C1146  C     0.90524   0.11885   0.52302   0.00000  Uiso   1.00
C1147  C     0.83723   0.11641   0.97758   0.00000  Uiso   1.00
C1148  C     0.82209   0.11854   0.52675   0.00000  Uiso   1.00
C1149  C     0.96610   0.20477   0.60740   0.00000  Uiso   1.00
C1150  C     0.66692   0.22481   0.56317   0.00000  Uiso   1.00
C1151  C     0.67270   0.27151   0.57005   0.00000  Uiso   1.00
C1152  C     0.72061   0.23315   0.89178   0.00000  Uiso   1.00
C1153  C     0.69742   0.25802   0.93659   0.00000  Uiso   1.00
C1154  C     0.70412   0.30497   0.92779   0.00000  Uiso   1.00
C1155  C     0.76416   0.06195   0.60293   0.00000  Uiso   1.00
C1156  C     0.88513   0.10333   0.95377   0.00000  Uiso   1.00
C1157  C     0.74493   0.04930   0.65439   0.00000  Uiso   1.00
C1158  C     0.75271   0.00284   0.66094   0.00000  Uiso   1.00
C1159  C     0.88198   0.04989   0.90468   0.00000  Uiso   1.00
C1160  C     0.91695   0.01594   0.90856   0.00000  Uiso   1.00
C1161  C     0.89997   0.30580   0.90072   0.00000  Uiso   1.00
C1162  C     0.74038   0.12749   0.53002   0.00000  Uiso   1.00
C1163  C     0.91856   0.10445   0.97710   0.00000  Uiso   1.00
C1164  C     0.87680   0.31193   0.73355   0.00000  Uiso   1.00
C1165  C     0.78976   0.02140   0.76696   0.00000  Uiso   1.00
C1166  C     0.87682   0.02138   0.73356   0.00000  Uiso   1.00
H1167  H     0.70330   0.12948   0.55065   0.00000  Uiso   1.00
H1168  H     0.75601   0.29547   0.78052   0.00000  Uiso   1.00
H1169  H     0.98067   0.13694   0.68421   0.00000  Uiso   1.00
H1170  H     0.68591   0.19586   0.81596   0.00000  Uiso   1.00
H1171  H     0.73110   0.13798   0.68385   0.00000  Uiso   1.00
H1172  H     0.93567   0.19624   0.81587   0.00000  Uiso   1.00
H1173  H     0.97962   0.21105   0.63672   0.00000  Uiso   1.00
H1174  H     0.93070   0.22052   0.61642   0.00000  Uiso   1.00
H1175  H     0.70248   0.20959   0.55386   0.00000  Uiso   1.00
H1176  H     0.98570   0.22057   0.53424   0.00000  Uiso   1.00
H1177  H     0.97118   0.28776   0.57772   0.00000  Uiso   1.00
H1178  H     0.95551   0.09669   0.95818   0.00000  Uiso   1.00
H1179  H     0.69835   0.28521   0.53785   0.00000  Uiso   1.00
H1180  H     0.68666   0.27668   0.59926   0.00000  Uiso   1.00
H1181  H     0.70619   0.24485   0.86469   0.00000  Uiso   1.00
H1182  H     0.75981   0.23927   0.87816   0.00000  Uiso   1.00
H1183  H     0.99193   0.25086   0.95062   0.00000  Uiso   1.00
H1184  H     0.71407   0.24879   0.96290   0.00000  Uiso   1.00
H1185  H     0.74275   0.31292   0.91480   0.00000  Uiso   1.00
H1186  H     0.68677   0.32208   0.96084   0.00000  Uiso   1.00
H1187  H     0.68755   0.31518   0.90170   0.00000  Uiso   1.00
H1188  H     0.80323   0.05529   0.58963   0.00000  Uiso   1.00
H1189  H     0.80797   0.15372   0.61031   0.00000  Uiso   1.00
H1190  H     0.74601   0.04280   0.58320   0.00000  Uiso   1.00
H1191  H     0.76352   0.06760   0.67422   0.00000  Uiso   1.00
H1192  H     0.70608   0.05632   0.66868   0.00000  Uiso   1.00
H1193  H     0.73495   0.31703   0.64107   0.00000  Uiso   1.00
H1194  H     0.73716   0.32789   0.69848   0.00000  Uiso   1.00
H1195  H     0.79151   0.32885   0.64891   0.00000  Uiso   1.00
H1196  H     0.87773   0.04762   0.86978   0.00000  Uiso   1.00
H1197  H     0.84583   0.04427   0.93079   0.00000  Uiso   1.00
H1198  H     0.95261   0.02185   0.88212   0.00000  Uiso   1.00
H1199  H     0.92063   0.01698   0.94376   0.00000  Uiso   1.00
H1200  H     0.85620   0.13901   0.88679   0.00000  Uiso   1.00
H1201  H     0.86465   0.29893   0.92724   0.00000  Uiso   1.00
H1202  H     0.92606   0.28203   0.90384   0.00000  Uiso   1.00
H1203  H     0.89702   0.30365   0.86530   0.00000  Uiso   1.00
H1204  H     0.68943   0.16617   0.98424   0.00000  Uiso   1.00
H1205  H     0.97624   0.11874   0.52556   0.00000  Uiso   1.00
H1206  H     0.91055   0.29548   0.72009   0.00000  Uiso   1.00
H1207  H     0.75602   0.03786   0.78027   0.00000  Uiso   1.00
H1208  H     0.91057   0.03782   0.72016   0.00000  Uiso   1.00
N1209  N     0.71426   0.16668   0.75001   0.00000  Uiso   1.00
N1210  N     0.95241   0.16666   0.74999   0.00000  Uiso   1.00
O1211  O     0.79512   0.22775   0.75000   0.00000  Uiso   1.00
O1212  O     0.70902   0.19010   0.89893   0.00000  Uiso   1.00
O1213  O     0.75492   0.10488   0.59872   0.00000  Uiso   1.00
O1214  O     0.90072   0.09000   0.90789   0.00000  Uiso   1.00
O1215  O     0.87154   0.10558   0.74999   0.00000  Uiso   1.00
O1216  O     0.87157   0.22774   0.75000   0.00000  Uiso   1.00
O1217  O     0.79510   0.10559   0.75000   0.00000  Uiso   1.00
O1218  O     0.77328   0.16667   0.81612   0.00000  Uiso   1.00
O1219  O     0.89339   0.16666   0.68387   0.00000  Uiso   1.00
O1220  O     0.84972   0.16666   0.81612   0.00000  Uiso   1.00
O1221  O     0.81695   0.16667   0.68388   0.00000  Uiso   1.00
O1222  O     0.96428   0.16066   0.60273   0.00000  Uiso   1.00
Zn1223 Zn    0.78229   0.16667   0.75000   0.00000  Uiso   1.00
Zn1224 Zn    0.88438   0.16666   0.75000   0.00000  Uiso   1.00
C1225  C     0.16663   0.57996   0.75008   0.00000  Uiso   1.00
C1226  C     0.12308   0.64526   0.76707   0.00000  Uiso   1.00
C1227  C     0.16664   0.37588   0.75019   0.00000  Uiso   1.00
C1228  C     0.16660   0.62411   0.75023   0.00000  Uiso   1.00
C1229  C     0.32191   0.48361   0.71345   0.00000  Uiso   1.00
C1230  C     0.01138   0.51624   0.78661   0.00000  Uiso   1.00
C1231  C     0.03641   0.48390   0.71334   0.00000  Uiso   1.00
C1232  C     0.29693   0.51636   0.78656   0.00000  Uiso   1.00
C1233  C     0.13746   0.49960   0.83798   0.00000  Uiso   1.00
C1234  C     0.19602   0.49884   0.66186   0.00000  Uiso   1.00
C1235  C     0.12102   0.49353   0.88847   0.00000  Uiso   1.00
C1236  C     0.16666   0.42004   0.75004   0.00000  Uiso   1.00
C1237  C     0.21252   0.48855   0.61190   0.00000  Uiso   1.00
C1238  C     0.05857   0.49126   0.96320   0.00000  Uiso   1.00
C1239  C     0.27324   0.46115   0.54342   0.00000  Uiso   1.00
C1240  C     0.07415   0.50342   0.91659   0.00000  Uiso   1.00
C1241  C     0.26132   0.48258   0.58590   0.00000  Uiso   1.00
C1242  C     0.15279   0.47553   0.90838   0.00000  Uiso   1.00
C1243  C     0.17787   0.47845   0.59191   0.00000  Uiso   1.00
C1244  C     0.13791   0.46389   0.95546   0.00000  Uiso   1.00
C1245  C     0.19006   0.45952   0.54810   0.00000  Uiso   1.00
C1246  C     0.08968   0.47156   0.98283   0.00000  Uiso   1.00
C1247  C     0.10594   0.44966   0.55212   0.00000  Uiso   1.00
C1248  C     0.23857   0.45218   0.52302   0.00000  Uiso   1.00
C1249  C     0.17056   0.44975   0.97758   0.00000  Uiso   1.00
C1250  C     0.15542   0.45188   0.52675   0.00000  Uiso   1.00
C1251  C     0.29943   0.53810   0.60740   0.00000  Uiso   1.00
C1252  C     0.00026   0.55814   0.56317   0.00000  Uiso   1.00
C1253  C     0.00603   0.60484   0.57005   0.00000  Uiso   1.00
C1254  C     0.05394   0.56648   0.89178   0.00000  Uiso   1.00
C1255  C     0.03075   0.59135   0.93659   0.00000  Uiso   1.00
C1256  C     0.03746   0.63830   0.92779   0.00000  Uiso   1.00
C1257  C     0.09750   0.39528   0.60293   0.00000  Uiso   1.00
C1258  C     0.21847   0.43666   0.95377   0.00000  Uiso   1.00
C1259  C     0.07827   0.38263   0.65439   0.00000  Uiso   1.00
C1260  C     0.08604   0.33618   0.66094   0.00000  Uiso   1.00
C1261  C     0.21531   0.38323   0.90468   0.00000  Uiso   1.00
C1262  C     0.25029   0.34927   0.90856   0.00000  Uiso   1.00
C1263  C     0.23330   0.63914   0.90072   0.00000  Uiso   1.00
C1264  C     0.07371   0.46083   0.53002   0.00000  Uiso   1.00
C1265  C     0.25189   0.43778   0.97710   0.00000  Uiso   1.00
C1266  C     0.21013   0.64526   0.73355   0.00000  Uiso   1.00
C1267  C     0.12310   0.35473   0.76696   0.00000  Uiso   1.00
C1268  C     0.21015   0.35472   0.73356   0.00000  Uiso   1.00
H1269  H     0.03663   0.46282   0.55065   0.00000  Uiso   1.00
H1270  H     0.08935   0.62881   0.78052   0.00000  Uiso   1.00
H1271  H     0.31400   0.47027   0.68421   0.00000  Uiso   1.00
H1272  H     0.01924   0.52920   0.81596   0.00000  Uiso   1.00
H1273  H     0.06443   0.47131   0.68385   0.00000  Uiso   1.00
H1274  H     0.26901   0.52957   0.81587   0.00000  Uiso   1.00
H1275  H     0.31295   0.54438   0.63672   0.00000  Uiso   1.00
H1276  H     0.26403   0.55385   0.61642   0.00000  Uiso   1.00
H1277  H     0.03582   0.54292   0.55386   0.00000  Uiso   1.00
H1278  H     0.31903   0.55390   0.53424   0.00000  Uiso   1.00
H1279  H     0.30451   0.62110   0.57772   0.00000  Uiso   1.00
H1280  H     0.28884   0.43002   0.95818   0.00000  Uiso   1.00
H1281  H     0.03169   0.61854   0.53785   0.00000  Uiso   1.00
H1282  H     0.01999   0.61001   0.59926   0.00000  Uiso   1.00
H1283  H     0.03952   0.57819   0.86469   0.00000  Uiso   1.00
H1284  H     0.09315   0.57260   0.87816   0.00000  Uiso   1.00
H1285  H     0.32526   0.58419   0.95062   0.00000  Uiso   1.00
H1286  H     0.04740   0.58212   0.96290   0.00000  Uiso   1.00
H1287  H     0.07608   0.64625   0.91480   0.00000  Uiso   1.00
H1288  H     0.02010   0.65542   0.96084   0.00000  Uiso   1.00
H1289  H     0.02089   0.64851   0.90170   0.00000  Uiso   1.00
H1290  H     0.13656   0.38863   0.58963   0.00000  Uiso   1.00
H1291  H     0.14131   0.48705   0.61031   0.00000  Uiso   1.00
H1292  H     0.07934   0.37614   0.58320   0.00000  Uiso   1.00
H1293  H     0.09686   0.40093   0.67422   0.00000  Uiso   1.00
H1294  H     0.03941   0.38965   0.66868   0.00000  Uiso   1.00
H1295  H     0.06829   0.65036   0.64107   0.00000  Uiso   1.00
H1296  H     0.07049   0.66122   0.69848   0.00000  Uiso   1.00
H1297  H     0.12484   0.66218   0.64891   0.00000  Uiso   1.00
H1298  H     0.21106   0.38096   0.86978   0.00000  Uiso   1.00
H1299  H     0.17916   0.37760   0.93079   0.00000  Uiso   1.00
H1300  H     0.28594   0.35519   0.88212   0.00000  Uiso   1.00
H1301  H     0.25397   0.35031   0.94376   0.00000  Uiso   1.00
H1302  H     0.18953   0.47234   0.88679   0.00000  Uiso   1.00
H1303  H     0.19798   0.63227   0.92724   0.00000  Uiso   1.00
H1304  H     0.25940   0.61536   0.90384   0.00000  Uiso   1.00
H1305  H     0.23035   0.63698   0.86530   0.00000  Uiso   1.00
H1306  H     0.02276   0.49951   0.98424   0.00000  Uiso   1.00
H1307  H     0.30957   0.45208   0.52556   0.00000  Uiso   1.00
H1308  H     0.24388   0.62881   0.72009   0.00000  Uiso   1.00
H1309  H     0.08935   0.37119   0.78027   0.00000  Uiso   1.00
H1310  H     0.24391   0.37115   0.72016   0.00000  Uiso   1.00
N1311  N     0.04759   0.50001   0.75001   0.00000  Uiso   1.00
N1312  N     0.28574   0.49999   0.74999   0.00000  Uiso   1.00
O1313  O     0.12846   0.56108   0.75000   0.00000  Uiso   1.00
O1314  O     0.04236   0.52343   0.89893   0.00000  Uiso   1.00
O1315  O     0.08825   0.43821   0.59872   0.00000  Uiso   1.00
O1316  O     0.23405   0.42333   0.90789   0.00000  Uiso   1.00
O1317  O     0.20488   0.43892   0.74999   0.00000  Uiso   1.00
O1318  O     0.20490   0.56107   0.75000   0.00000  Uiso   1.00
O1319  O     0.12843   0.43893   0.75000   0.00000  Uiso   1.00
O1320  O     0.10661   0.50001   0.81612   0.00000  Uiso   1.00
O1321  O     0.22672   0.49999   0.68387   0.00000  Uiso   1.00
O1322  O     0.18305   0.50000   0.81612   0.00000  Uiso   1.00
O1323  O     0.15028   0.50000   0.68388   0.00000  Uiso   1.00
O1324  O     0.29761   0.49399   0.60273   0.00000  Uiso   1.00
Zn1325 Zn    0.11562   0.50001   0.75000   0.00000  Uiso   1.00
Zn1326 Zn    0.21771   0.49999   0.75000   0.00000  Uiso   1.00
C1327  C     0.49996   0.57996   0.75008   0.00000  Uiso   1.00
C1328  C     0.45642   0.64526   0.76707   0.00000  Uiso   1.00
C1329  C     0.49997   0.37588   0.75019   0.00000  Uiso   1.00
C1330  C     0.49993   0.62411   0.75023   0.00000  Uiso   1.00
C1331  C     0.65525   0.48361   0.71345   0.00000  Uiso   1.00
C1332  C     0.34472   0.51624   0.78661   0.00000  Uiso   1.00
C1333  C     0.36975   0.48390   0.71334   0.00000  Uiso   1.00
C1334  C     0.63027   0.51636   0.78656   0.00000  Uiso   1.00
C1335  C     0.47079   0.49960   0.83798   0.00000  Uiso   1.00
C1336  C     0.52935   0.49884   0.66186   0.00000  Uiso   1.00
C1337  C     0.45435   0.49353   0.88847   0.00000  Uiso   1.00
C1338  C     0.49999   0.42004   0.75004   0.00000  Uiso   1.00
C1339  C     0.54586   0.48855   0.61190   0.00000  Uiso   1.00
C1340  C     0.39191   0.49126   0.96320   0.00000  Uiso   1.00
C1341  C     0.60657   0.46115   0.54342   0.00000  Uiso   1.00
C1342  C     0.40749   0.50342   0.91659   0.00000  Uiso   1.00
C1343  C     0.59465   0.48258   0.58590   0.00000  Uiso   1.00
C1344  C     0.48612   0.47553   0.90838   0.00000  Uiso   1.00
C1345  C     0.51121   0.47845   0.59191   0.00000  Uiso   1.00
C1346  C     0.47125   0.46389   0.95546   0.00000  Uiso   1.00
C1347  C     0.52340   0.45952   0.54810   0.00000  Uiso   1.00
C1348  C     0.42301   0.47156   0.98283   0.00000  Uiso   1.00
C1349  C     0.43928   0.44966   0.55212   0.00000  Uiso   1.00
C1350  C     0.57191   0.45218   0.52302   0.00000  Uiso   1.00
C1351  C     0.50389   0.44975   0.97758   0.00000  Uiso   1.00
C1352  C     0.48875   0.45188   0.52675   0.00000  Uiso   1.00
C1353  C     0.63277   0.53810   0.60740   0.00000  Uiso   1.00
C1354  C     0.33359   0.55814   0.56317   0.00000  Uiso   1.00
C1355  C     0.33937   0.60484   0.57005   0.00000  Uiso   1.00
C1356  C     0.38727   0.56648   0.89178   0.00000  Uiso   1.00
C1357  C     0.36408   0.59135   0.93659   0.00000  Uiso   1.00
C1358  C     0.37079   0.63830   0.92779   0.00000  Uiso   1.00
C1359  C     0.43083   0.39528   0.60293   0.00000  Uiso   1.00
C1360  C     0.55180   0.43666   0.95377   0.00000  Uiso   1.00
C1361  C     0.41160   0.38263   0.65439   0.00000  Uiso   1.00
C1362  C     0.41938   0.33618   0.66094   0.00000  Uiso   1.00
C1363  C     0.54864   0.38323   0.90468   0.00000  Uiso   1.00
C1364  C     0.58362   0.34927   0.90856   0.00000  Uiso   1.00
C1365  C     0.56663   0.63914   0.90072   0.00000  Uiso   1.00
C1366  C     0.40705   0.46083   0.53002   0.00000  Uiso   1.00
C1367  C     0.58523   0.43778   0.97710   0.00000  Uiso   1.00
C1368  C     0.54347   0.64526   0.73355   0.00000  Uiso   1.00
C1369  C     0.45643   0.35473   0.76696   0.00000  Uiso   1.00
C1370  C     0.54349   0.35472   0.73356   0.00000  Uiso   1.00
H1371  H     0.36997   0.46282   0.55065   0.00000  Uiso   1.00
H1372  H     0.42268   0.62881   0.78052   0.00000  Uiso   1.00
H1373  H     0.64734   0.47027   0.68421   0.00000  Uiso   1.00
H1374  H     0.35257   0.52920   0.81596   0.00000  Uiso   1.00
H1375  H     0.39777   0.47131   0.68385   0.00000  Uiso   1.00
H1376  H     0.60234   0.52957   0.81587   0.00000  Uiso   1.00
H1377  H     0.64629   0.54438   0.63672   0.00000  Uiso   1.00
H1378  H     0.59736   0.55385   0.61642   0.00000  Uiso   1.00
H1379  H     0.36915   0.54292   0.55386   0.00000  Uiso   1.00
H1380  H     0.65236   0.55390   0.53424   0.00000  Uiso   1.00
H1381  H     0.63784   0.62110   0.57772   0.00000  Uiso   1.00
H1382  H     0.62217   0.43002   0.95818   0.00000  Uiso   1.00
H1383  H     0.36502   0.61854   0.53785   0.00000  Uiso   1.00
H1384  H     0.35333   0.61001   0.59926   0.00000  Uiso   1.00
H1385  H     0.37286   0.57819   0.86469   0.00000  Uiso   1.00
H1386  H     0.42648   0.57260   0.87816   0.00000  Uiso   1.00
H1387  H     0.65859   0.58419   0.95062   0.00000  Uiso   1.00
H1388  H     0.38073   0.58212   0.96290   0.00000  Uiso   1.00
H1389  H     0.40942   0.64625   0.91480   0.00000  Uiso   1.00
H1390  H     0.35344   0.65542   0.96084   0.00000  Uiso   1.00
H1391  H     0.35422   0.64851   0.90170   0.00000  Uiso   1.00
H1392  H     0.46989   0.38863   0.58963   0.00000  Uiso   1.00
H1393  H     0.47464   0.48705   0.61031   0.00000  Uiso   1.00
H1394  H     0.41267   0.37614   0.58320   0.00000  Uiso   1.00
H1395  H     0.43019   0.40093   0.67422   0.00000  Uiso   1.00
H1396  H     0.37274   0.38965   0.66868   0.00000  Uiso   1.00
H1397  H     0.40162   0.65036   0.64107   0.00000  Uiso   1.00
H1398  H     0.40382   0.66122   0.69848   0.00000  Uiso   1.00
H1399  H     0.45817   0.66218   0.64891   0.00000  Uiso   1.00
H1400  H     0.54440   0.38096   0.86978   0.00000  Uiso   1.00
H1401  H     0.51249   0.37760   0.93079   0.00000  Uiso   1.00
H1402  H     0.61928   0.35519   0.88212   0.00000  Uiso   1.00
H1403  H     0.58730   0.35031   0.94376   0.00000  Uiso   1.00
H1404  H     0.52287   0.47234   0.88679   0.00000  Uiso   1.00
H1405  H     0.53132   0.63227   0.92724   0.00000  Uiso   1.00
H1406  H     0.59273   0.61536   0.90384   0.00000  Uiso   1.00
H1407  H     0.56369   0.63698   0.86530   0.00000  Uiso   1.00
H1408  H     0.35610   0.49951   0.98424   0.00000  Uiso   1.00
H1409  H     0.64291   0.45208   0.52556   0.00000  Uiso   1.00
H1410  H     0.57721   0.62881   0.72009   0.00000  Uiso   1.00
H1411  H     0.42268   0.37119   0.78027   0.00000  Uiso   1.00
H1412  H     0.57724   0.37115   0.72016   0.00000  Uiso   1.00
N1413  N     0.38093   0.50001   0.75001   0.00000  Uiso   1.00
N1414  N     0.61907   0.49999   0.74999   0.00000  Uiso   1.00
O1415  O     0.46179   0.56108   0.75000   0.00000  Uiso   1.00
O1416  O     0.37569   0.52343   0.89893   0.00000  Uiso   1.00
O1417  O     0.42159   0.43821   0.59872   0.00000  Uiso   1.00
O1418  O     0.56739   0.42333   0.90789   0.00000  Uiso   1.00
O1419  O     0.53821   0.43892   0.74999   0.00000  Uiso   1.00
O1420  O     0.53823   0.56107   0.75000   0.00000  Uiso   1.00
O1421  O     0.46177   0.43893   0.75000   0.00000  Uiso   1.00
O1422  O     0.43994   0.50001   0.81612   0.00000  Uiso   1.00
O1423  O     0.56006   0.49999   0.68387   0.00000  Uiso   1.00
O1424  O     0.51639   0.50000   0.81612   0.00000  Uiso   1.00
O1425  O     0.48361   0.50000   0.68388   0.00000  Uiso   1.00
O1426  O     0.63094   0.49399   0.60273   0.00000  Uiso   1.00
Zn1427 Zn    0.44896   0.50001   0.75000   0.00000  Uiso   1.00
Zn1428 Zn    0.55104   0.49999   0.75000   0.00000  Uiso   1.00
C1429  C     0.83330   0.57996   0.75008   0.00000  Uiso   1.00
C1430  C     0.78975   0.64526   0.76707   0.00000  Uiso   1.00
C1431  C     0.83330   0.37588   0.75019   0.00000  Uiso   1.00
C1432  C     0.83326   0.62411   0.75023   0.00000  Uiso   1.00
C1433  C     0.98858   0.48361   0.71345   0.00000  Uiso   1.00
C1434  C     0.67805   0.51624   0.78661   0.00000  Uiso   1.00
C1435  C     0.70308   0.48390   0.71334   0.00000  Uiso   1.00
C1436  C     0.96360   0.51636   0.78656   0.00000  Uiso   1.00
C1437  C     0.80413   0.49960   0.83798   0.00000  Uiso   1.00
C1438  C     0.86269   0.49884   0.66186   0.00000  Uiso   1.00
C1439  C     0.78769   0.49353   0.88847   0.00000  Uiso   1.00
C1440  C     0.83333   0.42004   0.75004   0.00000  Uiso   1.00
C1441  C     0.87919   0.48855   0.61190   0.00000  Uiso   1.00
C1442  C     0.72524   0.49126   0.96320   0.00000  Uiso   1.00
C1443  C     0.93990   0.46115   0.54342   0.00000  Uiso   1.00
C1444  C     0.74082   0.50342   0.91659   0.00000  Uiso   1.00
C1445  C     0.92798   0.48258   0.58590   0.00000  Uiso   1.00
C1446  C     0.81945   0.47553   0.90838   0.00000  Uiso   1.00
C1447  C     0.84454   0.47845   0.59191   0.00000  Uiso   1.00
C1448  C     0.80458   0.46389   0.95546   0.00000  Uiso   1.00
C1449  C     0.85673   0.45952   0.54810   0.00000  Uiso   1.00
C1450  C     0.75634   0.47156   0.98283   0.00000  Uiso   1.00
C1451  C     0.77261   0.44966   0.55212   0.00000  Uiso   1.00
C1452  C     0.90524   0.45218   0.52302   0.00000  Uiso   1.00
C1453  C     0.83723   0.44975   0.97758   0.00000  Uiso   1.00
C1454  C     0.82209   0.45188   0.52675   0.00000  Uiso   1.00
C1455  C     0.96610   0.53810   0.60740   0.00000  Uiso   1.00
C1456  C     0.66692   0.55814   0.56317   0.00000  Uiso   1.00
C1457  C     0.67270   0.60484   0.57005   0.00000  Uiso   1.00
C1458  C     0.72061   0.56648   0.89178   0.00000  Uiso   1.00
C1459  C     0.69742   0.59135   0.93659   0.00000  Uiso   1.00
C1460  C     0.70412   0.63830   0.92779   0.00000  Uiso   1.00
C1461  C     0.76416   0.39528   0.60293   0.00000  Uiso   1.00
C1462  C     0.88513   0.43666   0.95377   0.00000  Uiso   1.00
C1463  C     0.74493   0.38263   0.65439   0.00000  Uiso   1.00
C1464  C     0.75271   0.33618   0.66094   0.00000  Uiso   1.00
C1465  C     0.88198   0.38323   0.90468   0.00000  Uiso   1.00
C1466  C     0.91695   0.34927   0.90856   0.00000  Uiso   1.00
C1467  C     0.89997   0.63914   0.90072   0.00000  Uiso   1.00
C1468  C     0.74038   0.46083   0.53002   0.00000  Uiso   1.00
C1469  C     0.91856   0.43778   0.97710   0.00000  Uiso   1.00
C1470  C     0.87680   0.64526   0.73355   0.00000  Uiso   1.00
C1471  C     0.78976   0.35473   0.76696   0.00000  Uiso   1.00
C1472  C     0.87682   0.35472   0.73356   0.00000  Uiso   1.00
H1473  H     0.70330   0.46282   0.55065   0.00000  Uiso   1.00
H1474  H     0.75601   0.62881   0.78052   0.00000  Uiso   1.00
H1475  H     0.98067   0.47027   0.68421   0.00000  Uiso   1.00
H1476  H     0.68591   0.52920   0.81596   0.00000  Uiso   1.00
H1477  H     0.73110   0.47131   0.68385   0.00000  Uiso   1.00
H1478  H     0.93567   0.52957   0.81587   0.00000  Uiso   1.00
H1479  H     0.97962   0.54438   0.63672   0.00000  Uiso   1.00
H1480  H     0.93070   0.55385   0.61642   0.00000  Uiso   1.00
H1481  H     0.70248   0.54292   0.55386   0.00000  Uiso   1.00
H1482  H     0.98570   0.55390   0.53424   0.00000  Uiso   1.00
H1483  H     0.97118   0.62110   0.57772   0.00000  Uiso   1.00
H1484  H     0.95551   0.43002   0.95818   0.00000  Uiso   1.00
H1485  H     0.69835   0.61854   0.53785   0.00000  Uiso   1.00
H1486  H     0.68666   0.61001   0.59926   0.00000  Uiso   1.00
H1487  H     0.70619   0.57819   0.86469   0.00000  Uiso   1.00
H1488  H     0.75981   0.57260   0.87816   0.00000  Uiso   1.00
H1489  H     0.99193   0.58419   0.95062   0.00000  Uiso   1.00
H1490  H     0.71407   0.58212   0.96290   0.00000  Uiso   1.00
H1491  H     0.74275   0.64625   0.91480   0.00000  Uiso   1.00
H1492  H     0.68677   0.65542   0.96084   0.00000  Uiso   1.00
H1493  H     0.68755   0.64851   0.90170   0.00000  Uiso   1.00
H1494  H     0.80323   0.38863   0.58963   0.00000  Uiso   1.00
H1495  H     0.80797   0.48705   0.61031   0.00000  Uiso   1.00
H1496  H     0.74601   0.37614   0.58320   0.00000  Uiso   1.00
H1497  H     0.76352   0.40093   0.67422   0.00000  Uiso   1.00
H1498  H     0.70608   0.38965   0.66868   0.00000  Uiso   1.00
H1499  H     0.73495   0.65036   0.64107   0.00000  Uiso   1.00
H1500  H     0.73716   0.66122   0.69848   0.00000  Uiso   1.00
H1501  H     0.79151   0.66218   0.64891   0.00000  Uiso   1.00
H1502  H     0.87773   0.38096   0.86978   0.00000  Uiso   1.00
H1503  H     0.84583   0.37760   0.93079   0.00000  Uiso   1.00
H1504  H     0.95261   0.35519   0.88212   0.00000  Uiso   1.00
H1505  H     0.92063   0.35031   0.94376   0.00000  Uiso   1.00
H1506  H     0.85620   0.47234   0.88679   0.00000  Uiso   1.00
H1507  H     0.86465   0.63227   0.92724   0.00000  Uiso   1.00
H1508  H     0.92606   0.61536   0.90384   0.00000  Uiso   1.00
H1509  H     0.89702   0.63698   0.86530   0.00000  Uiso   1.00
H1510  H     0.68943   0.49951   0.98424   0.00000  Uiso   1.00
H1511  H     0.97624   0.45208   0.52556   0.00000  Uiso   1.00
H1512  H     0.91055   0.62881   0.72009   0.00000  Uiso   1.00
H1513  H     0.75602   0.37119   0.78027   0.00000  Uiso   1.00
H1514  H     0.91057   0.37115   0.72016   0.00000  Uiso   1.00
N1515  N     0.71426   0.50001   0.75001   0.00000  Uiso   1.00
N1516  N     0.95241   0.49999   0.74999   0.00000  Uiso   1.00
O1517  O     0.79512   0.56108   0.75000   0.00000  Uiso   1.00
O1518  O     0.70902   0.52343   0.89893   0.00000  Uiso   1.00
O1519  O     0.75492   0.43821   0.59872   0.00000  Uiso   1.00
O1520  O     0.90072   0.42333   0.90789   0.00000  Uiso   1.00
O1521  O     0.87154   0.43892   0.74999   0.00000  Uiso   1.00
O1522  O     0.87157   0.56107   0.75000   0.00000  Uiso   1.00
O1523  O     0.79510   0.43893   0.75000   0.00000  Uiso   1.00
O1524  O     0.77328   0.50001   0.81612   0.00000  Uiso   1.00
O1525  O     0.89339   0.49999   0.68387   0.00000  Uiso   1.00
O1526  O     0.84972   0.50000   0.81612   0.00000  Uiso   1.00
O1527  O     0.81695   0.50000   0.68388   0.00000  Uiso   1.00
O1528  O     0.96428   0.49399   0.60273   0.00000  Uiso   1.00
Zn1529 Zn    0.78229   0.50001   0.75000   0.00000  Uiso   1.00
Zn1530 Zn    0.88438   0.49999   0.75000   0.00000  Uiso   1.00
C1531  C     0.16663   0.91329   0.75008   0.00000  Uiso   1.00
C1532  C     0.12308   0.97860   0.76707   0.00000  Uiso   1.00
C1533  C     0.16664   0.70921   0.75019   0.00000  Uiso   1.00
C1534  C     0.16660   0.95745   0.75023   0.00000  Uiso   1.00
C1535  C     0.32191   0.81694   0.71345   0.00000  Uiso   1.00
C1536  C     0.01138   0.84957   0.78661   0.00000  Uiso   1.00
C1537  C     0.03641   0.81724   0.71334   0.00000  Uiso   1.00
C1538  C     0.29693   0.84970   0.78656   0.00000  Uiso   1.00
C1539  C     0.13746   0.83294   0.83798   0.00000  Uiso   1.00
C1540  C     0.19602   0.83217   0.66186   0.00000  Uiso   1.00
C1541  C     0.12102   0.82686   0.88847   0.00000  Uiso   1.00
C1542  C     0.16666   0.75337   0.75004   0.00000  Uiso   1.00
C1543  C     0.21252   0.82189   0.61190   0.00000  Uiso   1.00
C1544  C     0.05857   0.82459   0.96320   0.00000  Uiso   1.00
C1545  C     0.27324   0.79449   0.54342   0.00000  Uiso   1.00
C1546  C     0.07415   0.83675   0.91659   0.00000  Uiso   1.00
C1547  C     0.26132   0.81591   0.58590   0.00000  Uiso   1.00
C1548  C     0.15279   0.80886   0.90838   0.00000  Uiso   1.00
C1549  C     0.17787   0.81179   0.59191   0.00000  Uiso   1.00
C1550  C     0.13791   0.79723   0.95546   0.00000  Uiso   1.00
C1551  C     0.19006   0.79285   0.54810   0.00000  Uiso   1.00
C1552  C     0.08968   0.80489   0.98283   0.00000  Uiso   1.00
C1553  C     0.10594   0.78300   0.55212   0.00000  Uiso   1.00
C1554  C     0.23857   0.78552   0.52302   0.00000  Uiso   1.00
C1555  C     0.17056   0.78308   0.97758   0.00000  Uiso   1.00
C1556  C     0.15542   0.78521   0.52675   0.00000  Uiso   1.00
C1557  C     0.29943   0.87143   0.60740   0.00000  Uiso   1.00
C1558  C     0.00026   0.89147   0.56317   0.00000  Uiso   1.00
C1559  C     0.00603   0.93817   0.57005   0.00000  Uiso   1.00
C1560  C     0.05394   0.89982   0.89178   0.00000  Uiso   1.00
C1561  C     0.03075   0.92469   0.93659   0.00000  Uiso   1.00
C1562  C     0.03746   0.97163   0.92779   0.00000  Uiso   1.00
C1563  C     0.09750   0.72861   0.60293   0.00000  Uiso   1.00
C1564  C     0.21847   0.77000   0.95377   0.00000  Uiso   1.00
C1565  C     0.07827   0.71596   0.65439   0.00000  Uiso   1.00
C1566  C     0.08604   0.66951   0.66094   0.00000  Uiso   1.00
C1567  C     0.21531   0.71656   0.90468   0.00000  Uiso   1.00
C1568  C     0.25029   0.68260   0.90856   0.00000  Uiso   1.00
C1569  C     0.23330   0.97247   0.90072   0.00000  Uiso   1.00
C1570  C     0.07371   0.79416   0.53002   0.00000  Uiso   1.00
C1571  C     0.25189   0.77112   0.97710   0.00000  Uiso   1.00
C1572  C     0.21013   0.97859   0.73355   0.00000  Uiso   1.00
C1573  C     0.12310   0.68807   0.76696   0.00000  Uiso   1.00
C1574  C     0.21015   0.68805   0.73356   0.00000  Uiso   1.00
H1575  H     0.03663   0.79615   0.55065   0.00000  Uiso   1.00
H1576  H     0.08935   0.96214   0.78052   0.00000  Uiso   1.00
H1577  H     0.31400   0.80360   0.68421   0.00000  Uiso   1.00
H1578  H     0.01924   0.86253   0.81596   0.00000  Uiso   1.00
H1579  H     0.06443   0.80465   0.68385   0.00000  Uiso   1.00
H1580  H     0.26901   0.86290   0.81587   0.00000  Uiso   1.00
H1581  H     0.31295   0.87772   0.63672   0.00000  Uiso   1.00
H1582  H     0.26403   0.88719   0.61642   0.00000  Uiso   1.00
H1583  H     0.03582   0.87625   0.55386   0.00000  Uiso   1.00
H1584  H     0.31903   0.88724   0.53424   0.00000  Uiso   1.00
H1585  H     0.30451   0.95443   0.57772   0.00000  Uiso   1.00
H1586  H     0.28884   0.76335   0.95818   0.00000  Uiso   1.00
H1587  H     0.03169   0.95187   0.53785   0.00000  Uiso   1.00
H1588  H     0.01999   0.94334   0.59926   0.00000  Uiso   1.00
H1589  H     0.03952   0.91152   0.86469   0.00000  Uiso   1.00
H1590  H     0.09315   0.90594   0.87816   0.00000  Uiso   1.00
H1591  H     0.32526   0.91752   0.95062   0.00000  Uiso   1.00
H1592  H     0.04740   0.91545   0.96290   0.00000  Uiso   1.00
H1593  H     0.07608   0.97959   0.91480   0.00000  Uiso   1.00
H1594  H     0.02010   0.98875   0.96084   0.00000  Uiso   1.00
H1595  H     0.02089   0.98185   0.90170   0.00000  Uiso   1.00
H1596  H     0.13656   0.72196   0.58963   0.00000  Uiso   1.00
H1597  H     0.14131   0.82039   0.61031   0.00000  Uiso   1.00
H1598  H     0.07934   0.70947   0.58320   0.00000  Uiso   1.00
H1599  H     0.09686   0.73426   0.67422   0.00000  Uiso   1.00
H1600  H     0.03941   0.72299   0.66868   0.00000  Uiso   1.00
H1601  H     0.06829   0.98370   0.64107   0.00000  Uiso   1.00
H1602  H     0.07049   0.99455   0.69848   0.00000  Uiso   1.00
H1603  H     0.12484   0.99552   0.64891   0.00000  Uiso   1.00
H1604  H     0.21106   0.71429   0.86978   0.00000  Uiso   1.00
H1605  H     0.17916   0.71094   0.93079   0.00000  Uiso   1.00
H1606  H     0.28594   0.68852   0.88212   0.00000  Uiso   1.00
H1607  H     0.25397   0.68364   0.94376   0.00000  Uiso   1.00
H1608  H     0.18953   0.80568   0.88679   0.00000  Uiso   1.00
H1609  H     0.19798   0.96560   0.92724   0.00000  Uiso   1.00
H1610  H     0.25940   0.94869   0.90384   0.00000  Uiso   1.00
H1611  H     0.23035   0.97031   0.86530   0.00000  Uiso   1.00
H1612  H     0.02276   0.83284   0.98424   0.00000  Uiso   1.00
H1613  H     0.30957   0.78541   0.52556   0.00000  Uiso   1.00
H1614  H     0.24388   0.96214   0.72009   0.00000  Uiso   1.00
H1615  H     0.08935   0.70453   0.78027   0.00000  Uiso   1.00
H1616  H     0.24391   0.70449   0.72016   0.00000  Uiso   1.00
N1617  N     0.04759   0.83334   0.75001   0.00000  Uiso   1.00
N1618  N     0.28574   0.83332   0.74999   0.00000  Uiso   1.00
O1619  O     0.12846   0.89442   0.75000   0.00000  Uiso   1.00
O1620  O     0.04236   0.85676   0.89893   0.00000  Uiso   1.00
O1621  O     0.08825   0.77154   0.59872   0.00000  Uiso   1.00
O1622  O     0.23405   0.75667   0.90789   0.00000  Uiso   1.00
O1623  O     0.20488   0.77225   0.74999   0.00000  Uiso   1.00
O1624  O     0.20490   0.89441   0.75000   0.00000  Uiso   1.00
O1625  O     0.12843   0.77226   0.75000   0.00000  Uiso   1.00
O1626  O     0.10661   0.83334   0.81612   0.00000  Uiso   1.00
O1627  O     0.22672   0.83333   0.68387   0.00000  Uiso   1.00
O1628  O     0.18305   0.83333   0.81612   0.00000  Uiso   1.00
O1629  O     0.15028   0.83334   0.68388   0.00000  Uiso   1.00
O1630  O     0.29761   0.82732   0.60273   0.00000  Uiso   1.00
Zn1631 Zn    0.11562   0.83334   0.75000   0.00000  Uiso   1.00
Zn1632 Zn    0.21771   0.83333   0.75000   0.00000  Uiso   1.00
C1633  C     0.49996   0.91329   0.75008   0.00000  Uiso   1.00
C1634  C     0.45642   0.97860   0.76707   0.00000  Uiso   1.00
C1635  C     0.49997   0.70921   0.75019   0.00000  Uiso   1.00
C1636  C     0.49993   0.95745   0.75023   0.00000  Uiso   1.00
C1637  C     0.65525   0.81694   0.71345   0.00000  Uiso   1.00
C1638  C     0.34472   0.84957   0.78661   0.00000  Uiso   1.00
C1639  C     0.36975   0.81724   0.71334   0.00000  Uiso   1.00
C1640  C     0.63027   0.84970   0.78656   0.00000  Uiso   1.00
C1641  C     0.47079   0.83294   0.83798   0.00000  Uiso   1.00
C1642  C     0.52935   0.83217   0.66186   0.00000  Uiso   1.00
C1643  C     0.45435   0.82686   0.88847   0.00000  Uiso   1.00
C1644  C     0.49999   0.75337   0.75004   0.00000  Uiso   1.00
C1645  C     0.54586   0.82189   0.61190   0.00000  Uiso   1.00
C1646  C     0.39191   0.82459   0.96320   0.00000  Uiso   1.00
C1647  C     0.60657   0.79449   0.54342   0.00000  Uiso   1.00
C1648  C     0.40749   0.83675   0.91659   0.00000  Uiso   1.00
C1649  C     0.59465   0.81591   0.58590   0.00000  Uiso   1.00
C1650  C     0.48612   0.80886   0.90838   0.00000  Uiso   1.00
C1651  C     0.51121   0.81179   0.59191   0.00000  Uiso   1.00
C1652  C     0.47125   0.79723   0.95546   0.00000  Uiso   1.00
C1653  C     0.52340   0.79285   0.54810   0.00000  Uiso   1.00
C1654  C     0.42301   0.80489   0.98283   0.00000  Uiso   1.00
C1655  C     0.43928   0.78300   0.55212   0.00000  Uiso   1.00
C1656  C     0.57191   0.78552   0.52302   0.00000  Uiso   1.00
C1657  C     0.50389   0.78308   0.97758   0.00000  Uiso   1.00
C1658  C     0.48875   0.78521   0.52675   0.00000  Uiso   1.00
C1659  C     0.63277   0.87143   0.60740   0.00000  Uiso   1.00
C1660  C     0.33359   0.89147   0.56317   0.00000  Uiso   1.00
C1661  C     0.33937   0.93817   0.57005   0.00000  Uiso   1.00
C1662  C     0.38727   0.89982   0.89178   0.00000  Uiso   1.00
C1663  C     0.36408   0.92469   0.93659   0.00000  Uiso   1.00
C1664  C     0.37079   0.97163   0.92779   0.00000  Uiso   1.00
C1665  C     0.43083   0.72861   0.60293   0.00000  Uiso   1.00
C1666  C     0.55180   0.77000   0.95377   0.00000  Uiso   1.00
C1667  C     0.41160   0.71596   0.65439   0.00000  Uiso   1.00
C1668  C     0.41938   0.66951   0.66094   0.00000  Uiso   1.00
C1669  C     0.54864   0.71656   0.90468   0.00000  Uiso   1.00
C1670  C     0.58362   0.68260   0.90856   0.00000  Uiso   1.00
C1671  C     0.56663   0.97247   0.90072   0.00000  Uiso   1.00
C1672  C     0.40705   0.79416   0.53002   0.00000  Uiso   1.00
C1673  C     0.58523   0.77112   0.97710   0.00000  Uiso   1.00
C1674  C     0.54347   0.97859   0.73355   0.00000  Uiso   1.00
C1675  C     0.45643   0.68807   0.76696   0.00000  Uiso   1.00
C1676  C     0.54349   0.68805   0.73356   0.00000  Uiso   1.00
H1677  H     0.36997   0.79615   0.55065   0.00000  Uiso   1.00
H1678  H     0.42268   0.96214   0.78052   0.00000  Uiso   1.00
H1679  H     0.64734   0.80360   0.68421   0.00000  Uiso   1.00
H1680  H     0.35257   0.86253   0.81596   0.00000  Uiso   1.00
H1681  H     0.39777   0.80465   0.68385   0.00000  Uiso   1.00
H1682  H     0.60234   0.86290   0.81587   0.00000  Uiso   1.00
H1683  H     0.64629   0.87772   0.63672   0.00000  Uiso   1.00
H1684  H     0.59736   0.88719   0.61642   0.00000  Uiso   1.00
H1685  H     0.36915   0.87625   0.55386   0.00000  Uiso   1.00
H1686  H     0.65236   0.88724   0.53424   0.00000  Uiso   1.00
H1687  H     0.63784   0.95443   0.57772   0.00000  Uiso   1.00
H1688  H     0.62217   0.76335   0.95818   0.00000  Uiso   1.00
H1689  H     0.36502   0.95187   0.53785   0.00000  Uiso   1.00
H1690  H     0.35333   0.94334   0.59926   0.00000  Uiso   1.00
H1691  H     0.37286   0.91152   0.86469   0.00000  Uiso   1.00
H1692  H     0.42648   0.90594   0.87816   0.00000  Uiso   1.00
H1693  H     0.65859   0.91752   0.95062   0.00000  Uiso   1.00
H1694  H     0.38073   0.91545   0.96290   0.00000  Uiso   1.00
H1695  H     0.40942   0.97959   0.91480   0.00000  Uiso   1.00
H1696  H     0.35344   0.98875   0.96084   0.00000  Uiso   1.00
H1697  H     0.35422   0.98185   0.90170   0.00000  Uiso   1.00
H1698  H     0.46989   0.72196   0.58963   0.00000  Uiso   1.00
H1699  H     0.47464   0.82039   0.61031   0.00000  Uiso   1.00
H1700  H     0.41267   0.70947   0.58320   0.00000  Uiso   1.00
H1701  H     0.43019   0.73426   0.67422   0.00000  Uiso   1.00
H1702  H     0.37274   0.72299   0.66868   0.00000  Uiso   1.00
H1703  H     0.40162   0.98370   0.64107   0.00000  Uiso   1.00
H1704  H     0.40382   0.99455   0.69848   0.00000  Uiso   1.00
H1705  H     0.45817   0.99552   0.64891   0.00000  Uiso   1.00
H1706  H     0.54440   0.71429   0.86978   0.00000  Uiso   1.00
H1707  H     0.51249   0.71094   0.93079   0.00000  Uiso   1.00
H1708  H     0.61928   0.68852   0.88212   0.00000  Uiso   1.00
H1709  H     0.58730   0.68364   0.94376   0.00000  Uiso   1.00
H1710  H     0.52287   0.80568   0.88679   0.00000  Uiso   1.00
H1711  H     0.53132   0.96560   0.92724   0.00000  Uiso   1.00
H1712  H     0.59273   0.94869   0.90384   0.00000  Uiso   1.00
H1713  H     0.56369   0.97031   0.86530   0.00000  Uiso   1.00
H1714  H     0.35610   0.83284   0.98424   0.00000  Uiso   1.00
H1715  H     0.64291   0.78541   0.52556   0.00000  Uiso   1.00
H1716  H     0.57721   0.96214   0.72009   0.00000  Uiso   1.00
H1717  H     0.42268   0.70453   0.78027   0.00000  Uiso   1.00
H1718  H     0.57724   0.70449   0.72016   0.00000  Uiso   1.00
N1719  N     0.38093   0.83334   0.75001   0.00000  Uiso   1.00
N1720  N     0.61907   0.83332   0.74999   0.00000  Uiso   1.00
O1721  O     0.46179   0.89442   0.75000   0.00000  Uiso   1.00
O1722  O     0.37569   0.85676   0.89893   0.00000  Uiso   1.00
O1723  O     0.42159   0.77154   0.59872   0.00000  Uiso   1.00
O1724  O     0.56739   0.75667   0.90789   0.00000  Uiso   1.00
O1725  O     0.53821   0.77225   0.74999   0.00000  Uiso   1.00
O1726  O     0.53823   0.89441   0.75000   0.00000  Uiso   1.00
O1727  O     0.46177   0.77226   0.75000   0.00000  Uiso   1.00
O1728  O     0.43994   0.83334   0.81612   0.00000  Uiso   1.00
O1729  O     0.56006   0.83333   0.68387   0.00000  Uiso   1.00
O1730  O     0.51639   0.83333   0.81612   0.00000  Uiso   1.00
O1731  O     0.48361   0.83334   0.68388   0.00000  Uiso   1.00
O1732  O     0.63094   0.82732   0.60273   0.00000  Uiso   1.00
Zn1733 Zn    0.44896   0.83334   0.75000   0.00000  Uiso   1.00
Zn1734 Zn    0.55104   0.83333   0.75000   0.00000  Uiso   1.00
C1735  C     0.83330   0.91329   0.75008   0.00000  Uiso   1.00
C1736  C     0.78975   0.97860   0.76707   0.00000  Uiso   1.00
C1737  C     0.83330   0.70921   0.75019   0.00000  Uiso   1.00
C1738  C     0.83326   0.95745   0.75023   0.00000  Uiso   1.00
C1739  C     0.98858   0.81694   0.71345   0.00000  Uiso   1.00
C1740  C     0.67805   0.84957   0.78661   0.00000  Uiso   1.00
C1741  C     0.70308   0.81724   0.71334   0.00000  Uiso   1.00
C1742  C     0.96360   0.84970   0.78656   0.00000  Uiso   1.00
C1743  C     0.80413   0.83294   0.83798   0.00000  Uiso   1.00
C1744  C     0.86269   0.83217   0.66186   0.00000  Uiso   1.00
C1745  C     0.78769   0.82686   0.88847   0.00000  Uiso   1.00
C1746  C     0.83333   0.75337   0.75004   0.00000  Uiso   1.00
C1747  C     0.87919   0.82189   0.61190   0.00000  Uiso   1.00
C1748  C     0.72524   0.82459   0.96320   0.00000  Uiso   1.00
C1749  C     0.93990   0.79449   0.54342   0.00000  Uiso   1.00
C1750  C     0.74082   0.83675   0.91659   0.00000  Uiso   1.00
C1751  C     0.92798   0.81591   0.58590   0.00000  Uiso   1.00
C1752  C     0.81945   0.80886   0.90838   0.00000  Uiso   1.00
C1753  C     0.84454   0.81179   0.59191   0.00000  Uiso   1.00
C1754  C     0.80458   0.79723   0.95546   0.00000  Uiso   1.00
C1755  C     0.85673   0.79285   0.54810   0.00000  Uiso   1.00
C1756  C     0.75634   0.80489   0.98283   0.00000  Uiso   1.00
C1757  C     0.77261   0.78300   0.55212   0.00000  Uiso   1.00
C1758  C     0.90524   0.78552   0.52302   0.00000  Uiso   1.00
C1759  C     0.83723   0.78308   0.97758   0.00000  Uiso   1.00
C1760  C     0.82209   0.78521   0.52675   0.00000  Uiso   1.00
C1761  C     0.96610   0.87143   0.60740   0.00000  Uiso   1.00
C1762  C     0.66692   0.89147   0.56317   0.00000  Uiso   1.00
C1763  C     0.67270   0.93817   0.57005   0.00000  Uiso   1.00
C1764  C     0.72061   0.89982   0.89178   0.00000  Uiso   1.00
C1765  C     0.69742   0.92469   0.93659   0.00000  Uiso   1.00
C1766  C     0.70412   0.97163   0.92779   0.00000  Uiso   1.00
C1767  C     0.76416   0.72861   0.60293   0.00000  Uiso   1.00
C1768  C     0.88513   0.77000   0.95377   0.00000  Uiso   1.00
C1769  C     0.74493   0.71596   0.65439   0.00000  Uiso   1.00
C1770  C     0.75271   0.66951   0.66094   0.00000  Uiso   1.00
C1771  C     0.88198   0.71656   0.90468   0.00000  Uiso   1.00
C1772  C     0.91695   0.68260   0.90856   0.00000  Uiso   1.00
C1773  C     0.89997   0.97247   0.90072   0.00000  Uiso   1.00
C1774  C     0.74038   0.79416   0.53002   0.00000  Uiso   1.00
C1775  C     0.91856   0.77112   0.97710   0.00000  Uiso   1.00
C1776  C     0.87680   0.97859   0.73355   0.00000  Uiso   1.00
C1777  C     0.78976   0.68807   0.76696   0.00000  Uiso   1.00
C1778  C     0.87682   0.68805   0.73356   0.00000  Uiso   1.00
H1779  H     0.70330   0.79615   0.55065   0.00000  Uiso   1.00
H1780  H     0.75601   0.96214   0.78052   0.00000  Uiso   1.00
H1781  H     0.98067   0.80360   0.68421   0.00000  Uiso   1.00
H1782  H     0.68591   0.86253   0.81596   0.00000  Uiso   1.00
H1783  H     0.73110   0.80465   0.68385   0.00000  Uiso   1.00
H1784  H     0.93567   0.86290   0.81587   0.00000  Uiso   1.00
H1785  H     0.97962   0.87772   0.63672   0.00000  Uiso   1.00
H1786  H     0.93070   0.88719   0.61642   0.00000  Uiso   1.00
H1787  H     0.70248   0.87625   0.55386   0.00000  Uiso   1.00
H1788  H     0.98570   0.88724   0.53424   0.00000  Uiso   1.00
H1789  H     0.97118   0.95443   0.57772   0.00000  Uiso   1.00
H1790  H     0.95551   0.76335   0.95818   0.00000  Uiso   1.00
H1791  H     0.69835   0.95187   0.53785   0.00000  Uiso   1.00
H1792  H     0.68666   0.94334   0.59926   0.00000  Uiso   1.00
H1793  H     0.70619   0.91152   0.86469   0.00000  Uiso   1.00
H1794  H     0.75981   0.90594   0.87816   0.00000  Uiso   1.00
H1795  H     0.99193   0.91752   0.95062   0.00000  Uiso   1.00
H1796  H     0.71407   0.91545   0.96290   0.00000  Uiso   1.00
H1797  H     0.74275   0.97959   0.91480   0.00000  Uiso   1.00
H1798  H     0.68677   0.98875   0.96084   0.00000  Uiso   1.00
H1799  H     0.68755   0.98185   0.90170   0.00000  Uiso   1.00
H1800  H     0.80323   0.72196   0.58963   0.00000  Uiso   1.00
H1801  H     0.80797   0.82039   0.61031   0.00000  Uiso   1.00
H1802  H     0.74601   0.70947   0.58320   0.00000  Uiso   1.00
H1803  H     0.76352   0.73426   0.67422   0.00000  Uiso   1.00
H1804  H     0.70608   0.72299   0.66868   0.00000  Uiso   1.00
H1805  H     0.73495   0.98370   0.64107   0.00000  Uiso   1.00
H1806  H     0.73716   0.99455   0.69848   0.00000  Uiso   1.00
H1807  H     0.79151   0.99552   0.64891   0.00000  Uiso   1.00
H1808  H     0.87773   0.71429   0.86978   0.00000  Uiso   1.00
H1809  H     0.84583   0.71094   0.93079   0.00000  Uiso   1.00
H1810  H     0.95261   0.68852   0.88212   0.00000  Uiso   1.00
H1811  H     0.92063   0.68364   0.94376   0.00000  Uiso   1.00
H1812  H     0.85620   0.80568   0.88679   0.00000  Uiso   1.00
H1813  H     0.86465   0.96560   0.92724   0.00000  Uiso   1.00
H1814  H     0.92606   0.94869   0.90384   0.00000  Uiso   1.00
H1815  H     0.89702   0.97031   0.86530   0.00000  Uiso   1.00
H1816  H     0.68943   0.83284   0.98424   0.00000  Uiso   1.00
H1817  H     0.97624   0.78541   0.52556   0.00000  Uiso   1.00
H1818  H     0.91055   0.96214   0.72009   0.00000  Uiso   1.00
H1819  H     0.75602   0.70453   0.78027   0.00000  Uiso   1.00
H1820  H     0.91057   0.70449   0.72016   0.00000  Uiso   1.00
N1821  N     0.71426   0.83334   0.75001   0.00000  Uiso   1.00
N1822  N     0.95241   0.83332   0.74999   0.00000  Uiso   1.00
O1823  O     0.79512   0.89442   0.75000   0.00000  Uiso   1.00
O1824  O     0.70902   0.85676   0.89893   0.00000  Uiso   1.00
O1825  O     0.75492   0.77154   0.59872   0.00000  Uiso   1.00
O1826  O     0.90072   0.75667   0.90789   0.00000  Uiso   1.00
O1827  O     0.87154   0.77225   0.74999   0.00000  Uiso   1.00
O1828  O     0.87157   0.89441   0.75000   0.00000  Uiso   1.00
O1829  O     0.79510   0.77226   0.75000   0.00000  Uiso   1.00
O1830  O     0.77328   0.83334   0.81612   0.00000  Uiso   1.00
O1831  O     0.89339   0.83333   0.68387   0.00000  Uiso   1.00
O1832  O     0.84972   0.83333   0.81612   0.00000  Uiso   1.00
O1833  O     0.81695   0.83334   0.68388   0.00000  Uiso   1.00
O1834  O     0.96428   0.82732   0.60273   0.00000  Uiso   1.00
Zn1835 Zn    0.78229   0.83334   0.75000   0.00000  Uiso   1.00
Zn1836 Zn    0.88438   0.83333   0.75000   0.00000  Uiso   1.00
loop_
_geom_bond_atom_site_label_1
_geom_bond_atom_site_label_2
_geom_bond_distance
_geom_bond_site_symmetry_2
_ccdc_geom_bond_type
C1     O94     1.285   .     A
C1     O89     1.286   .     A
C1     C4      1.413   .     S
C2     H46     1.084   .     S
C2     C4      1.396   .     A
C2     C349    1.370   .     S
C3     C43     1.396   .     A
C3     C12     1.413   .     S
C3     C44     1.396   .     A
C4     C42     1.396   .     A
C5     H47     1.081   .     S
C5     N88     1.368   .     A
C5     C109    1.419   .     S
C6     H48     1.079   .     S
C6     N87     1.367   .     A
C6     C212    1.419   1_455 S
C7     N87     1.367   .     A
C7     H49     1.079   .     S
C7     C209    1.419   1_455 S
C8     N88     1.367   .     A
C8     H50     1.082   .     S
C8     C108    1.419   .     S
C9     O98     1.294   .     A
C9     C11     1.459   .     S
C9     O96     1.298   .     A
C10    O97     1.298   .     A
C10    C13     1.470   .     S
C10    O99     1.299   .     A
C11    C18     1.400   .     A
C11    C16     1.406   .     A
C12    O95     1.285   .     A
C12    O93     1.286   .     A
C13    C19     1.396   .     A
C13    C17     1.413   .     A
C14    C16     1.390   .     A
C14    H82     1.076   .     S
C14    C22     1.402   .     A
C15    C24     1.397   .     A
C15    C17     1.401   .     A
C15    H83     1.074   .     S
C16    O90     1.386   .     S
C17    O100    1.387   .     S
C18    H78     1.075   .     S
C18    C20     1.399   .     A
C19    C21     1.398   .     A
C19    H67     1.078   .     S
C20    C25     1.423   .     A
C20    C22     1.418   .     A
C21    C26     1.409   .     A
C21    C24     1.407   .     A
C22    C958    1.394   .     S
C23    O91     1.385   .     S
C23    C40     1.385   .     A
C23    C26     1.415   .     A
C24    C959    1.398   1_554 S
C25    C34     1.427   .     A
C25    C944    1.412   .     S
C26    C943    1.412   1_554 S
C27    H51     1.111   .     S
C27    O100    1.422   .     S
C27    H52     1.114   .     S
C27    C130    1.528   .     S
C28    C29     1.527   .     S
C28    H53     1.110   .     S
C28    C231    1.528   1_455 S
C28    H258    1.110   1_455 S
C29    H57     1.110   .     S
C29    H58     1.111   .     S
C29    H259    1.111   1_455 S
C30    O90     1.419   .     S
C30    H60     1.115   .     S
C30    H59     1.110   .     S
C30    C31     1.531   .     S
C31    H62     1.110   .     S
C31    C32     1.526   .     S
C31    H265    1.112   1_455 S
C32    H64     1.110   .     S
C32    H63     1.111   .     S
C32    H65     1.111   .     S
C33    H68     1.115   .     S
C33    O91     1.414   .     S
C33    H66     1.114   .     S
C33    C35     1.529   .     S
C34    C41     1.398   .     A
C34    O92     1.384   .     S
C35    C36     1.526   .     S
C35    H70     1.112   .     S
C35    H69     1.112   .     S
C36    H683    1.110   1_545 S
C36    H684    1.110   1_545 S
C36    H685    1.111   1_545 S
C37    H74     1.111   .     S
C37    H75     1.116   .     S
C37    C38     1.533   .     S
C37    O92     1.416   .     S
C38    H76     1.112   .     S
C38    H77     1.111   .     S
C38    C651    1.526   1_545 S
C39    H79     1.111   .     S
C39    H81     1.111   .     S
C39    H80     1.111   .     S
C39    C344    1.526   .     S
C40    H45     1.072   .     S
C40    C940    1.394   1_554 S
C41    H56     1.084   .     S
C41    C942    1.398   .     S
C42    H84     1.084   .     S
C42    C350    1.369   .     S
C43    H85     1.084   .     S
C43    C614    1.370   1_545 S
C44    H86     1.084   .     S
C44    C654    1.369   1_545 S
H54    C130    1.110   .     S
H55    C131    1.111   .     S
H61    C133    1.112   .     S
H71    C342    1.110   .     S
H72    C342    1.110   .     S
H73    C342    1.111   .     S
N87    Zn101   2.019   .     S
N88    Zn102   2.019   .     S
O89    Zn101   1.992   .     S
O93    Zn102   1.992   .     S
O94    Zn102   1.990   .     S
O95    Zn101   1.990   .     S
O96    Zn101   1.937   .     S
O97    Zn102   1.937   .     S
O98    Zn102   1.929   .     S
O99    Zn101   1.929   .     S
C103   O196    1.285   .     A
C103   O191    1.286   .     A
C103   C106    1.413   .     S
C104   H148    1.084   .     S
C104   C106    1.396   .     A
C104   C451    1.370   .     S
C105   C145    1.396   .     A
C105   C114    1.413   .     S
C105   C146    1.396   .     A
C106   C144    1.396   .     A
C107   H149    1.081   .     S
C107   N190    1.368   .     A
C107   C211    1.419   .     S
C108   H150    1.079   .     S
C108   N189    1.367   .     A
C109   N189    1.367   .     A
C109   H151    1.079   .     S
C110   N190    1.367   .     A
C110   H152    1.082   .     S
C110   C210    1.419   .     S
C111   O200    1.294   .     A
C111   C113    1.459   .     S
C111   O198    1.298   .     A
C112   O199    1.298   .     A
C112   C115    1.470   .     S
C112   O201    1.299   .     A
C113   C120    1.400   .     A
C113   C118    1.406   .     A
C114   O197    1.285   .     A
C114   O195    1.286   .     A
C115   C121    1.396   .     A
C115   C119    1.413   .     A
C116   C118    1.390   .     A
C116   H184    1.076   .     S
C116   C124    1.402   .     A
C117   C126    1.397   .     A
C117   C119    1.401   .     A
C117   H185    1.074   .     S
C118   O192    1.386   .     S
C119   O202    1.387   .     S
C120   H180    1.075   .     S
C120   C122    1.399   .     A
C121   C123    1.398   .     A
C121   H169    1.078   .     S
C122   C127    1.423   .     A
C122   C124    1.418   .     A
C123   C128    1.409   .     A
C123   C126    1.407   .     A
C124   C1060   1.394   .     S
C125   O193    1.385   .     S
C125   C142    1.385   .     A
C125   C128    1.415   .     A
C126   C1061   1.398   1_554 S
C127   C136    1.427   .     A
C127   C1046   1.412   .     S
C128   C1045   1.412   1_554 S
C129   H153    1.111   .     S
C129   O202    1.422   .     S
C129   H154    1.114   .     S
C129   C232    1.528   .     S
C130   C131    1.527   .     S
C130   H155    1.110   .     S
C131   H159    1.110   .     S
C131   H160    1.111   .     S
C132   O192    1.419   .     S
C132   H162    1.115   .     S
C132   H161    1.110   .     S
C132   C133    1.531   .     S
C133   H164    1.110   .     S
C133   C134    1.526   .     S
C134   H166    1.110   .     S
C134   H165    1.111   .     S
C134   H167    1.111   .     S
C135   H170    1.115   .     S
C135   O193    1.414   .     S
C135   H168    1.114   .     S
C135   C137    1.529   .     S
C136   C143    1.398   .     A
C136   O194    1.384   .     S
C137   C138    1.526   .     S
C137   H172    1.112   .     S
C137   H171    1.112   .     S
C138   H785    1.110   1_545 S
C138   H786    1.110   1_545 S
C138   H787    1.111   1_545 S
C139   H176    1.111   .     S
C139   H177    1.116   .     S
C139   C140    1.533   .     S
C139   O194    1.416   .     S
C140   H178    1.112   .     S
C140   H179    1.111   .     S
C140   C753    1.526   1_545 S
C141   H181    1.111   .     S
C141   H183    1.111   .     S
C141   H182    1.111   .     S
C141   C446    1.526   .     S
C142   H147    1.072   .     S
C142   C1042   1.394   1_554 S
C143   H158    1.084   .     S
C143   C1044   1.398   .     S
C144   H186    1.084   .     S
C144   C452    1.369   .     S
C145   H187    1.084   .     S
C145   C716    1.370   1_545 S
C146   H188    1.084   .     S
C146   C756    1.369   1_545 S
H156   C232    1.110   .     S
H157   C233    1.111   .     S
H163   C235    1.112   .     S
H173   C444    1.110   .     S
H174   C444    1.110   .     S
H175   C444    1.111   .     S
N189   Zn203   2.019   .     S
N190   Zn204   2.019   .     S
O191   Zn203   1.992   .     S
O195   Zn204   1.992   .     S
O196   Zn204   1.990   .     S
O197   Zn203   1.990   .     S
O198   Zn203   1.937   .     S
O199   Zn204   1.937   .     S
O200   Zn204   1.929   .     S
O201   Zn203   1.929   .     S
C205   O298    1.285   .     A
C205   O293    1.286   .     A
C205   C208    1.413   .     S
C206   H250    1.084   .     S
C206   C208    1.396   .     A
C206   C553    1.370   .     S
C207   C247    1.396   .     A
C207   C216    1.413   .     S
C207   C248    1.396   .     A
C208   C246    1.396   .     A
C209   H251    1.081   .     S
C209   N292    1.368   .     A
C209   C7      1.419   1_655 S
C210   H252    1.079   .     S
C210   N291    1.367   .     A
C211   N291    1.367   .     A
C211   H253    1.079   .     S
C212   N292    1.367   .     A
C212   H254    1.082   .     S
C212   C6      1.419   1_655 S
C213   O302    1.294   .     A
C213   C215    1.459   .     S
C213   O300    1.298   .     A
C214   O301    1.298   .     A
C214   C217    1.470   .     S
C214   O303    1.299   .     A
C215   C222    1.400   .     A
C215   C220    1.406   .     A
C216   O299    1.285   .     A
C216   O297    1.286   .     A
C217   C223    1.396   .     A
C217   C221    1.413   .     A
C218   C220    1.390   .     A
C218   H286    1.076   .     S
C218   C226    1.402   .     A
C219   C228    1.397   .     A
C219   C221    1.401   .     A
C219   H287    1.074   .     S
C220   O294    1.386   .     S
C221   O304    1.387   .     S
C222   H282    1.075   .     S
C222   C224    1.399   .     A
C223   C225    1.398   .     A
C223   H271    1.078   .     S
C224   C229    1.423   .     A
C224   C226    1.418   .     A
C225   C230    1.409   .     A
C225   C228    1.407   .     A
C226   C1162   1.394   .     S
C227   O295    1.385   .     S
C227   C244    1.385   .     A
C227   C230    1.415   .     A
C228   C1163   1.398   1_554 S
C229   C238    1.427   .     A
C229   C1148   1.412   .     S
C230   C1147   1.412   1_554 S
C231   H255    1.111   .     S
C231   O304    1.422   .     S
C231   H256    1.114   .     S
C231   C28     1.528   1_655 S
C232   C233    1.527   .     S
C232   H257    1.110   .     S
C233   H261    1.110   .     S
C233   H262    1.111   .     S
C234   O294    1.419   .     S
C234   H264    1.115   .     S
C234   H263    1.110   .     S
C234   C235    1.531   .     S
C235   H266    1.110   .     S
C235   C236    1.526   .     S
C236   H268    1.110   .     S
C236   H267    1.111   .     S
C236   H269    1.111   .     S
C237   H272    1.115   .     S
C237   O295    1.414   .     S
C237   H270    1.114   .     S
C237   C239    1.529   .     S
C238   C245    1.398   .     A
C238   O296    1.384   .     S
C239   C240    1.526   .     S
C239   H274    1.112   .     S
C239   H273    1.112   .     S
C240   H887    1.110   1_545 S
C240   H888    1.110   1_545 S
C240   H889    1.111   1_545 S
C241   H278    1.111   .     S
C241   H279    1.116   .     S
C241   C242    1.533   .     S
C241   O296    1.416   .     S
C242   H280    1.112   .     S
C242   H281    1.111   .     S
C242   C855    1.526   1_545 S
C243   H283    1.111   .     S
C243   H285    1.111   .     S
C243   H284    1.111   .     S
C243   C548    1.526   .     S
C244   H249    1.072   .     S
C244   C1144   1.394   1_554 S
C245   H260    1.084   .     S
C245   C1146   1.398   .     S
C246   H288    1.084   .     S
C246   C554    1.369   .     S
C247   H289    1.084   .     S
C247   C818    1.370   1_545 S
C248   H290    1.084   .     S
C248   C858    1.369   1_545 S
H258   C28     1.110   1_655 S
H259   C29     1.111   1_655 S
H265   C31     1.112   1_655 S
H275   C546    1.110   .     S
H276   C546    1.110   .     S
H277   C546    1.111   .     S
N291   Zn305   2.019   .     S
N292   Zn306   2.019   .     S
O293   Zn305   1.992   .     S
O297   Zn306   1.992   .     S
O298   Zn306   1.990   .     S
O299   Zn305   1.990   .     S
O300   Zn305   1.937   .     S
O301   Zn306   1.937   .     S
O302   Zn306   1.929   .     S
O303   Zn305   1.929   .     S
C307   O400    1.285   .     A
C307   O395    1.286   .     A
C307   C310    1.413   .     S
C308   H352    1.084   .     S
C308   C310    1.396   .     A
C308   C655    1.370   .     S
C309   C349    1.396   .     A
C309   C318    1.413   .     S
C309   C350    1.396   .     A
C310   C348    1.396   .     A
C311   H353    1.081   .     S
C311   N394    1.368   .     A
C311   C415    1.419   .     S
C312   H354    1.079   .     S
C312   N393    1.367   .     A
C312   C518    1.419   1_455 S
C313   N393    1.367   .     A
C313   H355    1.079   .     S
C313   C515    1.419   1_455 S
C314   N394    1.367   .     A
C314   H356    1.082   .     S
C314   C414    1.419   .     S
C315   O404    1.294   .     A
C315   C317    1.459   .     S
C315   O402    1.298   .     A
C316   O403    1.298   .     A
C316   C319    1.470   .     S
C316   O405    1.299   .     A
C317   C324    1.400   .     A
C317   C322    1.406   .     A
C318   O401    1.285   .     A
C318   O399    1.286   .     A
C319   C325    1.396   .     A
C319   C323    1.413   .     A
C320   C322    1.390   .     A
C320   H388    1.076   .     S
C320   C328    1.402   .     A
C321   C330    1.397   .     A
C321   C323    1.401   .     A
C321   H389    1.074   .     S
C322   O396    1.386   .     S
C323   O406    1.387   .     S
C324   H384    1.075   .     S
C324   C326    1.399   .     A
C325   C327    1.398   .     A
C325   H373    1.078   .     S
C326   C331    1.423   .     A
C326   C328    1.418   .     A
C327   C332    1.409   .     A
C327   C330    1.407   .     A
C328   C1264   1.394   .     S
C329   O397    1.385   .     S
C329   C346    1.385   .     A
C329   C332    1.415   .     A
C330   C1265   1.398   1_554 S
C331   C340    1.427   .     A
C331   C1250   1.412   .     S
C332   C1249   1.412   1_554 S
C333   H357    1.111   .     S
C333   O406    1.422   .     S
C333   H358    1.114   .     S
C333   C436    1.528   .     S
C334   C335    1.527   .     S
C334   H359    1.110   .     S
C334   C537    1.528   1_455 S
C334   H564    1.110   1_455 S
C335   H363    1.110   .     S
C335   H364    1.111   .     S
C335   H565    1.111   1_455 S
C336   O396    1.419   .     S
C336   H366    1.115   .     S
C336   H365    1.110   .     S
C336   C337    1.531   .     S
C337   H368    1.110   .     S
C337   C338    1.526   .     S
C337   H571    1.112   1_455 S
C338   H370    1.110   .     S
C338   H369    1.111   .     S
C338   H371    1.111   .     S
C339   H374    1.115   .     S
C339   O397    1.414   .     S
C339   H372    1.114   .     S
C339   C341    1.529   .     S
C340   C347    1.398   .     A
C340   O398    1.384   .     S
C341   C342    1.526   .     S
C341   H376    1.112   .     S
C341   H375    1.112   .     S
C343   H380    1.111   .     S
C343   H381    1.116   .     S
C343   C344    1.533   .     S
C343   O398    1.416   .     S
C344   H382    1.112   .     S
C344   H383    1.111   .     S
C345   H385    1.111   .     S
C345   H387    1.111   .     S
C345   H386    1.111   .     S
C345   C650    1.526   .     S
C346   H351    1.072   .     S
C346   C1246   1.394   1_554 S
C347   H362    1.084   .     S
C347   C1248   1.398   .     S
C348   H390    1.084   .     S
C348   C656    1.369   .     S
C349   H391    1.084   .     S
C350   H392    1.084   .     S
H360   C436    1.110   .     S
H361   C437    1.111   .     S
H367   C439    1.112   .     S
H377   C648    1.110   .     S
H378   C648    1.110   .     S
H379   C648    1.111   .     S
N393   Zn407   2.019   .     S
N394   Zn408   2.019   .     S
O395   Zn407   1.992   .     S
O399   Zn408   1.992   .     S
O400   Zn408   1.990   .     S
O401   Zn407   1.990   .     S
O402   Zn407   1.937   .     S
O403   Zn408   1.937   .     S
O404   Zn408   1.929   .     S
O405   Zn407   1.929   .     S
C409   O502    1.285   .     A
C409   O497    1.286   .     A
C409   C412    1.413   .     S
C410   H454    1.084   .     S
C410   C412    1.396   .     A
C410   C757    1.370   .     S
C411   C451    1.396   .     A
C411   C420    1.413   .     S
C411   C452    1.396   .     A
C412   C450    1.396   .     A
C413   H455    1.081   .     S
C413   N496    1.368   .     A
C413   C517    1.419   .     S
C414   H456    1.079   .     S
C414   N495    1.367   .     A
C415   N495    1.367   .     A
C415   H457    1.079   .     S
C416   N496    1.367   .     A
C416   H458    1.082   .     S
C416   C516    1.419   .     S
C417   O506    1.294   .     A
C417   C419    1.459   .     S
C417   O504    1.298   .     A
C418   O505    1.298   .     A
C418   C421    1.470   .     S
C418   O507    1.299   .     A
C419   C426    1.400   .     A
C419   C424    1.406   .     A
C420   O503    1.285   .     A
C420   O501    1.286   .     A
C421   C427    1.396   .     A
C421   C425    1.413   .     A
C422   C424    1.390   .     A
C422   H490    1.076   .     S
C422   C430    1.402   .     A
C423   C432    1.397   .     A
C423   C425    1.401   .     A
C423   H491    1.074   .     S
C424   O498    1.386   .     S
C425   O508    1.387   .     S
C426   H486    1.075   .     S
C426   C428    1.399   .     A
C427   C429    1.398   .     A
C427   H475    1.078   .     S
C428   C433    1.423   .     A
C428   C430    1.418   .     A
C429   C434    1.409   .     A
C429   C432    1.407   .     A
C430   C1366   1.394   .     S
C431   O499    1.385   .     S
C431   C448    1.385   .     A
C431   C434    1.415   .     A
C432   C1367   1.398   1_554 S
C433   C442    1.427   .     A
C433   C1352   1.412   .     S
C434   C1351   1.412   1_554 S
C435   H459    1.111   .     S
C435   O508    1.422   .     S
C435   H460    1.114   .     S
C435   C538    1.528   .     S
C436   C437    1.527   .     S
C436   H461    1.110   .     S
C437   H465    1.110   .     S
C437   H466    1.111   .     S
C438   O498    1.419   .     S
C438   H468    1.115   .     S
C438   H467    1.110   .     S
C438   C439    1.531   .     S
C439   H470    1.110   .     S
C439   C440    1.526   .     S
C440   H472    1.110   .     S
C440   H471    1.111   .     S
C440   H473    1.111   .     S
C441   H476    1.115   .     S
C441   O499    1.414   .     S
C441   H474    1.114   .     S
C441   C443    1.529   .     S
C442   C449    1.398   .     A
C442   O500    1.384   .     S
C443   C444    1.526   .     S
C443   H478    1.112   .     S
C443   H477    1.112   .     S
C445   H482    1.111   .     S
C445   H483    1.116   .     S
C445   C446    1.533   .     S
C445   O500    1.416   .     S
C446   H484    1.112   .     S
C446   H485    1.111   .     S
C447   H487    1.111   .     S
C447   H489    1.111   .     S
C447   H488    1.111   .     S
C447   C752    1.526   .     S
C448   H453    1.072   .     S
C448   C1348   1.394   1_554 S
C449   H464    1.084   .     S
C449   C1350   1.398   .     S
C450   H492    1.084   .     S
C450   C758    1.369   .     S
C451   H493    1.084   .     S
C452   H494    1.084   .     S
H462   C538    1.110   .     S
H463   C539    1.111   .     S
H469   C541    1.112   .     S
H479   C750    1.110   .     S
H480   C750    1.110   .     S
H481   C750    1.111   .     S
N495   Zn509   2.019   .     S
N496   Zn510   2.019   .     S
O497   Zn509   1.992   .     S
O501   Zn510   1.992   .     S
O502   Zn510   1.990   .     S
O503   Zn509   1.990   .     S
O504   Zn509   1.937   .     S
O505   Zn510   1.937   .     S
O506   Zn510   1.929   .     S
O507   Zn509   1.929   .     S
C511   O604    1.285   .     A
C511   O599    1.286   .     A
C511   C514    1.413   .     S
C512   H556    1.084   .     S
C512   C514    1.396   .     A
C512   C859    1.370   .     S
C513   C553    1.396   .     A
C513   C522    1.413   .     S
C513   C554    1.396   .     A
C514   C552    1.396   .     A
C515   H557    1.081   .     S
C515   N598    1.368   .     A
C515   C313    1.419   1_655 S
C516   H558    1.079   .     S
C516   N597    1.367   .     A
C517   N597    1.367   .     A
C517   H559    1.079   .     S
C518   N598    1.367   .     A
C518   H560    1.082   .     S
C518   C312    1.419   1_655 S
C519   O608    1.294   .     A
C519   C521    1.459   .     S
C519   O606    1.298   .     A
C520   O607    1.298   .     A
C520   C523    1.470   .     S
C520   O609    1.299   .     A
C521   C528    1.400   .     A
C521   C526    1.406   .     A
C522   O605    1.285   .     A
C522   O603    1.286   .     A
C523   C529    1.396   .     A
C523   C527    1.413   .     A
C524   C526    1.390   .     A
C524   H592    1.076   .     S
C524   C532    1.402   .     A
C525   C534    1.397   .     A
C525   C527    1.401   .     A
C525   H593    1.074   .     S
C526   O600    1.386   .     S
C527   O610    1.387   .     S
C528   H588    1.075   .     S
C528   C530    1.399   .     A
C529   C531    1.398   .     A
C529   H577    1.078   .     S
C530   C535    1.423   .     A
C530   C532    1.418   .     A
C531   C536    1.409   .     A
C531   C534    1.407   .     A
C532   C1468   1.394   .     S
C533   O601    1.385   .     S
C533   C550    1.385   .     A
C533   C536    1.415   .     A
C534   C1469   1.398   1_554 S
C535   C544    1.427   .     A
C535   C1454   1.412   .     S
C536   C1453   1.412   1_554 S
C537   H561    1.111   .     S
C537   O610    1.422   .     S
C537   H562    1.114   .     S
C537   C334    1.528   1_655 S
C538   C539    1.527   .     S
C538   H563    1.110   .     S
C539   H567    1.110   .     S
C539   H568    1.111   .     S
C540   O600    1.419   .     S
C540   H570    1.115   .     S
C540   H569    1.110   .     S
C540   C541    1.531   .     S
C541   H572    1.110   .     S
C541   C542    1.526   .     S
C542   H574    1.110   .     S
C542   H573    1.111   .     S
C542   H575    1.111   .     S
C543   H578    1.115   .     S
C543   O601    1.414   .     S
C543   H576    1.114   .     S
C543   C545    1.529   .     S
C544   C551    1.398   .     A
C544   O602    1.384   .     S
C545   C546    1.526   .     S
C545   H580    1.112   .     S
C545   H579    1.112   .     S
C547   H584    1.111   .     S
C547   H585    1.116   .     S
C547   C548    1.533   .     S
C547   O602    1.416   .     S
C548   H586    1.112   .     S
C548   H587    1.111   .     S
C549   H589    1.111   .     S
C549   H591    1.111   .     S
C549   H590    1.111   .     S
C549   C854    1.526   .     S
C550   H555    1.072   .     S
C550   C1450   1.394   1_554 S
C551   H566    1.084   .     S
C551   C1452   1.398   .     S
C552   H594    1.084   .     S
C552   C860    1.369   .     S
C553   H595    1.084   .     S
C554   H596    1.084   .     S
H564   C334    1.110   1_655 S
H565   C335    1.111   1_655 S
H571   C337    1.112   1_655 S
H581   C852    1.110   .     S
H582   C852    1.110   .     S
H583   C852    1.111   .     S
N597   Zn611   2.019   .     S
N598   Zn612   2.019   .     S
O599   Zn611   1.992   .     S
O603   Zn612   1.992   .     S
O604   Zn612   1.990   .     S
O605   Zn611   1.990   .     S
O606   Zn611   1.937   .     S
O607   Zn612   1.937   .     S
O608   Zn612   1.929   .     S
O609   Zn611   1.929   .     S
C613   O706    1.285   .     A
C613   O701    1.286   .     A
C613   C616    1.413   .     S
C614   H658    1.084   .     S
C614   C616    1.396   .     A
C614   C43     1.370   1_565 S
C615   C655    1.396   .     A
C615   C624    1.413   .     S
C615   C656    1.396   .     A
C616   C654    1.396   .     A
C617   H659    1.081   .     S
C617   N700    1.368   .     A
C617   C721    1.419   .     S
C618   H660    1.079   .     S
C618   N699    1.367   .     A
C618   C824    1.419   1_455 S
C619   N699    1.367   .     A
C619   H661    1.079   .     S
C619   C821    1.419   1_455 S
C620   N700    1.367   .     A
C620   H662    1.082   .     S
C620   C720    1.419   .     S
C621   O710    1.294   .     A
C621   C623    1.459   .     S
C621   O708    1.298   .     A
C622   O709    1.298   .     A
C622   C625    1.470   .     S
C622   O711    1.299   .     A
C623   C630    1.400   .     A
C623   C628    1.406   .     A
C624   O707    1.285   .     A
C624   O705    1.286   .     A
C625   C631    1.396   .     A
C625   C629    1.413   .     A
C626   C628    1.390   .     A
C626   H694    1.076   .     S
C626   C634    1.402   .     A
C627   C636    1.397   .     A
C627   C629    1.401   .     A
C627   H695    1.074   .     S
C628   O702    1.386   .     S
C629   O712    1.387   .     S
C630   H690    1.075   .     S
C630   C632    1.399   .     A
C631   C633    1.398   .     A
C631   H679    1.078   .     S
C632   C637    1.423   .     A
C632   C634    1.418   .     A
C633   C638    1.409   .     A
C633   C636    1.407   .     A
C634   C1570   1.394   .     S
C635   O703    1.385   .     S
C635   C652    1.385   .     A
C635   C638    1.415   .     A
C636   C1571   1.398   1_554 S
C637   C646    1.427   .     A
C637   C1556   1.412   .     S
C638   C1555   1.412   1_554 S
C639   H663    1.111   .     S
C639   O712    1.422   .     S
C639   H664    1.114   .     S
C639   C742    1.528   .     S
C640   C641    1.527   .     S
C640   H665    1.110   .     S
C640   C843    1.528   1_455 S
C640   H870    1.110   1_455 S
C641   H669    1.110   .     S
C641   H670    1.111   .     S
C641   H871    1.111   1_455 S
C642   O702    1.419   .     S
C642   H672    1.115   .     S
C642   H671    1.110   .     S
C642   C643    1.531   .     S
C643   H674    1.110   .     S
C643   C644    1.526   .     S
C643   H877    1.112   1_455 S
C644   H676    1.110   .     S
C644   H675    1.111   .     S
C644   H677    1.111   .     S
C645   H680    1.115   .     S
C645   O703    1.414   .     S
C645   H678    1.114   .     S
C645   C647    1.529   .     S
C646   C653    1.398   .     A
C646   O704    1.384   .     S
C647   C648    1.526   .     S
C647   H682    1.112   .     S
C647   H681    1.112   .     S
C649   H686    1.111   .     S
C649   H687    1.116   .     S
C649   C650    1.533   .     S
C649   O704    1.416   .     S
C650   H688    1.112   .     S
C650   H689    1.111   .     S
C651   H691    1.111   .     S
C651   H693    1.111   .     S
C651   H692    1.111   .     S
C651   C38     1.526   1_565 S
C652   H657    1.072   .     S
C652   C1552   1.394   1_554 S
C653   H668    1.084   .     S
C653   C1554   1.398   .     S
C654   H696    1.084   .     S
C654   C44     1.369   1_565 S
C655   H697    1.084   .     S
C656   H698    1.084   .     S
H666   C742    1.110   .     S
H667   C743    1.111   .     S
H673   C745    1.112   .     S
H683   C36     1.110   1_565 S
H684   C36     1.110   1_565 S
H685   C36     1.111   1_565 S
N699   Zn713   2.019   .     S
N700   Zn714   2.019   .     S
O701   Zn713   1.992   .     S
O705   Zn714   1.992   .     S
O706   Zn714   1.990   .     S
O707   Zn713   1.990   .     S
O708   Zn713   1.937   .     S
O709   Zn714   1.937   .     S
O710   Zn714   1.929   .     S
O711   Zn713   1.929   .     S
C715   O808    1.285   .     A
C715   O803    1.286   .     A
C715   C718    1.413   .     S
C716   H760    1.084   .     S
C716   C718    1.396   .     A
C716   C145    1.370   1_565 S
C717   C757    1.396   .     A
C717   C726    1.413   .     S
C717   C758    1.396   .     A
C718   C756    1.396   .     A
C719   H761    1.081   .     S
C719   N802    1.368   .     A
C719   C823    1.419   .     S
C720   H762    1.079   .     S
C720   N801    1.367   .     A
C721   N801    1.367   .     A
C721   H763    1.079   .     S
C722   N802    1.367   .     A
C722   H764    1.082   .     S
C722   C822    1.419   .     S
C723   O812    1.294   .     A
C723   C725    1.459   .     S
C723   O810    1.298   .     A
C724   O811    1.298   .     A
C724   C727    1.470   .     S
C724   O813    1.299   .     A
C725   C732    1.400   .     A
C725   C730    1.406   .     A
C726   O809    1.285   .     A
C726   O807    1.286   .     A
C727   C733    1.396   .     A
C727   C731    1.413   .     A
C728   C730    1.390   .     A
C728   H796    1.076   .     S
C728   C736    1.402   .     A
C729   C738    1.397   .     A
C729   C731    1.401   .     A
C729   H797    1.074   .     S
C730   O804    1.386   .     S
C731   O814    1.387   .     S
C732   H792    1.075   .     S
C732   C734    1.399   .     A
C733   C735    1.398   .     A
C733   H781    1.078   .     S
C734   C739    1.423   .     A
C734   C736    1.418   .     A
C735   C740    1.409   .     A
C735   C738    1.407   .     A
C736   C1672   1.394   .     S
C737   O805    1.385   .     S
C737   C754    1.385   .     A
C737   C740    1.415   .     A
C738   C1673   1.398   1_554 S
C739   C748    1.427   .     A
C739   C1658   1.412   .     S
C740   C1657   1.412   1_554 S
C741   H765    1.111   .     S
C741   O814    1.422   .     S
C741   H766    1.114   .     S
C741   C844    1.528   .     S
C742   C743    1.527   .     S
C742   H767    1.110   .     S
C743   H771    1.110   .     S
C743   H772    1.111   .     S
C744   O804    1.419   .     S
C744   H774    1.115   .     S
C744   H773    1.110   .     S
C744   C745    1.531   .     S
C745   H776    1.110   .     S
C745   C746    1.526   .     S
C746   H778    1.110   .     S
C746   H777    1.111   .     S
C746   H779    1.111   .     S
C747   H782    1.115   .     S
C747   O805    1.414   .     S
C747   H780    1.114   .     S
C747   C749    1.529   .     S
C748   C755    1.398   .     A
C748   O806    1.384   .     S
C749   C750    1.526   .     S
C749   H784    1.112   .     S
C749   H783    1.112   .     S
C751   H788    1.111   .     S
C751   H789    1.116   .     S
C751   C752    1.533   .     S
C751   O806    1.416   .     S
C752   H790    1.112   .     S
C752   H791    1.111   .     S
C753   H793    1.111   .     S
C753   H795    1.111   .     S
C753   H794    1.111   .     S
C753   C140    1.526   1_565 S
C754   H759    1.072   .     S
C754   C1654   1.394   1_554 S
C755   H770    1.084   .     S
C755   C1656   1.398   .     S
C756   H798    1.084   .     S
C756   C146    1.369   1_565 S
C757   H799    1.084   .     S
C758   H800    1.084   .     S
H768   C844    1.110   .     S
H769   C845    1.111   .     S
H775   C847    1.112   .     S
H785   C138    1.110   1_565 S
H786   C138    1.110   1_565 S
H787   C138    1.111   1_565 S
N801   Zn815   2.019   .     S
N802   Zn816   2.019   .     S
O803   Zn815   1.992   .     S
O807   Zn816   1.992   .     S
O808   Zn816   1.990   .     S
O809   Zn815   1.990   .     S
O810   Zn815   1.937   .     S
O811   Zn816   1.937   .     S
O812   Zn816   1.929   .     S
O813   Zn815   1.929   .     S
C817   O910    1.285   .     A
C817   O905    1.286   .     A
C817   C820    1.413   .     S
C818   H862    1.084   .     S
C818   C820    1.396   .     A
C818   C247    1.370   1_565 S
C819   C859    1.396   .     A
C819   C828    1.413   .     S
C819   C860    1.396   .     A
C820   C858    1.396   .     A
C821   H863    1.081   .     S
C821   N904    1.368   .     A
C821   C619    1.419   1_655 S
C822   H864    1.079   .     S
C822   N903    1.367   .     A
C823   N903    1.367   .     A
C823   H865    1.079   .     S
C824   N904    1.367   .     A
C824   H866    1.082   .     S
C824   C618    1.419   1_655 S
C825   O914    1.294   .     A
C825   C827    1.459   .     S
C825   O912    1.298   .     A
C826   O913    1.298   .     A
C826   C829    1.470   .     S
C826   O915    1.299   .     A
C827   C834    1.400   .     A
C827   C832    1.406   .     A
C828   O911    1.285   .     A
C828   O909    1.286   .     A
C829   C835    1.396   .     A
C829   C833    1.413   .     A
C830   C832    1.390   .     A
C830   H898    1.076   .     S
C830   C838    1.402   .     A
C831   C840    1.397   .     A
C831   C833    1.401   .     A
C831   H899    1.074   .     S
C832   O906    1.386   .     S
C833   O916    1.387   .     S
C834   H894    1.075   .     S
C834   C836    1.399   .     A
C835   C837    1.398   .     A
C835   H883    1.078   .     S
C836   C841    1.423   .     A
C836   C838    1.418   .     A
C837   C842    1.409   .     A
C837   C840    1.407   .     A
C838   C1774   1.394   .     S
C839   O907    1.385   .     S
C839   C856    1.385   .     A
C839   C842    1.415   .     A
C840   C1775   1.398   1_554 S
C841   C850    1.427   .     A
C841   C1760   1.412   .     S
C842   C1759   1.412   1_554 S
C843   H867    1.111   .     S
C843   O916    1.422   .     S
C843   H868    1.114   .     S
C843   C640    1.528   1_655 S
C844   C845    1.527   .     S
C844   H869    1.110   .     S
C845   H873    1.110   .     S
C845   H874    1.111   .     S
C846   O906    1.419   .     S
C846   H876    1.115   .     S
C846   H875    1.110   .     S
C846   C847    1.531   .     S
C847   H878    1.110   .     S
C847   C848    1.526   .     S
C848   H880    1.110   .     S
C848   H879    1.111   .     S
C848   H881    1.111   .     S
C849   H884    1.115   .     S
C849   O907    1.414   .     S
C849   H882    1.114   .     S
C849   C851    1.529   .     S
C850   C857    1.398   .     A
C850   O908    1.384   .     S
C851   C852    1.526   .     S
C851   H886    1.112   .     S
C851   H885    1.112   .     S
C853   H890    1.111   .     S
C853   H891    1.116   .     S
C853   C854    1.533   .     S
C853   O908    1.416   .     S
C854   H892    1.112   .     S
C854   H893    1.111   .     S
C855   H895    1.111   .     S
C855   H897    1.111   .     S
C855   H896    1.111   .     S
C855   C242    1.526   1_565 S
C856   H861    1.072   .     S
C856   C1756   1.394   1_554 S
C857   H872    1.084   .     S
C857   C1758   1.398   .     S
C858   H900    1.084   .     S
C858   C248    1.369   1_565 S
C859   H901    1.084   .     S
C860   H902    1.084   .     S
H870   C640    1.110   1_655 S
H871   C641    1.111   1_655 S
H877   C643    1.112   1_655 S
H887   C240    1.110   1_565 S
H888   C240    1.110   1_565 S
H889   C240    1.111   1_565 S
N903   Zn917   2.019   .     S
N904   Zn918   2.019   .     S
O905   Zn917   1.992   .     S
O909   Zn918   1.992   .     S
O910   Zn918   1.990   .     S
O911   Zn917   1.990   .     S
O912   Zn917   1.937   .     S
O913   Zn918   1.937   .     S
O914   Zn918   1.929   .     S
O915   Zn917   1.929   .     S
C919   O1012   1.285   .     A
C919   O1007   1.286   .     A
C919   C922    1.413   .     S
C920   H964    1.084   .     S
C920   C922    1.396   .     A
C920   C1267   1.370   .     S
C921   C961    1.396   .     A
C921   C930    1.413   .     S
C921   C962    1.396   .     A
C922   C960    1.396   .     A
C923   H965    1.081   .     S
C923   N1006   1.368   .     A
C923   C1027   1.419   .     S
C924   H966    1.079   .     S
C924   N1005   1.367   .     A
C924   C1130   1.419   1_455 S
C925   N1005   1.367   .     A
C925   H967    1.079   .     S
C925   C1127   1.419   1_455 S
C926   N1006   1.367   .     A
C926   H968    1.082   .     S
C926   C1026   1.419   .     S
C927   O1016   1.294   .     A
C927   C929    1.459   .     S
C927   O1014   1.298   .     A
C928   O1015   1.298   .     A
C928   C931    1.470   .     S
C928   O1017   1.299   .     A
C929   C936    1.400   .     A
C929   C934    1.406   .     A
C930   O1013   1.285   .     A
C930   O1011   1.286   .     A
C931   C937    1.396   .     A
C931   C935    1.413   .     A
C932   C934    1.390   .     A
C932   H1000   1.076   .     S
C932   C940    1.402   .     A
C933   C942    1.397   .     A
C933   C935    1.401   .     A
C933   H1001   1.074   .     S
C934   O1008   1.386   .     S
C935   O1018   1.387   .     S
C936   H996    1.075   .     S
C936   C938    1.399   .     A
C937   C939    1.398   .     A
C937   H985    1.078   .     S
C938   C943    1.423   .     A
C938   C940    1.418   .     A
C939   C944    1.409   .     A
C939   C942    1.407   .     A
C940   C40     1.394   1_556 S
C941   O1009   1.385   .     S
C941   C958    1.385   .     A
C941   C944    1.415   .     A
C943   C952    1.427   .     A
C943   C26     1.412   1_556 S
C945   H969    1.111   .     S
C945   O1018   1.422   .     S
C945   H970    1.114   .     S
C945   C1048   1.528   .     S
C946   C947    1.527   .     S
C946   H971    1.110   .     S
C946   C1149   1.528   1_455 S
C946   H1176   1.110   1_455 S
C947   H975    1.110   .     S
C947   H976    1.111   .     S
C947   H1177   1.111   1_455 S
C948   O1008   1.419   .     S
C948   H978    1.115   .     S
C948   H977    1.110   .     S
C948   C949    1.531   .     S
C949   H980    1.110   .     S
C949   C950    1.526   .     S
C949   H1183   1.112   1_455 S
C950   H982    1.110   .     S
C950   H981    1.111   .     S
C950   H983    1.111   .     S
C951   H986    1.115   .     S
C951   O1009   1.414   .     S
C951   H984    1.114   .     S
C951   C953    1.529   .     S
C952   C959    1.398   .     A
C952   O1010   1.384   .     S
C953   C954    1.526   .     S
C953   H988    1.112   .     S
C953   H987    1.112   .     S
C954   H1601   1.110   1_545 S
C954   H1602   1.110   1_545 S
C954   H1603   1.111   1_545 S
C955   H992    1.111   .     S
C955   H993    1.116   .     S
C955   C956    1.533   .     S
C955   O1010   1.416   .     S
C956   H994    1.112   .     S
C956   H995    1.111   .     S
C956   C1569   1.526   1_545 S
C957   H997    1.111   .     S
C957   H999    1.111   .     S
C957   H998    1.111   .     S
C957   C1262   1.526   .     S
C958   H963    1.072   .     S
C959   H974    1.084   .     S
C959   C24     1.398   1_556 S
C960   H1002   1.084   .     S
C960   C1268   1.369   .     S
C961   H1003   1.084   .     S
C961   C1532   1.370   1_545 S
C962   H1004   1.084   .     S
C962   C1572   1.369   1_545 S
H972   C1048   1.110   .     S
H973   C1049   1.111   .     S
H979   C1051   1.112   .     S
H989   C1260   1.110   .     S
H990   C1260   1.110   .     S
H991   C1260   1.111   .     S
N1005  Zn1019  2.019   .     S
N1006  Zn1020  2.019   .     S
O1007  Zn1019  1.992   .     S
O1011  Zn1020  1.992   .     S
O1012  Zn1020  1.990   .     S
O1013  Zn1019  1.990   .     S
O1014  Zn1019  1.937   .     S
O1015  Zn1020  1.937   .     S
O1016  Zn1020  1.929   .     S
O1017  Zn1019  1.929   .     S
C1021  O1114   1.285   .     A
C1021  O1109   1.286   .     A
C1021  C1024   1.413   .     S
C1022  H1066   1.084   .     S
C1022  C1024   1.396   .     A
C1022  C1369   1.370   .     S
C1023  C1063   1.396   .     A
C1023  C1032   1.413   .     S
C1023  C1064   1.396   .     A
C1024  C1062   1.396   .     A
C1025  H1067   1.081   .     S
C1025  N1108   1.368   .     A
C1025  C1129   1.419   .     S
C1026  H1068   1.079   .     S
C1026  N1107   1.367   .     A
C1027  N1107   1.367   .     A
C1027  H1069   1.079   .     S
C1028  N1108   1.367   .     A
C1028  H1070   1.082   .     S
C1028  C1128   1.419   .     S
C1029  O1118   1.294   .     A
C1029  C1031   1.459   .     S
C1029  O1116   1.298   .     A
C1030  O1117   1.298   .     A
C1030  C1033   1.470   .     S
C1030  O1119   1.299   .     A
C1031  C1038   1.400   .     A
C1031  C1036   1.406   .     A
C1032  O1115   1.285   .     A
C1032  O1113   1.286   .     A
C1033  C1039   1.396   .     A
C1033  C1037   1.413   .     A
C1034  C1036   1.390   .     A
C1034  H1102   1.076   .     S
C1034  C1042   1.402   .     A
C1035  C1044   1.397   .     A
C1035  C1037   1.401   .     A
C1035  H1103   1.074   .     S
C1036  O1110   1.386   .     S
C1037  O1120   1.387   .     S
C1038  H1098   1.075   .     S
C1038  C1040   1.399   .     A
C1039  C1041   1.398   .     A
C1039  H1087   1.078   .     S
C1040  C1045   1.423   .     A
C1040  C1042   1.418   .     A
C1041  C1046   1.409   .     A
C1041  C1044   1.407   .     A
C1042  C142    1.394   1_556 S
C1043  O1111   1.385   .     S
C1043  C1060   1.385   .     A
C1043  C1046   1.415   .     A
C1045  C1054   1.427   .     A
C1045  C128    1.412   1_556 S
C1047  H1071   1.111   .     S
C1047  O1120   1.422   .     S
C1047  H1072   1.114   .     S
C1047  C1150   1.528   .     S
C1048  C1049   1.527   .     S
C1048  H1073   1.110   .     S
C1049  H1077   1.110   .     S
C1049  H1078   1.111   .     S
C1050  O1110   1.419   .     S
C1050  H1080   1.115   .     S
C1050  H1079   1.110   .     S
C1050  C1051   1.531   .     S
C1051  H1082   1.110   .     S
C1051  C1052   1.526   .     S
C1052  H1084   1.110   .     S
C1052  H1083   1.111   .     S
C1052  H1085   1.111   .     S
C1053  H1088   1.115   .     S
C1053  O1111   1.414   .     S
C1053  H1086   1.114   .     S
C1053  C1055   1.529   .     S
C1054  C1061   1.398   .     A
C1054  O1112   1.384   .     S
C1055  C1056   1.526   .     S
C1055  H1090   1.112   .     S
C1055  H1089   1.112   .     S
C1056  H1703   1.110   1_545 S
C1056  H1704   1.110   1_545 S
C1056  H1705   1.111   1_545 S
C1057  H1094   1.111   .     S
C1057  H1095   1.116   .     S
C1057  C1058   1.533   .     S
C1057  O1112   1.416   .     S
C1058  H1096   1.112   .     S
C1058  H1097   1.111   .     S
C1058  C1671   1.526   1_545 S
C1059  H1099   1.111   .     S
C1059  H1101   1.111   .     S
C1059  H1100   1.111   .     S
C1059  C1364   1.526   .     S
C1060  H1065   1.072   .     S
C1061  H1076   1.084   .     S
C1061  C126    1.398   1_556 S
C1062  H1104   1.084   .     S
C1062  C1370   1.369   .     S
C1063  H1105   1.084   .     S
C1063  C1634   1.370   1_545 S
C1064  H1106   1.084   .     S
C1064  C1674   1.369   1_545 S
H1074  C1150   1.110   .     S
H1075  C1151   1.111   .     S
H1081  C1153   1.112   .     S
H1091  C1362   1.110   .     S
H1092  C1362   1.110   .     S
H1093  C1362   1.111   .     S
N1107  Zn1121  2.019   .     S
N1108  Zn1122  2.019   .     S
O1109  Zn1121  1.992   .     S
O1113  Zn1122  1.992   .     S
O1114  Zn1122  1.990   .     S
O1115  Zn1121  1.990   .     S
O1116  Zn1121  1.937   .     S
O1117  Zn1122  1.937   .     S
O1118  Zn1122  1.929   .     S
O1119  Zn1121  1.929   .     S
C1123  O1216   1.285   .     A
C1123  O1211   1.286   .     A
C1123  C1126   1.413   .     S
C1124  H1168   1.084   .     S
C1124  C1126   1.396   .     A
C1124  C1471   1.370   .     S
C1125  C1165   1.396   .     A
C1125  C1134   1.413   .     S
C1125  C1166   1.396   .     A
C1126  C1164   1.396   .     A
C1127  H1169   1.081   .     S
C1127  N1210   1.368   .     A
C1127  C925    1.419   1_655 S
C1128  H1170   1.079   .     S
C1128  N1209   1.367   .     A
C1129  N1209   1.367   .     A
C1129  H1171   1.079   .     S
C1130  N1210   1.367   .     A
C1130  H1172   1.082   .     S
C1130  C924    1.419   1_655 S
C1131  O1220   1.294   .     A
C1131  C1133   1.459   .     S
C1131  O1218   1.298   .     A
C1132  O1219   1.298   .     A
C1132  C1135   1.470   .     S
C1132  O1221   1.299   .     A
C1133  C1140   1.400   .     A
C1133  C1138   1.406   .     A
C1134  O1217   1.285   .     A
C1134  O1215   1.286   .     A
C1135  C1141   1.396   .     A
C1135  C1139   1.413   .     A
C1136  C1138   1.390   .     A
C1136  H1204   1.076   .     S
C1136  C1144   1.402   .     A
C1137  C1146   1.397   .     A
C1137  C1139   1.401   .     A
C1137  H1205   1.074   .     S
C1138  O1212   1.386   .     S
C1139  O1222   1.387   .     S
C1140  H1200   1.075   .     S
C1140  C1142   1.399   .     A
C1141  C1143   1.398   .     A
C1141  H1189   1.078   .     S
C1142  C1147   1.423   .     A
C1142  C1144   1.418   .     A
C1143  C1148   1.409   .     A
C1143  C1146   1.407   .     A
C1144  C244    1.394   1_556 S
C1145  O1213   1.385   .     S
C1145  C1162   1.385   .     A
C1145  C1148   1.415   .     A
C1147  C1156   1.427   .     A
C1147  C230    1.412   1_556 S
C1149  H1173   1.111   .     S
C1149  O1222   1.422   .     S
C1149  H1174   1.114   .     S
C1149  C946    1.528   1_655 S
C1150  C1151   1.527   .     S
C1150  H1175   1.110   .     S
C1151  H1179   1.110   .     S
C1151  H1180   1.111   .     S
C1152  O1212   1.419   .     S
C1152  H1182   1.115   .     S
C1152  H1181   1.110   .     S
C1152  C1153   1.531   .     S
C1153  H1184   1.110   .     S
C1153  C1154   1.526   .     S
C1154  H1186   1.110   .     S
C1154  H1185   1.111   .     S
C1154  H1187   1.111   .     S
C1155  H1190   1.115   .     S
C1155  O1213   1.414   .     S
C1155  H1188   1.114   .     S
C1155  C1157   1.529   .     S
C1156  C1163   1.398   .     A
C1156  O1214   1.384   .     S
C1157  C1158   1.526   .     S
C1157  H1192   1.112   .     S
C1157  H1191   1.112   .     S
C1158  H1805   1.110   1_545 S
C1158  H1806   1.110   1_545 S
C1158  H1807   1.111   1_545 S
C1159  H1196   1.111   .     S
C1159  H1197   1.116   .     S
C1159  C1160   1.533   .     S
C1159  O1214   1.416   .     S
C1160  H1198   1.112   .     S
C1160  H1199   1.111   .     S
C1160  C1773   1.526   1_545 S
C1161  H1201   1.111   .     S
C1161  H1203   1.111   .     S
C1161  H1202   1.111   .     S
C1161  C1466   1.526   .     S
C1162  H1167   1.072   .     S
C1163  H1178   1.084   .     S
C1163  C228    1.398   1_556 S
C1164  H1206   1.084   .     S
C1164  C1472   1.369   .     S
C1165  H1207   1.084   .     S
C1165  C1736   1.370   1_545 S
C1166  H1208   1.084   .     S
C1166  C1776   1.369   1_545 S
H1176  C946    1.110   1_655 S
H1177  C947    1.111   1_655 S
H1183  C949    1.112   1_655 S
H1193  C1464   1.110   .     S
H1194  C1464   1.110   .     S
H1195  C1464   1.111   .     S
N1209  Zn1223  2.019   .     S
N1210  Zn1224  2.019   .     S
O1211  Zn1223  1.992   .     S
O1215  Zn1224  1.992   .     S
O1216  Zn1224  1.990   .     S
O1217  Zn1223  1.990   .     S
O1218  Zn1223  1.937   .     S
O1219  Zn1224  1.937   .     S
O1220  Zn1224  1.929   .     S
O1221  Zn1223  1.929   .     S
C1225  O1318   1.285   .     A
C1225  O1313   1.286   .     A
C1225  C1228   1.413   .     S
C1226  H1270   1.084   .     S
C1226  C1228   1.396   .     A
C1226  C1573   1.370   .     S
C1227  C1267   1.396   .     A
C1227  C1236   1.413   .     S
C1227  C1268   1.396   .     A
C1228  C1266   1.396   .     A
C1229  H1271   1.081   .     S
C1229  N1312   1.368   .     A
C1229  C1333   1.419   .     S
C1230  H1272   1.079   .     S
C1230  N1311   1.367   .     A
C1230  C1436   1.419   1_455 S
C1231  N1311   1.367   .     A
C1231  H1273   1.079   .     S
C1231  C1433   1.419   1_455 S
C1232  N1312   1.367   .     A
C1232  H1274   1.082   .     S
C1232  C1332   1.419   .     S
C1233  O1322   1.294   .     A
C1233  C1235   1.459   .     S
C1233  O1320   1.298   .     A
C1234  O1321   1.298   .     A
C1234  C1237   1.470   .     S
C1234  O1323   1.299   .     A
C1235  C1242   1.400   .     A
C1235  C1240   1.406   .     A
C1236  O1319   1.285   .     A
C1236  O1317   1.286   .     A
C1237  C1243   1.396   .     A
C1237  C1241   1.413   .     A
C1238  C1240   1.390   .     A
C1238  H1306   1.076   .     S
C1238  C1246   1.402   .     A
C1239  C1248   1.397   .     A
C1239  C1241   1.401   .     A
C1239  H1307   1.074   .     S
C1240  O1314   1.386   .     S
C1241  O1324   1.387   .     S
C1242  H1302   1.075   .     S
C1242  C1244   1.399   .     A
C1243  C1245   1.398   .     A
C1243  H1291   1.078   .     S
C1244  C1249   1.423   .     A
C1244  C1246   1.418   .     A
C1245  C1250   1.409   .     A
C1245  C1248   1.407   .     A
C1246  C346    1.394   1_556 S
C1247  O1315   1.385   .     S
C1247  C1264   1.385   .     A
C1247  C1250   1.415   .     A
C1249  C1258   1.427   .     A
C1249  C332    1.412   1_556 S
C1251  H1275   1.111   .     S
C1251  O1324   1.422   .     S
C1251  H1276   1.114   .     S
C1251  C1354   1.528   .     S
C1252  C1253   1.527   .     S
C1252  H1277   1.110   .     S
C1252  C1455   1.528   1_455 S
C1252  H1482   1.110   1_455 S
C1253  H1281   1.110   .     S
C1253  H1282   1.111   .     S
C1253  H1483   1.111   1_455 S
C1254  O1314   1.419   .     S
C1254  H1284   1.115   .     S
C1254  H1283   1.110   .     S
C1254  C1255   1.531   .     S
C1255  H1286   1.110   .     S
C1255  C1256   1.526   .     S
C1255  H1489   1.112   1_455 S
C1256  H1288   1.110   .     S
C1256  H1287   1.111   .     S
C1256  H1289   1.111   .     S
C1257  H1292   1.115   .     S
C1257  O1315   1.414   .     S
C1257  H1290   1.114   .     S
C1257  C1259   1.529   .     S
C1258  C1265   1.398   .     A
C1258  O1316   1.384   .     S
C1259  C1260   1.526   .     S
C1259  H1294   1.112   .     S
C1259  H1293   1.112   .     S
C1261  H1298   1.111   .     S
C1261  H1299   1.116   .     S
C1261  C1262   1.533   .     S
C1261  O1316   1.416   .     S
C1262  H1300   1.112   .     S
C1262  H1301   1.111   .     S
C1263  H1303   1.111   .     S
C1263  H1305   1.111   .     S
C1263  H1304   1.111   .     S
C1263  C1568   1.526   .     S
C1264  H1269   1.072   .     S
C1265  H1280   1.084   .     S
C1265  C330    1.398   1_556 S
C1266  H1308   1.084   .     S
C1266  C1574   1.369   .     S
C1267  H1309   1.084   .     S
C1268  H1310   1.084   .     S
H1278  C1354   1.110   .     S
H1279  C1355   1.111   .     S
H1285  C1357   1.112   .     S
H1295  C1566   1.110   .     S
H1296  C1566   1.110   .     S
H1297  C1566   1.111   .     S
N1311  Zn1325  2.019   .     S
N1312  Zn1326  2.019   .     S
O1313  Zn1325  1.992   .     S
O1317  Zn1326  1.992   .     S
O1318  Zn1326  1.990   .     S
O1319  Zn1325  1.990   .     S
O1320  Zn1325  1.937   .     S
O1321  Zn1326  1.937   .     S
O1322  Zn1326  1.929   .     S
O1323  Zn1325  1.929   .     S
C1327  O1420   1.285   .     A
C1327  O1415   1.286   .     A
C1327  C1330   1.413   .     S
C1328  H1372   1.084   .     S
C1328  C1330   1.396   .     A
C1328  C1675   1.370   .     S
C1329  C1369   1.396   .     A
C1329  C1338   1.413   .     S
C1329  C1370   1.396   .     A
C1330  C1368   1.396   .     A
C1331  H1373   1.081   .     S
C1331  N1414   1.368   .     A
C1331  C1435   1.419   .     S
C1332  H1374   1.079   .     S
C1332  N1413   1.367   .     A
C1333  N1413   1.367   .     A
C1333  H1375   1.079   .     S
C1334  N1414   1.367   .     A
C1334  H1376   1.082   .     S
C1334  C1434   1.419   .     S
C1335  O1424   1.294   .     A
C1335  C1337   1.459   .     S
C1335  O1422   1.298   .     A
C1336  O1423   1.298   .     A
C1336  C1339   1.470   .     S
C1336  O1425   1.299   .     A
C1337  C1344   1.400   .     A
C1337  C1342   1.406   .     A
C1338  O1421   1.285   .     A
C1338  O1419   1.286   .     A
C1339  C1345   1.396   .     A
C1339  C1343   1.413   .     A
C1340  C1342   1.390   .     A
C1340  H1408   1.076   .     S
C1340  C1348   1.402   .     A
C1341  C1350   1.397   .     A
C1341  C1343   1.401   .     A
C1341  H1409   1.074   .     S
C1342  O1416   1.386   .     S
C1343  O1426   1.387   .     S
C1344  H1404   1.075   .     S
C1344  C1346   1.399   .     A
C1345  C1347   1.398   .     A
C1345  H1393   1.078   .     S
C1346  C1351   1.423   .     A
C1346  C1348   1.418   .     A
C1347  C1352   1.409   .     A
C1347  C1350   1.407   .     A
C1348  C448    1.394   1_556 S
C1349  O1417   1.385   .     S
C1349  C1366   1.385   .     A
C1349  C1352   1.415   .     A
C1351  C1360   1.427   .     A
C1351  C434    1.412   1_556 S
C1353  H1377   1.111   .     S
C1353  O1426   1.422   .     S
C1353  H1378   1.114   .     S
C1353  C1456   1.528   .     S
C1354  C1355   1.527   .     S
C1354  H1379   1.110   .     S
C1355  H1383   1.110   .     S
C1355  H1384   1.111   .     S
C1356  O1416   1.419   .     S
C1356  H1386   1.115   .     S
C1356  H1385   1.110   .     S
C1356  C1357   1.531   .     S
C1357  H1388   1.110   .     S
C1357  C1358   1.526   .     S
C1358  H1390   1.110   .     S
C1358  H1389   1.111   .     S
C1358  H1391   1.111   .     S
C1359  H1394   1.115   .     S
C1359  O1417   1.414   .     S
C1359  H1392   1.114   .     S
C1359  C1361   1.529   .     S
C1360  C1367   1.398   .     A
C1360  O1418   1.384   .     S
C1361  C1362   1.526   .     S
C1361  H1396   1.112   .     S
C1361  H1395   1.112   .     S
C1363  H1400   1.111   .     S
C1363  H1401   1.116   .     S
C1363  C1364   1.533   .     S
C1363  O1418   1.416   .     S
C1364  H1402   1.112   .     S
C1364  H1403   1.111   .     S
C1365  H1405   1.111   .     S
C1365  H1407   1.111   .     S
C1365  H1406   1.111   .     S
C1365  C1670   1.526   .     S
C1366  H1371   1.072   .     S
C1367  H1382   1.084   .     S
C1367  C432    1.398   1_556 S
C1368  H1410   1.084   .     S
C1368  C1676   1.369   .     S
C1369  H1411   1.084   .     S
C1370  H1412   1.084   .     S
H1380  C1456   1.110   .     S
H1381  C1457   1.111   .     S
H1387  C1459   1.112   .     S
H1397  C1668   1.110   .     S
H1398  C1668   1.110   .     S
H1399  C1668   1.111   .     S
N1413  Zn1427  2.019   .     S
N1414  Zn1428  2.019   .     S
O1415  Zn1427  1.992   .     S
O1419  Zn1428  1.992   .     S
O1420  Zn1428  1.990   .     S
O1421  Zn1427  1.990   .     S
O1422  Zn1427  1.937   .     S
O1423  Zn1428  1.937   .     S
O1424  Zn1428  1.929   .     S
O1425  Zn1427  1.929   .     S
C1429  O1522   1.285   .     A
C1429  O1517   1.286   .     A
C1429  C1432   1.413   .     S
C1430  H1474   1.084   .     S
C1430  C1432   1.396   .     A
C1430  C1777   1.370   .     S
C1431  C1471   1.396   .     A
C1431  C1440   1.413   .     S
C1431  C1472   1.396   .     A
C1432  C1470   1.396   .     A
C1433  H1475   1.081   .     S
C1433  N1516   1.368   .     A
C1433  C1231   1.419   1_655 S
C1434  H1476   1.079   .     S
C1434  N1515   1.367   .     A
C1435  N1515   1.367   .     A
C1435  H1477   1.079   .     S
C1436  N1516   1.367   .     A
C1436  H1478   1.082   .     S
C1436  C1230   1.419   1_655 S
C1437  O1526   1.294   .     A
C1437  C1439   1.459   .     S
C1437  O1524   1.298   .     A
C1438  O1525   1.298   .     A
C1438  C1441   1.470   .     S
C1438  O1527   1.299   .     A
C1439  C1446   1.400   .     A
C1439  C1444   1.406   .     A
C1440  O1523   1.285   .     A
C1440  O1521   1.286   .     A
C1441  C1447   1.396   .     A
C1441  C1445   1.413   .     A
C1442  C1444   1.390   .     A
C1442  H1510   1.076   .     S
C1442  C1450   1.402   .     A
C1443  C1452   1.397   .     A
C1443  C1445   1.401   .     A
C1443  H1511   1.074   .     S
C1444  O1518   1.386   .     S
C1445  O1528   1.387   .     S
C1446  H1506   1.075   .     S
C1446  C1448   1.399   .     A
C1447  C1449   1.398   .     A
C1447  H1495   1.078   .     S
C1448  C1453   1.423   .     A
C1448  C1450   1.418   .     A
C1449  C1454   1.409   .     A
C1449  C1452   1.407   .     A
C1450  C550    1.394   1_556 S
C1451  O1519   1.385   .     S
C1451  C1468   1.385   .     A
C1451  C1454   1.415   .     A
C1453  C1462   1.427   .     A
C1453  C536    1.412   1_556 S
C1455  H1479   1.111   .     S
C1455  O1528   1.422   .     S
C1455  H1480   1.114   .     S
C1455  C1252   1.528   1_655 S
C1456  C1457   1.527   .     S
C1456  H1481   1.110   .     S
C1457  H1485   1.110   .     S
C1457  H1486   1.111   .     S
C1458  O1518   1.419   .     S
C1458  H1488   1.115   .     S
C1458  H1487   1.110   .     S
C1458  C1459   1.531   .     S
C1459  H1490   1.110   .     S
C1459  C1460   1.526   .     S
C1460  H1492   1.110   .     S
C1460  H1491   1.111   .     S
C1460  H1493   1.111   .     S
C1461  H1496   1.115   .     S
C1461  O1519   1.414   .     S
C1461  H1494   1.114   .     S
C1461  C1463   1.529   .     S
C1462  C1469   1.398   .     A
C1462  O1520   1.384   .     S
C1463  C1464   1.526   .     S
C1463  H1498   1.112   .     S
C1463  H1497   1.112   .     S
C1465  H1502   1.111   .     S
C1465  H1503   1.116   .     S
C1465  C1466   1.533   .     S
C1465  O1520   1.416   .     S
C1466  H1504   1.112   .     S
C1466  H1505   1.111   .     S
C1467  H1507   1.111   .     S
C1467  H1509   1.111   .     S
C1467  H1508   1.111   .     S
C1467  C1772   1.526   .     S
C1468  H1473   1.072   .     S
C1469  H1484   1.084   .     S
C1469  C534    1.398   1_556 S
C1470  H1512   1.084   .     S
C1470  C1778   1.369   .     S
C1471  H1513   1.084   .     S
C1472  H1514   1.084   .     S
H1482  C1252   1.110   1_655 S
H1483  C1253   1.111   1_655 S
H1489  C1255   1.112   1_655 S
H1499  C1770   1.110   .     S
H1500  C1770   1.110   .     S
H1501  C1770   1.111   .     S
N1515  Zn1529  2.019   .     S
N1516  Zn1530  2.019   .     S
O1517  Zn1529  1.992   .     S
O1521  Zn1530  1.992   .     S
O1522  Zn1530  1.990   .     S
O1523  Zn1529  1.990   .     S
O1524  Zn1529  1.937   .     S
O1525  Zn1530  1.937   .     S
O1526  Zn1530  1.929   .     S
O1527  Zn1529  1.929   .     S
C1531  O1624   1.285   .     A
C1531  O1619   1.286   .     A
C1531  C1534   1.413   .     S
C1532  H1576   1.084   .     S
C1532  C1534   1.396   .     A
C1532  C961    1.370   1_565 S
C1533  C1573   1.396   .     A
C1533  C1542   1.413   .     S
C1533  C1574   1.396   .     A
C1534  C1572   1.396   .     A
C1535  H1577   1.081   .     S
C1535  N1618   1.368   .     A
C1535  C1639   1.419   .     S
C1536  H1578   1.079   .     S
C1536  N1617   1.367   .     A
C1536  C1742   1.419   1_455 S
C1537  N1617   1.367   .     A
C1537  H1579   1.079   .     S
C1537  C1739   1.419   1_455 S
C1538  N1618   1.367   .     A
C1538  H1580   1.082   .     S
C1538  C1638   1.419   .     S
C1539  O1628   1.294   .     A
C1539  C1541   1.459   .     S
C1539  O1626   1.298   .     A
C1540  O1627   1.298   .     A
C1540  C1543   1.470   .     S
C1540  O1629   1.299   .     A
C1541  C1548   1.400   .     A
C1541  C1546   1.406   .     A
C1542  O1625   1.285   .     A
C1542  O1623   1.286   .     A
C1543  C1549   1.396   .     A
C1543  C1547   1.413   .     A
C1544  C1546   1.390   .     A
C1544  H1612   1.076   .     S
C1544  C1552   1.402   .     A
C1545  C1554   1.397   .     A
C1545  C1547   1.401   .     A
C1545  H1613   1.074   .     S
C1546  O1620   1.386   .     S
C1547  O1630   1.387   .     S
C1548  H1608   1.075   .     S
C1548  C1550   1.399   .     A
C1549  C1551   1.398   .     A
C1549  H1597   1.078   .     S
C1550  C1555   1.423   .     A
C1550  C1552   1.418   .     A
C1551  C1556   1.409   .     A
C1551  C1554   1.407   .     A
C1552  C652    1.394   1_556 S
C1553  O1621   1.385   .     S
C1553  C1570   1.385   .     A
C1553  C1556   1.415   .     A
C1555  C1564   1.427   .     A
C1555  C638    1.412   1_556 S
C1557  H1581   1.111   .     S
C1557  O1630   1.422   .     S
C1557  H1582   1.114   .     S
C1557  C1660   1.528   .     S
C1558  C1559   1.527   .     S
C1558  H1583   1.110   .     S
C1558  C1761   1.528   1_455 S
C1558  H1788   1.110   1_455 S
C1559  H1587   1.110   .     S
C1559  H1588   1.111   .     S
C1559  H1789   1.111   1_455 S
C1560  O1620   1.419   .     S
C1560  H1590   1.115   .     S
C1560  H1589   1.110   .     S
C1560  C1561   1.531   .     S
C1561  H1592   1.110   .     S
C1561  C1562   1.526   .     S
C1561  H1795   1.112   1_455 S
C1562  H1594   1.110   .     S
C1562  H1593   1.111   .     S
C1562  H1595   1.111   .     S
C1563  H1598   1.115   .     S
C1563  O1621   1.414   .     S
C1563  H1596   1.114   .     S
C1563  C1565   1.529   .     S
C1564  C1571   1.398   .     A
C1564  O1622   1.384   .     S
C1565  C1566   1.526   .     S
C1565  H1600   1.112   .     S
C1565  H1599   1.112   .     S
C1567  H1604   1.111   .     S
C1567  H1605   1.116   .     S
C1567  C1568   1.533   .     S
C1567  O1622   1.416   .     S
C1568  H1606   1.112   .     S
C1568  H1607   1.111   .     S
C1569  H1609   1.111   .     S
C1569  H1611   1.111   .     S
C1569  H1610   1.111   .     S
C1569  C956    1.526   1_565 S
C1570  H1575   1.072   .     S
C1571  H1586   1.084   .     S
C1571  C636    1.398   1_556 S
C1572  H1614   1.084   .     S
C1572  C962    1.369   1_565 S
C1573  H1615   1.084   .     S
C1574  H1616   1.084   .     S
H1584  C1660   1.110   .     S
H1585  C1661   1.111   .     S
H1591  C1663   1.112   .     S
H1601  C954    1.110   1_565 S
H1602  C954    1.110   1_565 S
H1603  C954    1.111   1_565 S
N1617  Zn1631  2.019   .     S
N1618  Zn1632  2.019   .     S
O1619  Zn1631  1.992   .     S
O1623  Zn1632  1.992   .     S
O1624  Zn1632  1.990   .     S
O1625  Zn1631  1.990   .     S
O1626  Zn1631  1.937   .     S
O1627  Zn1632  1.937   .     S
O1628  Zn1632  1.929   .     S
O1629  Zn1631  1.929   .     S
C1633  O1726   1.285   .     A
C1633  O1721   1.286   .     A
C1633  C1636   1.413   .     S
C1634  H1678   1.084   .     S
C1634  C1636   1.396   .     A
C1634  C1063   1.370   1_565 S
C1635  C1675   1.396   .     A
C1635  C1644   1.413   .     S
C1635  C1676   1.396   .     A
C1636  C1674   1.396   .     A
C1637  H1679   1.081   .     S
C1637  N1720   1.368   .     A
C1637  C1741   1.419   .     S
C1638  H1680   1.079   .     S
C1638  N1719   1.367   .     A
C1639  N1719   1.367   .     A
C1639  H1681   1.079   .     S
C1640  N1720   1.367   .     A
C1640  H1682   1.082   .     S
C1640  C1740   1.419   .     S
C1641  O1730   1.294   .     A
C1641  C1643   1.459   .     S
C1641  O1728   1.298   .     A
C1642  O1729   1.298   .     A
C1642  C1645   1.470   .     S
C1642  O1731   1.299   .     A
C1643  C1650   1.400   .     A
C1643  C1648   1.406   .     A
C1644  O1727   1.285   .     A
C1644  O1725   1.286   .     A
C1645  C1651   1.396   .     A
C1645  C1649   1.413   .     A
C1646  C1648   1.390   .     A
C1646  H1714   1.076   .     S
C1646  C1654   1.402   .     A
C1647  C1656   1.397   .     A
C1647  C1649   1.401   .     A
C1647  H1715   1.074   .     S
C1648  O1722   1.386   .     S
C1649  O1732   1.387   .     S
C1650  H1710   1.075   .     S
C1650  C1652   1.399   .     A
C1651  C1653   1.398   .     A
C1651  H1699   1.078   .     S
C1652  C1657   1.423   .     A
C1652  C1654   1.418   .     A
C1653  C1658   1.409   .     A
C1653  C1656   1.407   .     A
C1654  C754    1.394   1_556 S
C1655  O1723   1.385   .     S
C1655  C1672   1.385   .     A
C1655  C1658   1.415   .     A
C1657  C1666   1.427   .     A
C1657  C740    1.412   1_556 S
C1659  H1683   1.111   .     S
C1659  O1732   1.422   .     S
C1659  H1684   1.114   .     S
C1659  C1762   1.528   .     S
C1660  C1661   1.527   .     S
C1660  H1685   1.110   .     S
C1661  H1689   1.110   .     S
C1661  H1690   1.111   .     S
C1662  O1722   1.419   .     S
C1662  H1692   1.115   .     S
C1662  H1691   1.110   .     S
C1662  C1663   1.531   .     S
C1663  H1694   1.110   .     S
C1663  C1664   1.526   .     S
C1664  H1696   1.110   .     S
C1664  H1695   1.111   .     S
C1664  H1697   1.111   .     S
C1665  H1700   1.115   .     S
C1665  O1723   1.414   .     S
C1665  H1698   1.114   .     S
C1665  C1667   1.529   .     S
C1666  C1673   1.398   .     A
C1666  O1724   1.384   .     S
C1667  C1668   1.526   .     S
C1667  H1702   1.112   .     S
C1667  H1701   1.112   .     S
C1669  H1706   1.111   .     S
C1669  H1707   1.116   .     S
C1669  C1670   1.533   .     S
C1669  O1724   1.416   .     S
C1670  H1708   1.112   .     S
C1670  H1709   1.111   .     S
C1671  H1711   1.111   .     S
C1671  H1713   1.111   .     S
C1671  H1712   1.111   .     S
C1671  C1058   1.526   1_565 S
C1672  H1677   1.072   .     S
C1673  H1688   1.084   .     S
C1673  C738    1.398   1_556 S
C1674  H1716   1.084   .     S
C1674  C1064   1.369   1_565 S
C1675  H1717   1.084   .     S
C1676  H1718   1.084   .     S
H1686  C1762   1.110   .     S
H1687  C1763   1.111   .     S
H1693  C1765   1.112   .     S
H1703  C1056   1.110   1_565 S
H1704  C1056   1.110   1_565 S
H1705  C1056   1.111   1_565 S
N1719  Zn1733  2.019   .     S
N1720  Zn1734  2.019   .     S
O1721  Zn1733  1.992   .     S
O1725  Zn1734  1.992   .     S
O1726  Zn1734  1.990   .     S
O1727  Zn1733  1.990   .     S
O1728  Zn1733  1.937   .     S
O1729  Zn1734  1.937   .     S
O1730  Zn1734  1.929   .     S
O1731  Zn1733  1.929   .     S
C1735  O1828   1.285   .     A
C1735  O1823   1.286   .     A
C1735  C1738   1.413   .     S
C1736  H1780   1.084   .     S
C1736  C1738   1.396   .     A
C1736  C1165   1.370   1_565 S
C1737  C1777   1.396   .     A
C1737  C1746   1.413   .     S
C1737  C1778   1.396   .     A
C1738  C1776   1.396   .     A
C1739  H1781   1.081   .     S
C1739  N1822   1.368   .     A
C1739  C1537   1.419   1_655 S
C1740  H1782   1.079   .     S
C1740  N1821   1.367   .     A
C1741  N1821   1.367   .     A
C1741  H1783   1.079   .     S
C1742  N1822   1.367   .     A
C1742  H1784   1.082   .     S
C1742  C1536   1.419   1_655 S
C1743  O1832   1.294   .     A
C1743  C1745   1.459   .     S
C1743  O1830   1.298   .     A
C1744  O1831   1.298   .     A
C1744  C1747   1.470   .     S
C1744  O1833   1.299   .     A
C1745  C1752   1.400   .     A
C1745  C1750   1.406   .     A
C1746  O1829   1.285   .     A
C1746  O1827   1.286   .     A
C1747  C1753   1.396   .     A
C1747  C1751   1.413   .     A
C1748  C1750   1.390   .     A
C1748  H1816   1.076   .     S
C1748  C1756   1.402   .     A
C1749  C1758   1.397   .     A
C1749  C1751   1.401   .     A
C1749  H1817   1.074   .     S
C1750  O1824   1.386   .     S
C1751  O1834   1.387   .     S
C1752  H1812   1.075   .     S
C1752  C1754   1.399   .     A
C1753  C1755   1.398   .     A
C1753  H1801   1.078   .     S
C1754  C1759   1.423   .     A
C1754  C1756   1.418   .     A
C1755  C1760   1.409   .     A
C1755  C1758   1.407   .     A
C1756  C856    1.394   1_556 S
C1757  O1825   1.385   .     S
C1757  C1774   1.385   .     A
C1757  C1760   1.415   .     A
C1759  C1768   1.427   .     A
C1759  C842    1.412   1_556 S
C1761  H1785   1.111   .     S
C1761  O1834   1.422   .     S
C1761  H1786   1.114   .     S
C1761  C1558   1.528   1_655 S
C1762  C1763   1.527   .     S
C1762  H1787   1.110   .     S
C1763  H1791   1.110   .     S
C1763  H1792   1.111   .     S
C1764  O1824   1.419   .     S
C1764  H1794   1.115   .     S
C1764  H1793   1.110   .     S
C1764  C1765   1.531   .     S
C1765  H1796   1.110   .     S
C1765  C1766   1.526   .     S
C1766  H1798   1.110   .     S
C1766  H1797   1.111   .     S
C1766  H1799   1.111   .     S
C1767  H1802   1.115   .     S
C1767  O1825   1.414   .     S
C1767  H1800   1.114   .     S
C1767  C1769   1.529   .     S
C1768  C1775   1.398   .     A
C1768  O1826   1.384   .     S
C1769  C1770   1.526   .     S
C1769  H1804   1.112   .     S
C1769  H1803   1.112   .     S
C1771  H1808   1.111   .     S
C1771  H1809   1.116   .     S
C1771  C1772   1.533   .     S
C1771  O1826   1.416   .     S
C1772  H1810   1.112   .     S
C1772  H1811   1.111   .     S
C1773  H1813   1.111   .     S
C1773  H1815   1.111   .     S
C1773  H1814   1.111   .     S
C1773  C1160   1.526   1_565 S
C1774  H1779   1.072   .     S
C1775  H1790   1.084   .     S
C1775  C840    1.398   1_556 S
C1776  H1818   1.084   .     S
C1776  C1166   1.369   1_565 S
C1777  H1819   1.084   .     S
C1778  H1820   1.084   .     S
H1788  C1558   1.110   1_655 S
H1789  C1559   1.111   1_655 S
H1795  C1561   1.112   1_655 S
H1805  C1158   1.110   1_565 S
H1806  C1158   1.110   1_565 S
H1807  C1158   1.111   1_565 S
N1821  Zn1835  2.019   .     S
N1822  Zn1836  2.019   .     S
O1823  Zn1835  1.992   .     S
O1827  Zn1836  1.992   .     S
O1828  Zn1836  1.990   .     S
O1829  Zn1835  1.990   .     S
O1830  Zn1835  1.937   .     S
O1831  Zn1836  1.937   .     S
O1832  Zn1836  1.929   .     S
O1833  Zn1835  1.929   .     S
