data_str_m3_o1_o5_pcu_sym.16
_audit_creation_date              2020-01-03
_audit_creation_method            'Materials Studio'
_symmetry_space_group_name_H-M    'P1'
_symmetry_Int_Tables_number       1
_symmetry_cell_setting            triclinic
loop_
_symmetry_equiv_pos_as_xyz
  x,y,z
_cell_length_a                    32.6561
_cell_length_b                    29.9133
_cell_length_c                    26.7247
_cell_angle_alpha                 89.9586
_cell_angle_beta                  96.3051
_cell_angle_gamma                 89.9565
loop_
_atom_site_label
_atom_site_type_symbol
_atom_site_fract_x
_atom_site_fract_y
_atom_site_fract_z
_atom_site_U_iso_or_equiv
_atom_site_adp_type
_atom_site_occupancy
C1     C     0.08661   0.16693   0.16527   0.00000  Uiso   1.00
C2     C     0.02152   0.20904   0.16984   0.00000  Uiso   1.00
C3     C     0.29118   0.16804   0.16988   0.00000  Uiso   1.00
C4     C     0.04231   0.16816   0.16461   0.00000  Uiso   1.00
C5     C     0.19340   0.02388   0.20001   0.00000  Uiso   1.00
C6     C     0.13743   0.30961   0.13627   0.00000  Uiso   1.00
C7     C     0.14004   0.02402   0.13323   0.00000  Uiso   1.00
C8     C     0.19582   0.30943   0.19713   0.00000  Uiso   1.00
C9     C     0.01859   0.07923   0.09564   0.00000  Uiso   1.00
C10    C     0.01184   0.02936   0.09050   0.00000  Uiso   1.00
C11    C     0.28566   0.26075   0.10921   0.00000  Uiso   1.00
C12    C     0.24676   0.16689   0.16832   0.00000  Uiso   1.00
C13    C     0.25280   0.29693   0.10013   0.00000  Uiso   1.00
C14    C     0.31589   0.07362   0.23294   0.00000  Uiso   1.00
C15    C     0.32147   0.02346   0.23217   0.00000  Uiso   1.00
C16    C     0.05032   0.25892   0.22713   0.00000  Uiso   1.00
C17    C     0.08222   0.29614   0.23526   0.00000  Uiso   1.00
C18    C     0.20571   0.04581   0.28183   0.00000  Uiso   1.00
C19    C     0.23322   0.07417   0.31910   0.00000  Uiso   1.00
C20    C     0.10240   0.26637   0.07263   0.00000  Uiso   1.00
C21    C     0.06487   0.27694   0.03572   0.00000  Uiso   1.00
C22    C     0.12852   0.04511   0.05103   0.00000  Uiso   1.00
C23    C     0.16665   0.16670   0.07301   0.00000  Uiso   1.00
C24    C     0.10084   0.07227   0.01265   0.00000  Uiso   1.00
C25    C     0.23073   0.26670   0.26143   0.00000  Uiso   1.00
C26    C     0.26847   0.27770   0.29781   0.00000  Uiso   1.00
C27    C     0.16667   0.16668   0.26033   0.00000  Uiso   1.00
C28    C     0.16669   0.16684   0.02182   0.00000  Uiso   1.00
C29    C     0.16663   0.16680   0.31151   0.00000  Uiso   1.00
C30    C     0.02001   0.12830   0.16039   0.00000  Uiso   1.00
C31    C     0.31209   0.20907   0.16601   0.00000  Uiso   1.00
C32    C     0.31348   0.12804   0.17326   0.00000  Uiso   1.00
H33    H     0.03952   0.09082   0.06867   0.00000  Uiso   1.00
H34    H     0.22183   0.28197   0.10069   0.00000  Uiso   1.00
H35    H     0.29636   0.08283   0.26245   0.00000  Uiso   1.00
H36    H     0.01358   0.08843   0.24436   0.00000  Uiso   1.00
H37    H     0.00905   0.01456   0.20385   0.00000  Uiso   1.00
H38    H     0.00148   0.01166   0.26989   0.00000  Uiso   1.00
H39    H     0.29157   0.00705   0.22162   0.00000  Uiso   1.00
H40    H     0.06263   0.22926   0.24933   0.00000  Uiso   1.00
H41    H     0.02157   0.27004   0.24176   0.00000  Uiso   1.00
H42    H     0.07637   0.32251   0.20615   0.00000  Uiso   1.00
H43    H     0.08119   0.31181   0.27264   0.00000  Uiso   1.00
H44    H     0.32147   0.09554   0.08441   0.00000  Uiso   1.00
H45    H     0.11348   0.28215   0.23379   0.00000  Uiso   1.00
H46    H     0.20517   0.01163   0.29723   0.00000  Uiso   1.00
H47    H     0.17376   0.05849   0.27984   0.00000  Uiso   1.00
H48    H     0.23778   0.10783   0.30314   0.00000  Uiso   1.00
H49    H     0.21908   0.07817   0.02129   0.00000  Uiso   1.00
H50    H     0.26355   0.05771   0.32839   0.00000  Uiso   1.00
H51    H     0.09947   0.23030   0.08004   0.00000  Uiso   1.00
H52    H     0.13105   0.27232   0.05451   0.00000  Uiso   1.00
H53    H     0.06395   0.31269   0.02526   0.00000  Uiso   1.00
H54    H     0.06580   0.25639   0.00143   0.00000  Uiso   1.00
H55    H     0.32158   0.01927   0.11490   0.00000  Uiso   1.00
H56    H     0.03639   0.26833   0.05252   0.00000  Uiso   1.00
H57    H     0.12949   0.01060   0.03672   0.00000  Uiso   1.00
H58    H     0.16034   0.05816   0.05287   0.00000  Uiso   1.00
H59    H     0.09757   0.10696   0.02630   0.00000  Uiso   1.00
H60    H     0.11400   0.07358   0.30960   0.00000  Uiso   1.00
H61    H     0.07001   0.05653   0.00566   0.00000  Uiso   1.00
H62    H     0.23355   0.23047   0.25478   0.00000  Uiso   1.00
H63    H     0.20214   0.27315   0.27951   0.00000  Uiso   1.00
H64    H     0.27025   0.31384   0.30635   0.00000  Uiso   1.00
H65    H     0.26718   0.25865   0.33313   0.00000  Uiso   1.00
H66    H     0.00103   0.02071   0.05084   0.00000  Uiso   1.00
H67    H     0.29673   0.26747   0.28141   0.00000  Uiso   1.00
H68    H     0.04066   0.01123   0.10288   0.00000  Uiso   1.00
H69    H     0.27546   0.23157   0.08495   0.00000  Uiso   1.00
H70    H     0.31493   0.27372   0.09763   0.00000  Uiso   1.00
H71    H     0.25748   0.32333   0.12931   0.00000  Uiso   1.00
H72    H     0.25423   0.31279   0.06286   0.00000  Uiso   1.00
N73    N     0.16667   0.28573   0.16667   0.00000  Uiso   1.00
N74    N     0.16667   0.04760   0.16667   0.00000  Uiso   1.00
O75    O     0.10559   0.20487   0.16666   0.00000  Uiso   1.00
O76    O     0.29131   0.24941   0.16087   0.00000  Uiso   1.00
O77    O     0.29623   0.08798   0.18567   0.00000  Uiso   1.00
O78    O     0.04228   0.24935   0.17520   0.00000  Uiso   1.00
O79    O     0.22061   0.04684   0.23400   0.00000  Uiso   1.00
O80    O     0.10031   0.28982   0.11813   0.00000  Uiso   1.00
O81    O     0.11334   0.04711   0.09868   0.00000  Uiso   1.00
O82    O     0.23274   0.28925   0.21535   0.00000  Uiso   1.00
O83    O     0.22774   0.12846   0.16667   0.00000  Uiso   1.00
O84    O     0.22774   0.20487   0.16667   0.00000  Uiso   1.00
O85    O     0.10559   0.12846   0.16666   0.00000  Uiso   1.00
O86    O     0.16667   0.20488   0.09511   0.00000  Uiso   1.00
O87    O     0.16666   0.12845   0.23822   0.00000  Uiso   1.00
O88    O     0.16666   0.20488   0.23822   0.00000  Uiso   1.00
O89    O     0.16667   0.12845   0.09511   0.00000  Uiso   1.00
O90    O     0.03673   0.08893   0.14509   0.00000  Uiso   1.00
Zn91   Zn    0.16667   0.21771   0.16667   0.00000  Uiso   1.00
Zn92   Zn    0.16667   0.11563   0.16667   0.00000  Uiso   1.00
C93    C     0.41994   0.16693   0.16527   0.00000  Uiso   1.00
C94    C     0.35485   0.20904   0.16984   0.00000  Uiso   1.00
C95    C     0.62451   0.16804   0.16988   0.00000  Uiso   1.00
C96    C     0.37564   0.16816   0.16461   0.00000  Uiso   1.00
C97    C     0.52674   0.02388   0.20001   0.00000  Uiso   1.00
C98    C     0.47077   0.30961   0.13627   0.00000  Uiso   1.00
C99    C     0.47337   0.02402   0.13323   0.00000  Uiso   1.00
C100   C     0.52916   0.30943   0.19713   0.00000  Uiso   1.00
C101   C     0.35193   0.07923   0.09564   0.00000  Uiso   1.00
C102   C     0.34517   0.02936   0.09050   0.00000  Uiso   1.00
C103   C     0.61899   0.26075   0.10921   0.00000  Uiso   1.00
C104   C     0.58010   0.16689   0.16832   0.00000  Uiso   1.00
C105   C     0.58614   0.29693   0.10013   0.00000  Uiso   1.00
C106   C     0.64922   0.07362   0.23294   0.00000  Uiso   1.00
C107   C     0.65481   0.02346   0.23217   0.00000  Uiso   1.00
C108   C     0.38366   0.25892   0.22713   0.00000  Uiso   1.00
C109   C     0.41556   0.29614   0.23526   0.00000  Uiso   1.00
C110   C     0.53904   0.04581   0.28183   0.00000  Uiso   1.00
C111   C     0.56655   0.07417   0.31910   0.00000  Uiso   1.00
C112   C     0.43574   0.26637   0.07263   0.00000  Uiso   1.00
C113   C     0.39821   0.27694   0.03572   0.00000  Uiso   1.00
C114   C     0.46185   0.04511   0.05103   0.00000  Uiso   1.00
C115   C     0.49998   0.16670   0.07301   0.00000  Uiso   1.00
C116   C     0.43417   0.07227   0.01265   0.00000  Uiso   1.00
C117   C     0.56406   0.26670   0.26143   0.00000  Uiso   1.00
C118   C     0.60181   0.27770   0.29781   0.00000  Uiso   1.00
C119   C     0.50001   0.16668   0.26033   0.00000  Uiso   1.00
C120   C     0.50003   0.16684   0.02182   0.00000  Uiso   1.00
C121   C     0.49997   0.16680   0.31151   0.00000  Uiso   1.00
C122   C     0.35334   0.12830   0.16039   0.00000  Uiso   1.00
C123   C     0.64543   0.20907   0.16601   0.00000  Uiso   1.00
C124   C     0.64681   0.12804   0.17326   0.00000  Uiso   1.00
H125   H     0.37285   0.09082   0.06867   0.00000  Uiso   1.00
H126   H     0.55516   0.28197   0.10069   0.00000  Uiso   1.00
H127   H     0.62970   0.08283   0.26245   0.00000  Uiso   1.00
H128   H     0.34692   0.08843   0.24436   0.00000  Uiso   1.00
H129   H     0.34238   0.01456   0.20385   0.00000  Uiso   1.00
H130   H     0.33481   0.01166   0.26989   0.00000  Uiso   1.00
H131   H     0.62490   0.00705   0.22162   0.00000  Uiso   1.00
H132   H     0.39597   0.22926   0.24933   0.00000  Uiso   1.00
H133   H     0.35491   0.27004   0.24176   0.00000  Uiso   1.00
H134   H     0.40970   0.32251   0.20615   0.00000  Uiso   1.00
H135   H     0.41453   0.31181   0.27264   0.00000  Uiso   1.00
H136   H     0.65480   0.09554   0.08441   0.00000  Uiso   1.00
H137   H     0.44682   0.28215   0.23379   0.00000  Uiso   1.00
H138   H     0.53850   0.01163   0.29723   0.00000  Uiso   1.00
H139   H     0.50709   0.05849   0.27984   0.00000  Uiso   1.00
H140   H     0.57111   0.10783   0.30314   0.00000  Uiso   1.00
H141   H     0.55242   0.07817   0.02129   0.00000  Uiso   1.00
H142   H     0.59688   0.05771   0.32839   0.00000  Uiso   1.00
H143   H     0.43280   0.23030   0.08004   0.00000  Uiso   1.00
H144   H     0.46438   0.27232   0.05451   0.00000  Uiso   1.00
H145   H     0.39728   0.31269   0.02526   0.00000  Uiso   1.00
H146   H     0.39913   0.25639   0.00143   0.00000  Uiso   1.00
H147   H     0.65491   0.01927   0.11490   0.00000  Uiso   1.00
H148   H     0.36972   0.26833   0.05252   0.00000  Uiso   1.00
H149   H     0.46282   0.01060   0.03672   0.00000  Uiso   1.00
H150   H     0.49368   0.05816   0.05287   0.00000  Uiso   1.00
H151   H     0.43091   0.10696   0.02630   0.00000  Uiso   1.00
H152   H     0.44733   0.07358   0.30960   0.00000  Uiso   1.00
H153   H     0.40334   0.05653   0.00566   0.00000  Uiso   1.00
H154   H     0.56688   0.23047   0.25478   0.00000  Uiso   1.00
H155   H     0.53547   0.27315   0.27951   0.00000  Uiso   1.00
H156   H     0.60359   0.31384   0.30635   0.00000  Uiso   1.00
H157   H     0.60051   0.25865   0.33313   0.00000  Uiso   1.00
H158   H     0.33436   0.02071   0.05084   0.00000  Uiso   1.00
H159   H     0.63006   0.26747   0.28141   0.00000  Uiso   1.00
H160   H     0.37400   0.01123   0.10288   0.00000  Uiso   1.00
H161   H     0.60880   0.23157   0.08495   0.00000  Uiso   1.00
H162   H     0.64826   0.27372   0.09763   0.00000  Uiso   1.00
H163   H     0.59081   0.32333   0.12931   0.00000  Uiso   1.00
H164   H     0.58756   0.31279   0.06286   0.00000  Uiso   1.00
N165   N     0.50000   0.28573   0.16667   0.00000  Uiso   1.00
N166   N     0.50000   0.04760   0.16667   0.00000  Uiso   1.00
O167   O     0.43892   0.20487   0.16666   0.00000  Uiso   1.00
O168   O     0.62465   0.24941   0.16087   0.00000  Uiso   1.00
O169   O     0.62957   0.08798   0.18567   0.00000  Uiso   1.00
O170   O     0.37561   0.24935   0.17520   0.00000  Uiso   1.00
O171   O     0.55394   0.04684   0.23400   0.00000  Uiso   1.00
O172   O     0.43364   0.28982   0.11813   0.00000  Uiso   1.00
O173   O     0.44668   0.04711   0.09868   0.00000  Uiso   1.00
O174   O     0.56607   0.28925   0.21535   0.00000  Uiso   1.00
O175   O     0.56108   0.12846   0.16667   0.00000  Uiso   1.00
O176   O     0.56108   0.20487   0.16667   0.00000  Uiso   1.00
O177   O     0.43892   0.12846   0.16666   0.00000  Uiso   1.00
O178   O     0.50000   0.20488   0.09511   0.00000  Uiso   1.00
O179   O     0.50000   0.12845   0.23822   0.00000  Uiso   1.00
O180   O     0.50000   0.20488   0.23822   0.00000  Uiso   1.00
O181   O     0.50000   0.12845   0.09511   0.00000  Uiso   1.00
O182   O     0.37007   0.08893   0.14509   0.00000  Uiso   1.00
Zn183  Zn    0.50000   0.21771   0.16667   0.00000  Uiso   1.00
Zn184  Zn    0.50000   0.11563   0.16667   0.00000  Uiso   1.00
C185   C     0.75327   0.16693   0.16527   0.00000  Uiso   1.00
C186   C     0.68819   0.20904   0.16984   0.00000  Uiso   1.00
C187   C     0.95785   0.16804   0.16988   0.00000  Uiso   1.00
C188   C     0.70898   0.16816   0.16461   0.00000  Uiso   1.00
C189   C     0.86007   0.02388   0.20001   0.00000  Uiso   1.00
C190   C     0.80410   0.30961   0.13627   0.00000  Uiso   1.00
C191   C     0.80670   0.02402   0.13323   0.00000  Uiso   1.00
C192   C     0.86249   0.30943   0.19713   0.00000  Uiso   1.00
C193   C     0.68526   0.07923   0.09564   0.00000  Uiso   1.00
C194   C     0.67850   0.02936   0.09050   0.00000  Uiso   1.00
C195   C     0.95232   0.26075   0.10921   0.00000  Uiso   1.00
C196   C     0.91343   0.16689   0.16832   0.00000  Uiso   1.00
C197   C     0.91947   0.29693   0.10013   0.00000  Uiso   1.00
C198   C     0.98255   0.07362   0.23294   0.00000  Uiso   1.00
C199   C     0.98814   0.02346   0.23217   0.00000  Uiso   1.00
C200   C     0.71699   0.25892   0.22713   0.00000  Uiso   1.00
C201   C     0.74889   0.29614   0.23526   0.00000  Uiso   1.00
C202   C     0.87238   0.04581   0.28183   0.00000  Uiso   1.00
C203   C     0.89988   0.07417   0.31910   0.00000  Uiso   1.00
C204   C     0.76907   0.26637   0.07263   0.00000  Uiso   1.00
C205   C     0.73154   0.27694   0.03572   0.00000  Uiso   1.00
C206   C     0.79518   0.04511   0.05103   0.00000  Uiso   1.00
C207   C     0.83332   0.16670   0.07301   0.00000  Uiso   1.00
C208   C     0.76750   0.07227   0.01265   0.00000  Uiso   1.00
C209   C     0.89740   0.26670   0.26143   0.00000  Uiso   1.00
C210   C     0.93514   0.27770   0.29781   0.00000  Uiso   1.00
C211   C     0.83334   0.16668   0.26033   0.00000  Uiso   1.00
C212   C     0.83336   0.16684   0.02182   0.00000  Uiso   1.00
C213   C     0.83330   0.16680   0.31151   0.00000  Uiso   1.00
C214   C     0.68668   0.12830   0.16039   0.00000  Uiso   1.00
C215   C     0.97876   0.20907   0.16601   0.00000  Uiso   1.00
C216   C     0.98015   0.12804   0.17326   0.00000  Uiso   1.00
H217   H     0.70618   0.09082   0.06867   0.00000  Uiso   1.00
H218   H     0.88849   0.28197   0.10069   0.00000  Uiso   1.00
H219   H     0.96303   0.08283   0.26245   0.00000  Uiso   1.00
H220   H     0.68025   0.08843   0.24436   0.00000  Uiso   1.00
H221   H     0.67571   0.01456   0.20385   0.00000  Uiso   1.00
H222   H     0.66815   0.01166   0.26989   0.00000  Uiso   1.00
H223   H     0.95823   0.00705   0.22162   0.00000  Uiso   1.00
H224   H     0.72930   0.22926   0.24933   0.00000  Uiso   1.00
H225   H     0.68824   0.27004   0.24176   0.00000  Uiso   1.00
H226   H     0.74304   0.32251   0.20615   0.00000  Uiso   1.00
H227   H     0.74786   0.31181   0.27264   0.00000  Uiso   1.00
H228   H     0.98813   0.09554   0.08441   0.00000  Uiso   1.00
H229   H     0.78015   0.28215   0.23379   0.00000  Uiso   1.00
H230   H     0.87184   0.01163   0.29723   0.00000  Uiso   1.00
H231   H     0.84043   0.05849   0.27984   0.00000  Uiso   1.00
H232   H     0.90445   0.10783   0.30314   0.00000  Uiso   1.00
H233   H     0.88575   0.07817   0.02129   0.00000  Uiso   1.00
H234   H     0.93022   0.05771   0.32839   0.00000  Uiso   1.00
H235   H     0.76614   0.23030   0.08004   0.00000  Uiso   1.00
H236   H     0.79772   0.27232   0.05451   0.00000  Uiso   1.00
H237   H     0.73062   0.31269   0.02526   0.00000  Uiso   1.00
H238   H     0.73247   0.25639   0.00143   0.00000  Uiso   1.00
H239   H     0.98825   0.01927   0.11490   0.00000  Uiso   1.00
H240   H     0.70306   0.26833   0.05252   0.00000  Uiso   1.00
H241   H     0.79615   0.01060   0.03672   0.00000  Uiso   1.00
H242   H     0.82701   0.05816   0.05287   0.00000  Uiso   1.00
H243   H     0.76424   0.10696   0.02630   0.00000  Uiso   1.00
H244   H     0.78066   0.07358   0.30960   0.00000  Uiso   1.00
H245   H     0.73667   0.05653   0.00566   0.00000  Uiso   1.00
H246   H     0.90021   0.23047   0.25478   0.00000  Uiso   1.00
H247   H     0.86880   0.27315   0.27951   0.00000  Uiso   1.00
H248   H     0.93692   0.31384   0.30635   0.00000  Uiso   1.00
H249   H     0.93385   0.25865   0.33313   0.00000  Uiso   1.00
H250   H     0.66769   0.02071   0.05084   0.00000  Uiso   1.00
H251   H     0.96339   0.26747   0.28141   0.00000  Uiso   1.00
H252   H     0.70733   0.01123   0.10288   0.00000  Uiso   1.00
H253   H     0.94213   0.23157   0.08495   0.00000  Uiso   1.00
H254   H     0.98160   0.27372   0.09763   0.00000  Uiso   1.00
H255   H     0.92415   0.32333   0.12931   0.00000  Uiso   1.00
H256   H     0.92090   0.31279   0.06286   0.00000  Uiso   1.00
N257   N     0.83333   0.28573   0.16667   0.00000  Uiso   1.00
N258   N     0.83333   0.04760   0.16667   0.00000  Uiso   1.00
O259   O     0.77226   0.20487   0.16666   0.00000  Uiso   1.00
O260   O     0.95798   0.24941   0.16087   0.00000  Uiso   1.00
O261   O     0.96290   0.08798   0.18567   0.00000  Uiso   1.00
O262   O     0.70894   0.24935   0.17520   0.00000  Uiso   1.00
O263   O     0.88728   0.04684   0.23400   0.00000  Uiso   1.00
O264   O     0.76698   0.28982   0.11813   0.00000  Uiso   1.00
O265   O     0.78001   0.04711   0.09868   0.00000  Uiso   1.00
O266   O     0.89940   0.28925   0.21535   0.00000  Uiso   1.00
O267   O     0.89441   0.12846   0.16667   0.00000  Uiso   1.00
O268   O     0.89441   0.20487   0.16667   0.00000  Uiso   1.00
O269   O     0.77226   0.12846   0.16666   0.00000  Uiso   1.00
O270   O     0.83334   0.20488   0.09511   0.00000  Uiso   1.00
O271   O     0.83333   0.12845   0.23822   0.00000  Uiso   1.00
O272   O     0.83333   0.20488   0.23822   0.00000  Uiso   1.00
O273   O     0.83334   0.12845   0.09511   0.00000  Uiso   1.00
O274   O     0.70340   0.08893   0.14509   0.00000  Uiso   1.00
Zn275  Zn    0.83333   0.21771   0.16667   0.00000  Uiso   1.00
Zn276  Zn    0.83333   0.11563   0.16667   0.00000  Uiso   1.00
C277   C     0.08661   0.50027   0.16527   0.00000  Uiso   1.00
C278   C     0.02152   0.54238   0.16984   0.00000  Uiso   1.00
C279   C     0.29118   0.50137   0.16988   0.00000  Uiso   1.00
C280   C     0.04231   0.50150   0.16461   0.00000  Uiso   1.00
C281   C     0.19340   0.35722   0.20001   0.00000  Uiso   1.00
C282   C     0.13743   0.64295   0.13627   0.00000  Uiso   1.00
C283   C     0.14004   0.35736   0.13323   0.00000  Uiso   1.00
C284   C     0.19582   0.64277   0.19713   0.00000  Uiso   1.00
C285   C     0.01859   0.41256   0.09564   0.00000  Uiso   1.00
C286   C     0.01184   0.36270   0.09050   0.00000  Uiso   1.00
C287   C     0.28566   0.59408   0.10921   0.00000  Uiso   1.00
C288   C     0.24676   0.50022   0.16832   0.00000  Uiso   1.00
C289   C     0.25280   0.63026   0.10013   0.00000  Uiso   1.00
C290   C     0.31589   0.40695   0.23294   0.00000  Uiso   1.00
C291   C     0.32147   0.35680   0.23217   0.00000  Uiso   1.00
C292   C     0.05032   0.59225   0.22713   0.00000  Uiso   1.00
C293   C     0.08222   0.62947   0.23526   0.00000  Uiso   1.00
C294   C     0.20571   0.37914   0.28183   0.00000  Uiso   1.00
C295   C     0.23322   0.40750   0.31910   0.00000  Uiso   1.00
C296   C     0.10240   0.59971   0.07263   0.00000  Uiso   1.00
C297   C     0.06487   0.61028   0.03572   0.00000  Uiso   1.00
C298   C     0.12852   0.37844   0.05103   0.00000  Uiso   1.00
C299   C     0.16665   0.50003   0.07301   0.00000  Uiso   1.00
C300   C     0.10084   0.40560   0.01265   0.00000  Uiso   1.00
C301   C     0.23073   0.60003   0.26143   0.00000  Uiso   1.00
C302   C     0.26847   0.61103   0.29781   0.00000  Uiso   1.00
C303   C     0.16667   0.50001   0.26033   0.00000  Uiso   1.00
C304   C     0.16669   0.50017   0.02182   0.00000  Uiso   1.00
C305   C     0.16663   0.50014   0.31151   0.00000  Uiso   1.00
C306   C     0.02001   0.46163   0.16039   0.00000  Uiso   1.00
C307   C     0.31209   0.54240   0.16601   0.00000  Uiso   1.00
C308   C     0.31348   0.46138   0.17326   0.00000  Uiso   1.00
H309   H     0.03952   0.42415   0.06867   0.00000  Uiso   1.00
H310   H     0.22183   0.61530   0.10069   0.00000  Uiso   1.00
H311   H     0.29636   0.41617   0.26245   0.00000  Uiso   1.00
H312   H     0.01358   0.42177   0.24436   0.00000  Uiso   1.00
H313   H     0.00905   0.34789   0.20385   0.00000  Uiso   1.00
H314   H     0.00148   0.34499   0.26989   0.00000  Uiso   1.00
H315   H     0.29157   0.34038   0.22162   0.00000  Uiso   1.00
H316   H     0.06263   0.56260   0.24933   0.00000  Uiso   1.00
H317   H     0.02157   0.60338   0.24176   0.00000  Uiso   1.00
H318   H     0.07637   0.65585   0.20615   0.00000  Uiso   1.00
H319   H     0.08119   0.64514   0.27264   0.00000  Uiso   1.00
H320   H     0.32147   0.42887   0.08441   0.00000  Uiso   1.00
H321   H     0.11348   0.61549   0.23379   0.00000  Uiso   1.00
H322   H     0.20517   0.34497   0.29723   0.00000  Uiso   1.00
H323   H     0.17376   0.39182   0.27984   0.00000  Uiso   1.00
H324   H     0.23778   0.44116   0.30314   0.00000  Uiso   1.00
H325   H     0.21908   0.41150   0.02129   0.00000  Uiso   1.00
H326   H     0.26355   0.39105   0.32839   0.00000  Uiso   1.00
H327   H     0.09947   0.56363   0.08004   0.00000  Uiso   1.00
H328   H     0.13105   0.60565   0.05451   0.00000  Uiso   1.00
H329   H     0.06395   0.64603   0.02526   0.00000  Uiso   1.00
H330   H     0.06580   0.58972   0.00143   0.00000  Uiso   1.00
H331   H     0.32158   0.35260   0.11490   0.00000  Uiso   1.00
H332   H     0.03639   0.60166   0.05252   0.00000  Uiso   1.00
H333   H     0.12949   0.34393   0.03672   0.00000  Uiso   1.00
H334   H     0.16034   0.39149   0.05287   0.00000  Uiso   1.00
H335   H     0.09757   0.44030   0.02630   0.00000  Uiso   1.00
H336   H     0.11400   0.40691   0.30960   0.00000  Uiso   1.00
H337   H     0.07001   0.38986   0.00566   0.00000  Uiso   1.00
H338   H     0.23355   0.56381   0.25478   0.00000  Uiso   1.00
H339   H     0.20214   0.60648   0.27951   0.00000  Uiso   1.00
H340   H     0.27025   0.64718   0.30635   0.00000  Uiso   1.00
H341   H     0.26718   0.59198   0.33313   0.00000  Uiso   1.00
H342   H     0.00103   0.35404   0.05084   0.00000  Uiso   1.00
H343   H     0.29673   0.60081   0.28141   0.00000  Uiso   1.00
H344   H     0.04066   0.34457   0.10288   0.00000  Uiso   1.00
H345   H     0.27546   0.56490   0.08495   0.00000  Uiso   1.00
H346   H     0.31493   0.60705   0.09763   0.00000  Uiso   1.00
H347   H     0.25748   0.65666   0.12931   0.00000  Uiso   1.00
H348   H     0.25423   0.64612   0.06286   0.00000  Uiso   1.00
N349   N     0.16667   0.61907   0.16667   0.00000  Uiso   1.00
N350   N     0.16667   0.38093   0.16667   0.00000  Uiso   1.00
O351   O     0.10559   0.53821   0.16666   0.00000  Uiso   1.00
O352   O     0.29131   0.58274   0.16087   0.00000  Uiso   1.00
O353   O     0.29623   0.42131   0.18567   0.00000  Uiso   1.00
O354   O     0.04228   0.58268   0.17520   0.00000  Uiso   1.00
O355   O     0.22061   0.38017   0.23400   0.00000  Uiso   1.00
O356   O     0.10031   0.62315   0.11813   0.00000  Uiso   1.00
O357   O     0.11334   0.38044   0.09868   0.00000  Uiso   1.00
O358   O     0.23274   0.62259   0.21535   0.00000  Uiso   1.00
O359   O     0.22774   0.46179   0.16667   0.00000  Uiso   1.00
O360   O     0.22774   0.53821   0.16667   0.00000  Uiso   1.00
O361   O     0.10559   0.46179   0.16666   0.00000  Uiso   1.00
O362   O     0.16667   0.53821   0.09511   0.00000  Uiso   1.00
O363   O     0.16666   0.46179   0.23822   0.00000  Uiso   1.00
O364   O     0.16666   0.53821   0.23822   0.00000  Uiso   1.00
O365   O     0.16667   0.46179   0.09511   0.00000  Uiso   1.00
O366   O     0.03673   0.42226   0.14509   0.00000  Uiso   1.00
Zn367  Zn    0.16667   0.55104   0.16667   0.00000  Uiso   1.00
Zn368  Zn    0.16667   0.44896   0.16667   0.00000  Uiso   1.00
C369   C     0.41994   0.50027   0.16527   0.00000  Uiso   1.00
C370   C     0.35485   0.54238   0.16984   0.00000  Uiso   1.00
C371   C     0.62451   0.50137   0.16988   0.00000  Uiso   1.00
C372   C     0.37564   0.50150   0.16461   0.00000  Uiso   1.00
C373   C     0.52674   0.35722   0.20001   0.00000  Uiso   1.00
C374   C     0.47077   0.64295   0.13627   0.00000  Uiso   1.00
C375   C     0.47337   0.35736   0.13323   0.00000  Uiso   1.00
C376   C     0.52916   0.64277   0.19713   0.00000  Uiso   1.00
C377   C     0.35193   0.41256   0.09564   0.00000  Uiso   1.00
C378   C     0.34517   0.36270   0.09050   0.00000  Uiso   1.00
C379   C     0.61899   0.59408   0.10921   0.00000  Uiso   1.00
C380   C     0.58010   0.50022   0.16832   0.00000  Uiso   1.00
C381   C     0.58614   0.63026   0.10013   0.00000  Uiso   1.00
C382   C     0.64922   0.40695   0.23294   0.00000  Uiso   1.00
C383   C     0.65481   0.35680   0.23217   0.00000  Uiso   1.00
C384   C     0.38366   0.59225   0.22713   0.00000  Uiso   1.00
C385   C     0.41556   0.62947   0.23526   0.00000  Uiso   1.00
C386   C     0.53904   0.37914   0.28183   0.00000  Uiso   1.00
C387   C     0.56655   0.40750   0.31910   0.00000  Uiso   1.00
C388   C     0.43574   0.59971   0.07263   0.00000  Uiso   1.00
C389   C     0.39821   0.61028   0.03572   0.00000  Uiso   1.00
C390   C     0.46185   0.37844   0.05103   0.00000  Uiso   1.00
C391   C     0.49998   0.50003   0.07301   0.00000  Uiso   1.00
C392   C     0.43417   0.40560   0.01265   0.00000  Uiso   1.00
C393   C     0.56406   0.60003   0.26143   0.00000  Uiso   1.00
C394   C     0.60181   0.61103   0.29781   0.00000  Uiso   1.00
C395   C     0.50001   0.50001   0.26033   0.00000  Uiso   1.00
C396   C     0.50003   0.50017   0.02182   0.00000  Uiso   1.00
C397   C     0.49997   0.50014   0.31151   0.00000  Uiso   1.00
C398   C     0.35334   0.46163   0.16039   0.00000  Uiso   1.00
C399   C     0.64543   0.54240   0.16601   0.00000  Uiso   1.00
C400   C     0.64681   0.46138   0.17326   0.00000  Uiso   1.00
H401   H     0.37285   0.42415   0.06867   0.00000  Uiso   1.00
H402   H     0.55516   0.61530   0.10069   0.00000  Uiso   1.00
H403   H     0.62970   0.41617   0.26245   0.00000  Uiso   1.00
H404   H     0.34692   0.42177   0.24436   0.00000  Uiso   1.00
H405   H     0.34238   0.34789   0.20385   0.00000  Uiso   1.00
H406   H     0.33481   0.34499   0.26989   0.00000  Uiso   1.00
H407   H     0.62490   0.34038   0.22162   0.00000  Uiso   1.00
H408   H     0.39597   0.56260   0.24933   0.00000  Uiso   1.00
H409   H     0.35491   0.60338   0.24176   0.00000  Uiso   1.00
H410   H     0.40970   0.65585   0.20615   0.00000  Uiso   1.00
H411   H     0.41453   0.64514   0.27264   0.00000  Uiso   1.00
H412   H     0.65480   0.42887   0.08441   0.00000  Uiso   1.00
H413   H     0.44682   0.61549   0.23379   0.00000  Uiso   1.00
H414   H     0.53850   0.34497   0.29723   0.00000  Uiso   1.00
H415   H     0.50709   0.39182   0.27984   0.00000  Uiso   1.00
H416   H     0.57111   0.44116   0.30314   0.00000  Uiso   1.00
H417   H     0.55242   0.41150   0.02129   0.00000  Uiso   1.00
H418   H     0.59688   0.39105   0.32839   0.00000  Uiso   1.00
H419   H     0.43280   0.56363   0.08004   0.00000  Uiso   1.00
H420   H     0.46438   0.60565   0.05451   0.00000  Uiso   1.00
H421   H     0.39728   0.64603   0.02526   0.00000  Uiso   1.00
H422   H     0.39913   0.58972   0.00143   0.00000  Uiso   1.00
H423   H     0.65491   0.35260   0.11490   0.00000  Uiso   1.00
H424   H     0.36972   0.60166   0.05252   0.00000  Uiso   1.00
H425   H     0.46282   0.34393   0.03672   0.00000  Uiso   1.00
H426   H     0.49368   0.39149   0.05287   0.00000  Uiso   1.00
H427   H     0.43091   0.44030   0.02630   0.00000  Uiso   1.00
H428   H     0.44733   0.40691   0.30960   0.00000  Uiso   1.00
H429   H     0.40334   0.38986   0.00566   0.00000  Uiso   1.00
H430   H     0.56688   0.56381   0.25478   0.00000  Uiso   1.00
H431   H     0.53547   0.60648   0.27951   0.00000  Uiso   1.00
H432   H     0.60359   0.64718   0.30635   0.00000  Uiso   1.00
H433   H     0.60051   0.59198   0.33313   0.00000  Uiso   1.00
H434   H     0.33436   0.35404   0.05084   0.00000  Uiso   1.00
H435   H     0.63006   0.60081   0.28141   0.00000  Uiso   1.00
H436   H     0.37400   0.34457   0.10288   0.00000  Uiso   1.00
H437   H     0.60880   0.56490   0.08495   0.00000  Uiso   1.00
H438   H     0.64826   0.60705   0.09763   0.00000  Uiso   1.00
H439   H     0.59081   0.65666   0.12931   0.00000  Uiso   1.00
H440   H     0.58756   0.64612   0.06286   0.00000  Uiso   1.00
N441   N     0.50000   0.61907   0.16667   0.00000  Uiso   1.00
N442   N     0.50000   0.38093   0.16667   0.00000  Uiso   1.00
O443   O     0.43892   0.53821   0.16666   0.00000  Uiso   1.00
O444   O     0.62465   0.58274   0.16087   0.00000  Uiso   1.00
O445   O     0.62957   0.42131   0.18567   0.00000  Uiso   1.00
O446   O     0.37561   0.58268   0.17520   0.00000  Uiso   1.00
O447   O     0.55394   0.38017   0.23400   0.00000  Uiso   1.00
O448   O     0.43364   0.62315   0.11813   0.00000  Uiso   1.00
O449   O     0.44668   0.38044   0.09868   0.00000  Uiso   1.00
O450   O     0.56607   0.62259   0.21535   0.00000  Uiso   1.00
O451   O     0.56108   0.46179   0.16667   0.00000  Uiso   1.00
O452   O     0.56108   0.53821   0.16667   0.00000  Uiso   1.00
O453   O     0.43892   0.46179   0.16666   0.00000  Uiso   1.00
O454   O     0.50000   0.53821   0.09511   0.00000  Uiso   1.00
O455   O     0.50000   0.46179   0.23822   0.00000  Uiso   1.00
O456   O     0.50000   0.53821   0.23822   0.00000  Uiso   1.00
O457   O     0.50000   0.46179   0.09511   0.00000  Uiso   1.00
O458   O     0.37007   0.42226   0.14509   0.00000  Uiso   1.00
Zn459  Zn    0.50000   0.55104   0.16667   0.00000  Uiso   1.00
Zn460  Zn    0.50000   0.44896   0.16667   0.00000  Uiso   1.00
C461   C     0.75327   0.50027   0.16527   0.00000  Uiso   1.00
C462   C     0.68819   0.54238   0.16984   0.00000  Uiso   1.00
C463   C     0.95785   0.50137   0.16988   0.00000  Uiso   1.00
C464   C     0.70898   0.50150   0.16461   0.00000  Uiso   1.00
C465   C     0.86007   0.35722   0.20001   0.00000  Uiso   1.00
C466   C     0.80410   0.64295   0.13627   0.00000  Uiso   1.00
C467   C     0.80670   0.35736   0.13323   0.00000  Uiso   1.00
C468   C     0.86249   0.64277   0.19713   0.00000  Uiso   1.00
C469   C     0.68526   0.41256   0.09564   0.00000  Uiso   1.00
C470   C     0.67850   0.36270   0.09050   0.00000  Uiso   1.00
C471   C     0.95232   0.59408   0.10921   0.00000  Uiso   1.00
C472   C     0.91343   0.50022   0.16832   0.00000  Uiso   1.00
C473   C     0.91947   0.63026   0.10013   0.00000  Uiso   1.00
C474   C     0.98255   0.40695   0.23294   0.00000  Uiso   1.00
C475   C     0.98814   0.35680   0.23217   0.00000  Uiso   1.00
C476   C     0.71699   0.59225   0.22713   0.00000  Uiso   1.00
C477   C     0.74889   0.62947   0.23526   0.00000  Uiso   1.00
C478   C     0.87238   0.37914   0.28183   0.00000  Uiso   1.00
C479   C     0.89988   0.40750   0.31910   0.00000  Uiso   1.00
C480   C     0.76907   0.59971   0.07263   0.00000  Uiso   1.00
C481   C     0.73154   0.61028   0.03572   0.00000  Uiso   1.00
C482   C     0.79518   0.37844   0.05103   0.00000  Uiso   1.00
C483   C     0.83332   0.50003   0.07301   0.00000  Uiso   1.00
C484   C     0.76750   0.40560   0.01265   0.00000  Uiso   1.00
C485   C     0.89740   0.60003   0.26143   0.00000  Uiso   1.00
C486   C     0.93514   0.61103   0.29781   0.00000  Uiso   1.00
C487   C     0.83334   0.50001   0.26033   0.00000  Uiso   1.00
C488   C     0.83336   0.50017   0.02182   0.00000  Uiso   1.00
C489   C     0.83330   0.50014   0.31151   0.00000  Uiso   1.00
C490   C     0.68668   0.46163   0.16039   0.00000  Uiso   1.00
C491   C     0.97876   0.54240   0.16601   0.00000  Uiso   1.00
C492   C     0.98015   0.46138   0.17326   0.00000  Uiso   1.00
H493   H     0.70618   0.42415   0.06867   0.00000  Uiso   1.00
H494   H     0.88849   0.61530   0.10069   0.00000  Uiso   1.00
H495   H     0.96303   0.41617   0.26245   0.00000  Uiso   1.00
H496   H     0.68025   0.42177   0.24436   0.00000  Uiso   1.00
H497   H     0.67571   0.34789   0.20385   0.00000  Uiso   1.00
H498   H     0.66815   0.34499   0.26989   0.00000  Uiso   1.00
H499   H     0.95823   0.34038   0.22162   0.00000  Uiso   1.00
H500   H     0.72930   0.56260   0.24933   0.00000  Uiso   1.00
H501   H     0.68824   0.60338   0.24176   0.00000  Uiso   1.00
H502   H     0.74304   0.65585   0.20615   0.00000  Uiso   1.00
H503   H     0.74786   0.64514   0.27264   0.00000  Uiso   1.00
H504   H     0.98813   0.42887   0.08441   0.00000  Uiso   1.00
H505   H     0.78015   0.61549   0.23379   0.00000  Uiso   1.00
H506   H     0.87184   0.34497   0.29723   0.00000  Uiso   1.00
H507   H     0.84043   0.39182   0.27984   0.00000  Uiso   1.00
H508   H     0.90445   0.44116   0.30314   0.00000  Uiso   1.00
H509   H     0.88575   0.41150   0.02129   0.00000  Uiso   1.00
H510   H     0.93022   0.39105   0.32839   0.00000  Uiso   1.00
H511   H     0.76614   0.56363   0.08004   0.00000  Uiso   1.00
H512   H     0.79772   0.60565   0.05451   0.00000  Uiso   1.00
H513   H     0.73062   0.64603   0.02526   0.00000  Uiso   1.00
H514   H     0.73247   0.58972   0.00143   0.00000  Uiso   1.00
H515   H     0.98825   0.35260   0.11490   0.00000  Uiso   1.00
H516   H     0.70306   0.60166   0.05252   0.00000  Uiso   1.00
H517   H     0.79615   0.34393   0.03672   0.00000  Uiso   1.00
H518   H     0.82701   0.39149   0.05287   0.00000  Uiso   1.00
H519   H     0.76424   0.44030   0.02630   0.00000  Uiso   1.00
H520   H     0.78066   0.40691   0.30960   0.00000  Uiso   1.00
H521   H     0.73667   0.38986   0.00566   0.00000  Uiso   1.00
H522   H     0.90021   0.56381   0.25478   0.00000  Uiso   1.00
H523   H     0.86880   0.60648   0.27951   0.00000  Uiso   1.00
H524   H     0.93692   0.64718   0.30635   0.00000  Uiso   1.00
H525   H     0.93385   0.59198   0.33313   0.00000  Uiso   1.00
H526   H     0.66769   0.35404   0.05084   0.00000  Uiso   1.00
H527   H     0.96339   0.60081   0.28141   0.00000  Uiso   1.00
H528   H     0.70733   0.34457   0.10288   0.00000  Uiso   1.00
H529   H     0.94213   0.56490   0.08495   0.00000  Uiso   1.00
H530   H     0.98160   0.60705   0.09763   0.00000  Uiso   1.00
H531   H     0.92415   0.65666   0.12931   0.00000  Uiso   1.00
H532   H     0.92090   0.64612   0.06286   0.00000  Uiso   1.00
N533   N     0.83333   0.61907   0.16667   0.00000  Uiso   1.00
N534   N     0.83333   0.38093   0.16667   0.00000  Uiso   1.00
O535   O     0.77226   0.53821   0.16666   0.00000  Uiso   1.00
O536   O     0.95798   0.58274   0.16087   0.00000  Uiso   1.00
O537   O     0.96290   0.42131   0.18567   0.00000  Uiso   1.00
O538   O     0.70894   0.58268   0.17520   0.00000  Uiso   1.00
O539   O     0.88728   0.38017   0.23400   0.00000  Uiso   1.00
O540   O     0.76698   0.62315   0.11813   0.00000  Uiso   1.00
O541   O     0.78001   0.38044   0.09868   0.00000  Uiso   1.00
O542   O     0.89940   0.62259   0.21535   0.00000  Uiso   1.00
O543   O     0.89441   0.46179   0.16667   0.00000  Uiso   1.00
O544   O     0.89441   0.53821   0.16667   0.00000  Uiso   1.00
O545   O     0.77226   0.46179   0.16666   0.00000  Uiso   1.00
O546   O     0.83334   0.53821   0.09511   0.00000  Uiso   1.00
O547   O     0.83333   0.46179   0.23822   0.00000  Uiso   1.00
O548   O     0.83333   0.53821   0.23822   0.00000  Uiso   1.00
O549   O     0.83334   0.46179   0.09511   0.00000  Uiso   1.00
O550   O     0.70340   0.42226   0.14509   0.00000  Uiso   1.00
Zn551  Zn    0.83333   0.55104   0.16667   0.00000  Uiso   1.00
Zn552  Zn    0.83333   0.44896   0.16667   0.00000  Uiso   1.00
C553   C     0.08661   0.83360   0.16527   0.00000  Uiso   1.00
C554   C     0.02152   0.87571   0.16984   0.00000  Uiso   1.00
C555   C     0.29118   0.83470   0.16988   0.00000  Uiso   1.00
C556   C     0.04231   0.83483   0.16461   0.00000  Uiso   1.00
C557   C     0.19340   0.69055   0.20001   0.00000  Uiso   1.00
C558   C     0.13743   0.97628   0.13627   0.00000  Uiso   1.00
C559   C     0.14004   0.69069   0.13323   0.00000  Uiso   1.00
C560   C     0.19582   0.97610   0.19713   0.00000  Uiso   1.00
C561   C     0.01859   0.74590   0.09564   0.00000  Uiso   1.00
C562   C     0.01184   0.69603   0.09050   0.00000  Uiso   1.00
C563   C     0.28566   0.92741   0.10921   0.00000  Uiso   1.00
C564   C     0.24676   0.83356   0.16832   0.00000  Uiso   1.00
C565   C     0.25280   0.96360   0.10013   0.00000  Uiso   1.00
C566   C     0.31589   0.74028   0.23294   0.00000  Uiso   1.00
C567   C     0.32147   0.69013   0.23217   0.00000  Uiso   1.00
C568   C     0.05032   0.92558   0.22713   0.00000  Uiso   1.00
C569   C     0.08222   0.96281   0.23526   0.00000  Uiso   1.00
C570   C     0.20571   0.71248   0.28183   0.00000  Uiso   1.00
C571   C     0.23322   0.74083   0.31910   0.00000  Uiso   1.00
C572   C     0.10240   0.93304   0.07263   0.00000  Uiso   1.00
C573   C     0.06487   0.94361   0.03572   0.00000  Uiso   1.00
C574   C     0.12852   0.71177   0.05103   0.00000  Uiso   1.00
C575   C     0.16665   0.83337   0.07301   0.00000  Uiso   1.00
C576   C     0.10084   0.73894   0.01265   0.00000  Uiso   1.00
C577   C     0.23073   0.93337   0.26143   0.00000  Uiso   1.00
C578   C     0.26847   0.94437   0.29781   0.00000  Uiso   1.00
C579   C     0.16667   0.83334   0.26033   0.00000  Uiso   1.00
C580   C     0.16669   0.83350   0.02182   0.00000  Uiso   1.00
C581   C     0.16663   0.83347   0.31151   0.00000  Uiso   1.00
C582   C     0.02001   0.79497   0.16039   0.00000  Uiso   1.00
C583   C     0.31209   0.87573   0.16601   0.00000  Uiso   1.00
C584   C     0.31348   0.79471   0.17326   0.00000  Uiso   1.00
H585   H     0.03952   0.75748   0.06867   0.00000  Uiso   1.00
H586   H     0.22183   0.94863   0.10069   0.00000  Uiso   1.00
H587   H     0.29636   0.74950   0.26245   0.00000  Uiso   1.00
H588   H     0.01358   0.75510   0.24436   0.00000  Uiso   1.00
H589   H     0.00905   0.68123   0.20385   0.00000  Uiso   1.00
H590   H     0.00148   0.67833   0.26989   0.00000  Uiso   1.00
H591   H     0.29157   0.67372   0.22162   0.00000  Uiso   1.00
H592   H     0.06263   0.89593   0.24933   0.00000  Uiso   1.00
H593   H     0.02157   0.93671   0.24176   0.00000  Uiso   1.00
H594   H     0.07637   0.98918   0.20615   0.00000  Uiso   1.00
H595   H     0.08119   0.97847   0.27264   0.00000  Uiso   1.00
H596   H     0.32147   0.76221   0.08441   0.00000  Uiso   1.00
H597   H     0.11348   0.94882   0.23379   0.00000  Uiso   1.00
H598   H     0.20517   0.67830   0.29723   0.00000  Uiso   1.00
H599   H     0.17376   0.72515   0.27984   0.00000  Uiso   1.00
H600   H     0.23778   0.77449   0.30314   0.00000  Uiso   1.00
H601   H     0.21908   0.74484   0.02129   0.00000  Uiso   1.00
H602   H     0.26355   0.72438   0.32839   0.00000  Uiso   1.00
H603   H     0.09947   0.89697   0.08004   0.00000  Uiso   1.00
H604   H     0.13105   0.93899   0.05451   0.00000  Uiso   1.00
H605   H     0.06395   0.97936   0.02526   0.00000  Uiso   1.00
H606   H     0.06580   0.92306   0.00143   0.00000  Uiso   1.00
H607   H     0.32158   0.68593   0.11490   0.00000  Uiso   1.00
H608   H     0.03639   0.93499   0.05252   0.00000  Uiso   1.00
H609   H     0.12949   0.67726   0.03672   0.00000  Uiso   1.00
H610   H     0.16034   0.72483   0.05287   0.00000  Uiso   1.00
H611   H     0.09757   0.77363   0.02630   0.00000  Uiso   1.00
H612   H     0.11400   0.74025   0.30960   0.00000  Uiso   1.00
H613   H     0.07001   0.72320   0.00566   0.00000  Uiso   1.00
H614   H     0.23355   0.89714   0.25478   0.00000  Uiso   1.00
H615   H     0.20214   0.93982   0.27951   0.00000  Uiso   1.00
H616   H     0.27025   0.98051   0.30635   0.00000  Uiso   1.00
H617   H     0.26718   0.92532   0.33313   0.00000  Uiso   1.00
H618   H     0.00103   0.68737   0.05084   0.00000  Uiso   1.00
H619   H     0.29673   0.93414   0.28141   0.00000  Uiso   1.00
H620   H     0.04066   0.67790   0.10288   0.00000  Uiso   1.00
H621   H     0.27546   0.89824   0.08495   0.00000  Uiso   1.00
H622   H     0.31493   0.94039   0.09763   0.00000  Uiso   1.00
H623   H     0.25748   0.99000   0.12931   0.00000  Uiso   1.00
H624   H     0.25423   0.97946   0.06286   0.00000  Uiso   1.00
N625   N     0.16667   0.95240   0.16667   0.00000  Uiso   1.00
N626   N     0.16667   0.71427   0.16667   0.00000  Uiso   1.00
O627   O     0.10559   0.87154   0.16666   0.00000  Uiso   1.00
O628   O     0.29131   0.91607   0.16087   0.00000  Uiso   1.00
O629   O     0.29623   0.75464   0.18567   0.00000  Uiso   1.00
O630   O     0.04228   0.91601   0.17520   0.00000  Uiso   1.00
O631   O     0.22061   0.71351   0.23400   0.00000  Uiso   1.00
O632   O     0.10031   0.95649   0.11813   0.00000  Uiso   1.00
O633   O     0.11334   0.71378   0.09868   0.00000  Uiso   1.00
O634   O     0.23274   0.95592   0.21535   0.00000  Uiso   1.00
O635   O     0.22774   0.79513   0.16667   0.00000  Uiso   1.00
O636   O     0.22774   0.87154   0.16667   0.00000  Uiso   1.00
O637   O     0.10559   0.79513   0.16666   0.00000  Uiso   1.00
O638   O     0.16667   0.87155   0.09511   0.00000  Uiso   1.00
O639   O     0.16666   0.79512   0.23822   0.00000  Uiso   1.00
O640   O     0.16666   0.87155   0.23822   0.00000  Uiso   1.00
O641   O     0.16667   0.79512   0.09511   0.00000  Uiso   1.00
O642   O     0.03673   0.75559   0.14509   0.00000  Uiso   1.00
Zn643  Zn    0.16667   0.88437   0.16667   0.00000  Uiso   1.00
Zn644  Zn    0.16667   0.78229   0.16667   0.00000  Uiso   1.00
C645   C     0.41994   0.83360   0.16527   0.00000  Uiso   1.00
C646   C     0.35485   0.87571   0.16984   0.00000  Uiso   1.00
C647   C     0.62451   0.83470   0.16988   0.00000  Uiso   1.00
C648   C     0.37564   0.83483   0.16461   0.00000  Uiso   1.00
C649   C     0.52674   0.69055   0.20001   0.00000  Uiso   1.00
C650   C     0.47077   0.97628   0.13627   0.00000  Uiso   1.00
C651   C     0.47337   0.69069   0.13323   0.00000  Uiso   1.00
C652   C     0.52916   0.97610   0.19713   0.00000  Uiso   1.00
C653   C     0.35193   0.74590   0.09564   0.00000  Uiso   1.00
C654   C     0.34517   0.69603   0.09050   0.00000  Uiso   1.00
C655   C     0.61899   0.92741   0.10921   0.00000  Uiso   1.00
C656   C     0.58010   0.83356   0.16832   0.00000  Uiso   1.00
C657   C     0.58614   0.96360   0.10013   0.00000  Uiso   1.00
C658   C     0.64922   0.74028   0.23294   0.00000  Uiso   1.00
C659   C     0.65481   0.69013   0.23217   0.00000  Uiso   1.00
C660   C     0.38366   0.92558   0.22713   0.00000  Uiso   1.00
C661   C     0.41556   0.96281   0.23526   0.00000  Uiso   1.00
C662   C     0.53904   0.71248   0.28183   0.00000  Uiso   1.00
C663   C     0.56655   0.74083   0.31910   0.00000  Uiso   1.00
C664   C     0.43574   0.93304   0.07263   0.00000  Uiso   1.00
C665   C     0.39821   0.94361   0.03572   0.00000  Uiso   1.00
C666   C     0.46185   0.71177   0.05103   0.00000  Uiso   1.00
C667   C     0.49998   0.83337   0.07301   0.00000  Uiso   1.00
C668   C     0.43417   0.73894   0.01265   0.00000  Uiso   1.00
C669   C     0.56406   0.93337   0.26143   0.00000  Uiso   1.00
C670   C     0.60181   0.94437   0.29781   0.00000  Uiso   1.00
C671   C     0.50001   0.83334   0.26033   0.00000  Uiso   1.00
C672   C     0.50003   0.83350   0.02182   0.00000  Uiso   1.00
C673   C     0.49997   0.83347   0.31151   0.00000  Uiso   1.00
C674   C     0.35334   0.79497   0.16039   0.00000  Uiso   1.00
C675   C     0.64543   0.87573   0.16601   0.00000  Uiso   1.00
C676   C     0.64681   0.79471   0.17326   0.00000  Uiso   1.00
H677   H     0.37285   0.75748   0.06867   0.00000  Uiso   1.00
H678   H     0.55516   0.94863   0.10069   0.00000  Uiso   1.00
H679   H     0.62970   0.74950   0.26245   0.00000  Uiso   1.00
H680   H     0.34692   0.75510   0.24436   0.00000  Uiso   1.00
H681   H     0.34238   0.68123   0.20385   0.00000  Uiso   1.00
H682   H     0.33481   0.67833   0.26989   0.00000  Uiso   1.00
H683   H     0.62490   0.67372   0.22162   0.00000  Uiso   1.00
H684   H     0.39597   0.89593   0.24933   0.00000  Uiso   1.00
H685   H     0.35491   0.93671   0.24176   0.00000  Uiso   1.00
H686   H     0.40970   0.98918   0.20615   0.00000  Uiso   1.00
H687   H     0.41453   0.97847   0.27264   0.00000  Uiso   1.00
H688   H     0.65480   0.76221   0.08441   0.00000  Uiso   1.00
H689   H     0.44682   0.94882   0.23379   0.00000  Uiso   1.00
H690   H     0.53850   0.67830   0.29723   0.00000  Uiso   1.00
H691   H     0.50709   0.72515   0.27984   0.00000  Uiso   1.00
H692   H     0.57111   0.77449   0.30314   0.00000  Uiso   1.00
H693   H     0.55242   0.74484   0.02129   0.00000  Uiso   1.00
H694   H     0.59688   0.72438   0.32839   0.00000  Uiso   1.00
H695   H     0.43280   0.89697   0.08004   0.00000  Uiso   1.00
H696   H     0.46438   0.93899   0.05451   0.00000  Uiso   1.00
H697   H     0.39728   0.97936   0.02526   0.00000  Uiso   1.00
H698   H     0.39913   0.92306   0.00143   0.00000  Uiso   1.00
H699   H     0.65491   0.68593   0.11490   0.00000  Uiso   1.00
H700   H     0.36972   0.93499   0.05252   0.00000  Uiso   1.00
H701   H     0.46282   0.67726   0.03672   0.00000  Uiso   1.00
H702   H     0.49368   0.72483   0.05287   0.00000  Uiso   1.00
H703   H     0.43091   0.77363   0.02630   0.00000  Uiso   1.00
H704   H     0.44733   0.74025   0.30960   0.00000  Uiso   1.00
H705   H     0.40334   0.72320   0.00566   0.00000  Uiso   1.00
H706   H     0.56688   0.89714   0.25478   0.00000  Uiso   1.00
H707   H     0.53547   0.93982   0.27951   0.00000  Uiso   1.00
H708   H     0.60359   0.98051   0.30635   0.00000  Uiso   1.00
H709   H     0.60051   0.92532   0.33313   0.00000  Uiso   1.00
H710   H     0.33436   0.68737   0.05084   0.00000  Uiso   1.00
H711   H     0.63006   0.93414   0.28141   0.00000  Uiso   1.00
H712   H     0.37400   0.67790   0.10288   0.00000  Uiso   1.00
H713   H     0.60880   0.89824   0.08495   0.00000  Uiso   1.00
H714   H     0.64826   0.94039   0.09763   0.00000  Uiso   1.00
H715   H     0.59081   0.99000   0.12931   0.00000  Uiso   1.00
H716   H     0.58756   0.97946   0.06286   0.00000  Uiso   1.00
N717   N     0.50000   0.95240   0.16667   0.00000  Uiso   1.00
N718   N     0.50000   0.71427   0.16667   0.00000  Uiso   1.00
O719   O     0.43892   0.87154   0.16666   0.00000  Uiso   1.00
O720   O     0.62465   0.91607   0.16087   0.00000  Uiso   1.00
O721   O     0.62957   0.75464   0.18567   0.00000  Uiso   1.00
O722   O     0.37561   0.91601   0.17520   0.00000  Uiso   1.00
O723   O     0.55394   0.71351   0.23400   0.00000  Uiso   1.00
O724   O     0.43364   0.95649   0.11813   0.00000  Uiso   1.00
O725   O     0.44668   0.71378   0.09868   0.00000  Uiso   1.00
O726   O     0.56607   0.95592   0.21535   0.00000  Uiso   1.00
O727   O     0.56108   0.79513   0.16667   0.00000  Uiso   1.00
O728   O     0.56108   0.87154   0.16667   0.00000  Uiso   1.00
O729   O     0.43892   0.79513   0.16666   0.00000  Uiso   1.00
O730   O     0.50000   0.87155   0.09511   0.00000  Uiso   1.00
O731   O     0.50000   0.79512   0.23822   0.00000  Uiso   1.00
O732   O     0.50000   0.87155   0.23822   0.00000  Uiso   1.00
O733   O     0.50000   0.79512   0.09511   0.00000  Uiso   1.00
O734   O     0.37007   0.75559   0.14509   0.00000  Uiso   1.00
Zn735  Zn    0.50000   0.88437   0.16667   0.00000  Uiso   1.00
Zn736  Zn    0.50000   0.78229   0.16667   0.00000  Uiso   1.00
C737   C     0.75327   0.83360   0.16527   0.00000  Uiso   1.00
C738   C     0.68819   0.87571   0.16984   0.00000  Uiso   1.00
C739   C     0.95785   0.83470   0.16988   0.00000  Uiso   1.00
C740   C     0.70898   0.83483   0.16461   0.00000  Uiso   1.00
C741   C     0.86007   0.69055   0.20001   0.00000  Uiso   1.00
C742   C     0.80410   0.97628   0.13627   0.00000  Uiso   1.00
C743   C     0.80670   0.69069   0.13323   0.00000  Uiso   1.00
C744   C     0.86249   0.97610   0.19713   0.00000  Uiso   1.00
C745   C     0.68526   0.74590   0.09564   0.00000  Uiso   1.00
C746   C     0.67850   0.69603   0.09050   0.00000  Uiso   1.00
C747   C     0.95232   0.92741   0.10921   0.00000  Uiso   1.00
C748   C     0.91343   0.83356   0.16832   0.00000  Uiso   1.00
C749   C     0.91947   0.96360   0.10013   0.00000  Uiso   1.00
C750   C     0.98255   0.74028   0.23294   0.00000  Uiso   1.00
C751   C     0.98814   0.69013   0.23217   0.00000  Uiso   1.00
C752   C     0.71699   0.92558   0.22713   0.00000  Uiso   1.00
C753   C     0.74889   0.96281   0.23526   0.00000  Uiso   1.00
C754   C     0.87238   0.71248   0.28183   0.00000  Uiso   1.00
C755   C     0.89988   0.74083   0.31910   0.00000  Uiso   1.00
C756   C     0.76907   0.93304   0.07263   0.00000  Uiso   1.00
C757   C     0.73154   0.94361   0.03572   0.00000  Uiso   1.00
C758   C     0.79518   0.71177   0.05103   0.00000  Uiso   1.00
C759   C     0.83332   0.83337   0.07301   0.00000  Uiso   1.00
C760   C     0.76750   0.73894   0.01265   0.00000  Uiso   1.00
C761   C     0.89740   0.93337   0.26143   0.00000  Uiso   1.00
C762   C     0.93514   0.94437   0.29781   0.00000  Uiso   1.00
C763   C     0.83334   0.83334   0.26033   0.00000  Uiso   1.00
C764   C     0.83336   0.83350   0.02182   0.00000  Uiso   1.00
C765   C     0.83330   0.83347   0.31151   0.00000  Uiso   1.00
C766   C     0.68668   0.79497   0.16039   0.00000  Uiso   1.00
C767   C     0.97876   0.87573   0.16601   0.00000  Uiso   1.00
C768   C     0.98015   0.79471   0.17326   0.00000  Uiso   1.00
H769   H     0.70618   0.75748   0.06867   0.00000  Uiso   1.00
H770   H     0.88849   0.94863   0.10069   0.00000  Uiso   1.00
H771   H     0.96303   0.74950   0.26245   0.00000  Uiso   1.00
H772   H     0.68025   0.75510   0.24436   0.00000  Uiso   1.00
H773   H     0.67571   0.68123   0.20385   0.00000  Uiso   1.00
H774   H     0.66815   0.67833   0.26989   0.00000  Uiso   1.00
H775   H     0.95823   0.67372   0.22162   0.00000  Uiso   1.00
H776   H     0.72930   0.89593   0.24933   0.00000  Uiso   1.00
H777   H     0.68824   0.93671   0.24176   0.00000  Uiso   1.00
H778   H     0.74304   0.98918   0.20615   0.00000  Uiso   1.00
H779   H     0.74786   0.97847   0.27264   0.00000  Uiso   1.00
H780   H     0.98813   0.76221   0.08441   0.00000  Uiso   1.00
H781   H     0.78015   0.94882   0.23379   0.00000  Uiso   1.00
H782   H     0.87184   0.67830   0.29723   0.00000  Uiso   1.00
H783   H     0.84043   0.72515   0.27984   0.00000  Uiso   1.00
H784   H     0.90445   0.77449   0.30314   0.00000  Uiso   1.00
H785   H     0.88575   0.74484   0.02129   0.00000  Uiso   1.00
H786   H     0.93022   0.72438   0.32839   0.00000  Uiso   1.00
H787   H     0.76614   0.89697   0.08004   0.00000  Uiso   1.00
H788   H     0.79772   0.93899   0.05451   0.00000  Uiso   1.00
H789   H     0.73062   0.97936   0.02526   0.00000  Uiso   1.00
H790   H     0.73247   0.92306   0.00143   0.00000  Uiso   1.00
H791   H     0.98825   0.68593   0.11490   0.00000  Uiso   1.00
H792   H     0.70306   0.93499   0.05252   0.00000  Uiso   1.00
H793   H     0.79615   0.67726   0.03672   0.00000  Uiso   1.00
H794   H     0.82701   0.72483   0.05287   0.00000  Uiso   1.00
H795   H     0.76424   0.77363   0.02630   0.00000  Uiso   1.00
H796   H     0.78066   0.74025   0.30960   0.00000  Uiso   1.00
H797   H     0.73667   0.72320   0.00566   0.00000  Uiso   1.00
H798   H     0.90021   0.89714   0.25478   0.00000  Uiso   1.00
H799   H     0.86880   0.93982   0.27951   0.00000  Uiso   1.00
H800   H     0.93692   0.98051   0.30635   0.00000  Uiso   1.00
H801   H     0.93385   0.92532   0.33313   0.00000  Uiso   1.00
H802   H     0.66769   0.68737   0.05084   0.00000  Uiso   1.00
H803   H     0.96339   0.93414   0.28141   0.00000  Uiso   1.00
H804   H     0.70733   0.67790   0.10288   0.00000  Uiso   1.00
H805   H     0.94213   0.89824   0.08495   0.00000  Uiso   1.00
H806   H     0.98160   0.94039   0.09763   0.00000  Uiso   1.00
H807   H     0.92415   0.99000   0.12931   0.00000  Uiso   1.00
H808   H     0.92090   0.97946   0.06286   0.00000  Uiso   1.00
N809   N     0.83333   0.95240   0.16667   0.00000  Uiso   1.00
N810   N     0.83333   0.71427   0.16667   0.00000  Uiso   1.00
O811   O     0.77226   0.87154   0.16666   0.00000  Uiso   1.00
O812   O     0.95798   0.91607   0.16087   0.00000  Uiso   1.00
O813   O     0.96290   0.75464   0.18567   0.00000  Uiso   1.00
O814   O     0.70894   0.91601   0.17520   0.00000  Uiso   1.00
O815   O     0.88728   0.71351   0.23400   0.00000  Uiso   1.00
O816   O     0.76698   0.95649   0.11813   0.00000  Uiso   1.00
O817   O     0.78001   0.71378   0.09868   0.00000  Uiso   1.00
O818   O     0.89940   0.95592   0.21535   0.00000  Uiso   1.00
O819   O     0.89441   0.79513   0.16667   0.00000  Uiso   1.00
O820   O     0.89441   0.87154   0.16667   0.00000  Uiso   1.00
O821   O     0.77226   0.79513   0.16666   0.00000  Uiso   1.00
O822   O     0.83334   0.87155   0.09511   0.00000  Uiso   1.00
O823   O     0.83333   0.79512   0.23822   0.00000  Uiso   1.00
O824   O     0.83333   0.87155   0.23822   0.00000  Uiso   1.00
O825   O     0.83334   0.79512   0.09511   0.00000  Uiso   1.00
O826   O     0.70340   0.75559   0.14509   0.00000  Uiso   1.00
Zn827  Zn    0.83333   0.88437   0.16667   0.00000  Uiso   1.00
Zn828  Zn    0.83333   0.78229   0.16667   0.00000  Uiso   1.00
C829   C     0.08661   0.16693   0.49860   0.00000  Uiso   1.00
C830   C     0.02152   0.20904   0.50318   0.00000  Uiso   1.00
C831   C     0.29118   0.16804   0.50321   0.00000  Uiso   1.00
C832   C     0.04231   0.16816   0.49794   0.00000  Uiso   1.00
C833   C     0.19340   0.02388   0.53334   0.00000  Uiso   1.00
C834   C     0.13743   0.30961   0.46960   0.00000  Uiso   1.00
C835   C     0.14004   0.02402   0.46656   0.00000  Uiso   1.00
C836   C     0.19582   0.30943   0.53046   0.00000  Uiso   1.00
C837   C     0.01859   0.07923   0.42897   0.00000  Uiso   1.00
C838   C     0.01184   0.02936   0.42384   0.00000  Uiso   1.00
C839   C     0.28566   0.26075   0.44254   0.00000  Uiso   1.00
C840   C     0.24676   0.16689   0.50166   0.00000  Uiso   1.00
C841   C     0.25280   0.29693   0.43346   0.00000  Uiso   1.00
C842   C     0.31589   0.07362   0.56627   0.00000  Uiso   1.00
C843   C     0.32147   0.02346   0.56551   0.00000  Uiso   1.00
C844   C     0.05032   0.25892   0.56047   0.00000  Uiso   1.00
C845   C     0.08222   0.29614   0.56859   0.00000  Uiso   1.00
C846   C     0.20571   0.04581   0.61516   0.00000  Uiso   1.00
C847   C     0.23322   0.07417   0.65244   0.00000  Uiso   1.00
C848   C     0.10240   0.26637   0.40596   0.00000  Uiso   1.00
C849   C     0.06487   0.27694   0.36906   0.00000  Uiso   1.00
C850   C     0.12852   0.04511   0.38437   0.00000  Uiso   1.00
C851   C     0.16665   0.16670   0.40634   0.00000  Uiso   1.00
C852   C     0.10084   0.07227   0.34598   0.00000  Uiso   1.00
C853   C     0.23073   0.26670   0.59476   0.00000  Uiso   1.00
C854   C     0.26847   0.27770   0.63114   0.00000  Uiso   1.00
C855   C     0.16667   0.16668   0.59366   0.00000  Uiso   1.00
C856   C     0.16669   0.16684   0.35516   0.00000  Uiso   1.00
C857   C     0.16663   0.16680   0.64484   0.00000  Uiso   1.00
C858   C     0.02001   0.12830   0.49372   0.00000  Uiso   1.00
C859   C     0.31209   0.20907   0.49934   0.00000  Uiso   1.00
C860   C     0.31348   0.12804   0.50659   0.00000  Uiso   1.00
H861   H     0.03952   0.09082   0.40200   0.00000  Uiso   1.00
H862   H     0.22183   0.28197   0.43402   0.00000  Uiso   1.00
H863   H     0.29636   0.08283   0.59578   0.00000  Uiso   1.00
H864   H     0.01358   0.08843   0.57770   0.00000  Uiso   1.00
H865   H     0.00905   0.01456   0.53719   0.00000  Uiso   1.00
H866   H     0.00148   0.01166   0.60322   0.00000  Uiso   1.00
H867   H     0.29157   0.00705   0.55495   0.00000  Uiso   1.00
H868   H     0.06263   0.22926   0.58266   0.00000  Uiso   1.00
H869   H     0.02157   0.27004   0.57509   0.00000  Uiso   1.00
H870   H     0.07637   0.32251   0.53948   0.00000  Uiso   1.00
H871   H     0.08119   0.31181   0.60597   0.00000  Uiso   1.00
H872   H     0.32147   0.09554   0.41775   0.00000  Uiso   1.00
H873   H     0.11348   0.28215   0.56713   0.00000  Uiso   1.00
H874   H     0.20517   0.01163   0.63056   0.00000  Uiso   1.00
H875   H     0.17376   0.05849   0.61317   0.00000  Uiso   1.00
H876   H     0.23778   0.10783   0.63647   0.00000  Uiso   1.00
H877   H     0.21908   0.07817   0.35463   0.00000  Uiso   1.00
H878   H     0.26355   0.05771   0.66173   0.00000  Uiso   1.00
H879   H     0.09947   0.23030   0.41338   0.00000  Uiso   1.00
H880   H     0.13105   0.27232   0.38784   0.00000  Uiso   1.00
H881   H     0.06395   0.31269   0.35860   0.00000  Uiso   1.00
H882   H     0.06580   0.25639   0.33476   0.00000  Uiso   1.00
H883   H     0.32158   0.01927   0.44823   0.00000  Uiso   1.00
H884   H     0.03639   0.26833   0.38585   0.00000  Uiso   1.00
H885   H     0.12949   0.01060   0.37005   0.00000  Uiso   1.00
H886   H     0.16034   0.05816   0.38620   0.00000  Uiso   1.00
H887   H     0.09757   0.10696   0.35963   0.00000  Uiso   1.00
H888   H     0.11400   0.07358   0.64293   0.00000  Uiso   1.00
H889   H     0.07001   0.05653   0.33899   0.00000  Uiso   1.00
H890   H     0.23355   0.23047   0.58812   0.00000  Uiso   1.00
H891   H     0.20214   0.27315   0.61284   0.00000  Uiso   1.00
H892   H     0.27025   0.31384   0.63969   0.00000  Uiso   1.00
H893   H     0.26718   0.25865   0.66646   0.00000  Uiso   1.00
H894   H     0.00103   0.02071   0.38417   0.00000  Uiso   1.00
H895   H     0.29673   0.26747   0.61475   0.00000  Uiso   1.00
H896   H     0.04066   0.01123   0.43621   0.00000  Uiso   1.00
H897   H     0.27546   0.23157   0.41828   0.00000  Uiso   1.00
H898   H     0.31493   0.27372   0.43096   0.00000  Uiso   1.00
H899   H     0.25748   0.32333   0.46265   0.00000  Uiso   1.00
H900   H     0.25423   0.31279   0.39620   0.00000  Uiso   1.00
N901   N     0.16667   0.28573   0.50000   0.00000  Uiso   1.00
N902   N     0.16667   0.04760   0.50000   0.00000  Uiso   1.00
O903   O     0.10559   0.20487   0.50000   0.00000  Uiso   1.00
O904   O     0.29131   0.24941   0.49421   0.00000  Uiso   1.00
O905   O     0.29623   0.08798   0.51900   0.00000  Uiso   1.00
O906   O     0.04228   0.24935   0.50854   0.00000  Uiso   1.00
O907   O     0.22061   0.04684   0.56734   0.00000  Uiso   1.00
O908   O     0.10031   0.28982   0.45146   0.00000  Uiso   1.00
O909   O     0.11334   0.04711   0.43201   0.00000  Uiso   1.00
O910   O     0.23274   0.28925   0.54868   0.00000  Uiso   1.00
O911   O     0.22774   0.12846   0.50000   0.00000  Uiso   1.00
O912   O     0.22774   0.20487   0.50000   0.00000  Uiso   1.00
O913   O     0.10559   0.12846   0.50000   0.00000  Uiso   1.00
O914   O     0.16667   0.20488   0.42845   0.00000  Uiso   1.00
O915   O     0.16666   0.12845   0.57155   0.00000  Uiso   1.00
O916   O     0.16666   0.20488   0.57155   0.00000  Uiso   1.00
O917   O     0.16667   0.12845   0.42845   0.00000  Uiso   1.00
O918   O     0.03673   0.08893   0.47843   0.00000  Uiso   1.00
Zn919  Zn    0.16667   0.21771   0.50000   0.00000  Uiso   1.00
Zn920  Zn    0.16667   0.11563   0.50000   0.00000  Uiso   1.00
C921   C     0.41994   0.16693   0.49860   0.00000  Uiso   1.00
C922   C     0.35485   0.20904   0.50318   0.00000  Uiso   1.00
C923   C     0.62451   0.16804   0.50321   0.00000  Uiso   1.00
C924   C     0.37564   0.16816   0.49794   0.00000  Uiso   1.00
C925   C     0.52674   0.02388   0.53334   0.00000  Uiso   1.00
C926   C     0.47077   0.30961   0.46960   0.00000  Uiso   1.00
C927   C     0.47337   0.02402   0.46656   0.00000  Uiso   1.00
C928   C     0.52916   0.30943   0.53046   0.00000  Uiso   1.00
C929   C     0.35193   0.07923   0.42897   0.00000  Uiso   1.00
C930   C     0.34517   0.02936   0.42384   0.00000  Uiso   1.00
C931   C     0.61899   0.26075   0.44254   0.00000  Uiso   1.00
C932   C     0.58010   0.16689   0.50166   0.00000  Uiso   1.00
C933   C     0.58614   0.29693   0.43346   0.00000  Uiso   1.00
C934   C     0.64922   0.07362   0.56627   0.00000  Uiso   1.00
C935   C     0.65481   0.02346   0.56551   0.00000  Uiso   1.00
C936   C     0.38366   0.25892   0.56047   0.00000  Uiso   1.00
C937   C     0.41556   0.29614   0.56859   0.00000  Uiso   1.00
C938   C     0.53904   0.04581   0.61516   0.00000  Uiso   1.00
C939   C     0.56655   0.07417   0.65244   0.00000  Uiso   1.00
C940   C     0.43574   0.26637   0.40596   0.00000  Uiso   1.00
C941   C     0.39821   0.27694   0.36906   0.00000  Uiso   1.00
C942   C     0.46185   0.04511   0.38437   0.00000  Uiso   1.00
C943   C     0.49998   0.16670   0.40634   0.00000  Uiso   1.00
C944   C     0.43417   0.07227   0.34598   0.00000  Uiso   1.00
C945   C     0.56406   0.26670   0.59476   0.00000  Uiso   1.00
C946   C     0.60181   0.27770   0.63114   0.00000  Uiso   1.00
C947   C     0.50001   0.16668   0.59366   0.00000  Uiso   1.00
C948   C     0.50003   0.16684   0.35516   0.00000  Uiso   1.00
C949   C     0.49997   0.16680   0.64484   0.00000  Uiso   1.00
C950   C     0.35334   0.12830   0.49372   0.00000  Uiso   1.00
C951   C     0.64543   0.20907   0.49934   0.00000  Uiso   1.00
C952   C     0.64681   0.12804   0.50659   0.00000  Uiso   1.00
H953   H     0.37285   0.09082   0.40200   0.00000  Uiso   1.00
H954   H     0.55516   0.28197   0.43402   0.00000  Uiso   1.00
H955   H     0.62970   0.08283   0.59578   0.00000  Uiso   1.00
H956   H     0.34692   0.08843   0.57770   0.00000  Uiso   1.00
H957   H     0.34238   0.01456   0.53719   0.00000  Uiso   1.00
H958   H     0.33481   0.01166   0.60322   0.00000  Uiso   1.00
H959   H     0.62490   0.00705   0.55495   0.00000  Uiso   1.00
H960   H     0.39597   0.22926   0.58266   0.00000  Uiso   1.00
H961   H     0.35491   0.27004   0.57509   0.00000  Uiso   1.00
H962   H     0.40970   0.32251   0.53948   0.00000  Uiso   1.00
H963   H     0.41453   0.31181   0.60597   0.00000  Uiso   1.00
H964   H     0.65480   0.09554   0.41775   0.00000  Uiso   1.00
H965   H     0.44682   0.28215   0.56713   0.00000  Uiso   1.00
H966   H     0.53850   0.01163   0.63056   0.00000  Uiso   1.00
H967   H     0.50709   0.05849   0.61317   0.00000  Uiso   1.00
H968   H     0.57111   0.10783   0.63647   0.00000  Uiso   1.00
H969   H     0.55242   0.07817   0.35463   0.00000  Uiso   1.00
H970   H     0.59688   0.05771   0.66173   0.00000  Uiso   1.00
H971   H     0.43280   0.23030   0.41338   0.00000  Uiso   1.00
H972   H     0.46438   0.27232   0.38784   0.00000  Uiso   1.00
H973   H     0.39728   0.31269   0.35860   0.00000  Uiso   1.00
H974   H     0.39913   0.25639   0.33476   0.00000  Uiso   1.00
H975   H     0.65491   0.01927   0.44823   0.00000  Uiso   1.00
H976   H     0.36972   0.26833   0.38585   0.00000  Uiso   1.00
H977   H     0.46282   0.01060   0.37005   0.00000  Uiso   1.00
H978   H     0.49368   0.05816   0.38620   0.00000  Uiso   1.00
H979   H     0.43091   0.10696   0.35963   0.00000  Uiso   1.00
H980   H     0.44733   0.07358   0.64293   0.00000  Uiso   1.00
H981   H     0.40334   0.05653   0.33899   0.00000  Uiso   1.00
H982   H     0.56688   0.23047   0.58812   0.00000  Uiso   1.00
H983   H     0.53547   0.27315   0.61284   0.00000  Uiso   1.00
H984   H     0.60359   0.31384   0.63969   0.00000  Uiso   1.00
H985   H     0.60051   0.25865   0.66646   0.00000  Uiso   1.00
H986   H     0.33436   0.02071   0.38417   0.00000  Uiso   1.00
H987   H     0.63006   0.26747   0.61475   0.00000  Uiso   1.00
H988   H     0.37400   0.01123   0.43621   0.00000  Uiso   1.00
H989   H     0.60880   0.23157   0.41828   0.00000  Uiso   1.00
H990   H     0.64826   0.27372   0.43096   0.00000  Uiso   1.00
H991   H     0.59081   0.32333   0.46265   0.00000  Uiso   1.00
H992   H     0.58756   0.31279   0.39620   0.00000  Uiso   1.00
N993   N     0.50000   0.28573   0.50000   0.00000  Uiso   1.00
N994   N     0.50000   0.04760   0.50000   0.00000  Uiso   1.00
O995   O     0.43892   0.20487   0.50000   0.00000  Uiso   1.00
O996   O     0.62465   0.24941   0.49421   0.00000  Uiso   1.00
O997   O     0.62957   0.08798   0.51900   0.00000  Uiso   1.00
O998   O     0.37561   0.24935   0.50854   0.00000  Uiso   1.00
O999   O     0.55394   0.04684   0.56734   0.00000  Uiso   1.00
O1000  O     0.43364   0.28982   0.45146   0.00000  Uiso   1.00
O1001  O     0.44668   0.04711   0.43201   0.00000  Uiso   1.00
O1002  O     0.56607   0.28925   0.54868   0.00000  Uiso   1.00
O1003  O     0.56108   0.12846   0.50000   0.00000  Uiso   1.00
O1004  O     0.56108   0.20487   0.50000   0.00000  Uiso   1.00
O1005  O     0.43892   0.12846   0.50000   0.00000  Uiso   1.00
O1006  O     0.50000   0.20488   0.42845   0.00000  Uiso   1.00
O1007  O     0.50000   0.12845   0.57155   0.00000  Uiso   1.00
O1008  O     0.50000   0.20488   0.57155   0.00000  Uiso   1.00
O1009  O     0.50000   0.12845   0.42845   0.00000  Uiso   1.00
O1010  O     0.37007   0.08893   0.47843   0.00000  Uiso   1.00
Zn1011 Zn    0.50000   0.21771   0.50000   0.00000  Uiso   1.00
Zn1012 Zn    0.50000   0.11563   0.50000   0.00000  Uiso   1.00
C1013  C     0.75327   0.16693   0.49860   0.00000  Uiso   1.00
C1014  C     0.68819   0.20904   0.50318   0.00000  Uiso   1.00
C1015  C     0.95785   0.16804   0.50321   0.00000  Uiso   1.00
C1016  C     0.70898   0.16816   0.49794   0.00000  Uiso   1.00
C1017  C     0.86007   0.02388   0.53334   0.00000  Uiso   1.00
C1018  C     0.80410   0.30961   0.46960   0.00000  Uiso   1.00
C1019  C     0.80670   0.02402   0.46656   0.00000  Uiso   1.00
C1020  C     0.86249   0.30943   0.53046   0.00000  Uiso   1.00
C1021  C     0.68526   0.07923   0.42897   0.00000  Uiso   1.00
C1022  C     0.67850   0.02936   0.42384   0.00000  Uiso   1.00
C1023  C     0.95232   0.26075   0.44254   0.00000  Uiso   1.00
C1024  C     0.91343   0.16689   0.50166   0.00000  Uiso   1.00
C1025  C     0.91947   0.29693   0.43346   0.00000  Uiso   1.00
C1026  C     0.98255   0.07362   0.56627   0.00000  Uiso   1.00
C1027  C     0.98814   0.02346   0.56551   0.00000  Uiso   1.00
C1028  C     0.71699   0.25892   0.56047   0.00000  Uiso   1.00
C1029  C     0.74889   0.29614   0.56859   0.00000  Uiso   1.00
C1030  C     0.87238   0.04581   0.61516   0.00000  Uiso   1.00
C1031  C     0.89988   0.07417   0.65244   0.00000  Uiso   1.00
C1032  C     0.76907   0.26637   0.40596   0.00000  Uiso   1.00
C1033  C     0.73154   0.27694   0.36906   0.00000  Uiso   1.00
C1034  C     0.79518   0.04511   0.38437   0.00000  Uiso   1.00
C1035  C     0.83332   0.16670   0.40634   0.00000  Uiso   1.00
C1036  C     0.76750   0.07227   0.34598   0.00000  Uiso   1.00
C1037  C     0.89740   0.26670   0.59476   0.00000  Uiso   1.00
C1038  C     0.93514   0.27770   0.63114   0.00000  Uiso   1.00
C1039  C     0.83334   0.16668   0.59366   0.00000  Uiso   1.00
C1040  C     0.83336   0.16684   0.35516   0.00000  Uiso   1.00
C1041  C     0.83330   0.16680   0.64484   0.00000  Uiso   1.00
C1042  C     0.68668   0.12830   0.49372   0.00000  Uiso   1.00
C1043  C     0.97876   0.20907   0.49934   0.00000  Uiso   1.00
C1044  C     0.98015   0.12804   0.50659   0.00000  Uiso   1.00
H1045  H     0.70618   0.09082   0.40200   0.00000  Uiso   1.00
H1046  H     0.88849   0.28197   0.43402   0.00000  Uiso   1.00
H1047  H     0.96303   0.08283   0.59578   0.00000  Uiso   1.00
H1048  H     0.68025   0.08843   0.57770   0.00000  Uiso   1.00
H1049  H     0.67571   0.01456   0.53719   0.00000  Uiso   1.00
H1050  H     0.66815   0.01166   0.60322   0.00000  Uiso   1.00
H1051  H     0.95823   0.00705   0.55495   0.00000  Uiso   1.00
H1052  H     0.72930   0.22926   0.58266   0.00000  Uiso   1.00
H1053  H     0.68824   0.27004   0.57509   0.00000  Uiso   1.00
H1054  H     0.74304   0.32251   0.53948   0.00000  Uiso   1.00
H1055  H     0.74786   0.31181   0.60597   0.00000  Uiso   1.00
H1056  H     0.98813   0.09554   0.41775   0.00000  Uiso   1.00
H1057  H     0.78015   0.28215   0.56713   0.00000  Uiso   1.00
H1058  H     0.87184   0.01163   0.63056   0.00000  Uiso   1.00
H1059  H     0.84043   0.05849   0.61317   0.00000  Uiso   1.00
H1060  H     0.90445   0.10783   0.63647   0.00000  Uiso   1.00
H1061  H     0.88575   0.07817   0.35463   0.00000  Uiso   1.00
H1062  H     0.93022   0.05771   0.66173   0.00000  Uiso   1.00
H1063  H     0.76614   0.23030   0.41338   0.00000  Uiso   1.00
H1064  H     0.79772   0.27232   0.38784   0.00000  Uiso   1.00
H1065  H     0.73062   0.31269   0.35860   0.00000  Uiso   1.00
H1066  H     0.73247   0.25639   0.33476   0.00000  Uiso   1.00
H1067  H     0.98825   0.01927   0.44823   0.00000  Uiso   1.00
H1068  H     0.70306   0.26833   0.38585   0.00000  Uiso   1.00
H1069  H     0.79615   0.01060   0.37005   0.00000  Uiso   1.00
H1070  H     0.82701   0.05816   0.38620   0.00000  Uiso   1.00
H1071  H     0.76424   0.10696   0.35963   0.00000  Uiso   1.00
H1072  H     0.78066   0.07358   0.64293   0.00000  Uiso   1.00
H1073  H     0.73667   0.05653   0.33899   0.00000  Uiso   1.00
H1074  H     0.90021   0.23047   0.58812   0.00000  Uiso   1.00
H1075  H     0.86880   0.27315   0.61284   0.00000  Uiso   1.00
H1076  H     0.93692   0.31384   0.63969   0.00000  Uiso   1.00
H1077  H     0.93385   0.25865   0.66646   0.00000  Uiso   1.00
H1078  H     0.66769   0.02071   0.38417   0.00000  Uiso   1.00
H1079  H     0.96339   0.26747   0.61475   0.00000  Uiso   1.00
H1080  H     0.70733   0.01123   0.43621   0.00000  Uiso   1.00
H1081  H     0.94213   0.23157   0.41828   0.00000  Uiso   1.00
H1082  H     0.98160   0.27372   0.43096   0.00000  Uiso   1.00
H1083  H     0.92415   0.32333   0.46265   0.00000  Uiso   1.00
H1084  H     0.92090   0.31279   0.39620   0.00000  Uiso   1.00
N1085  N     0.83333   0.28573   0.50000   0.00000  Uiso   1.00
N1086  N     0.83333   0.04760   0.50000   0.00000  Uiso   1.00
O1087  O     0.77226   0.20487   0.50000   0.00000  Uiso   1.00
O1088  O     0.95798   0.24941   0.49421   0.00000  Uiso   1.00
O1089  O     0.96290   0.08798   0.51900   0.00000  Uiso   1.00
O1090  O     0.70894   0.24935   0.50854   0.00000  Uiso   1.00
O1091  O     0.88728   0.04684   0.56734   0.00000  Uiso   1.00
O1092  O     0.76698   0.28982   0.45146   0.00000  Uiso   1.00
O1093  O     0.78001   0.04711   0.43201   0.00000  Uiso   1.00
O1094  O     0.89940   0.28925   0.54868   0.00000  Uiso   1.00
O1095  O     0.89441   0.12846   0.50000   0.00000  Uiso   1.00
O1096  O     0.89441   0.20487   0.50000   0.00000  Uiso   1.00
O1097  O     0.77226   0.12846   0.50000   0.00000  Uiso   1.00
O1098  O     0.83334   0.20488   0.42845   0.00000  Uiso   1.00
O1099  O     0.83333   0.12845   0.57155   0.00000  Uiso   1.00
O1100  O     0.83333   0.20488   0.57155   0.00000  Uiso   1.00
O1101  O     0.83334   0.12845   0.42845   0.00000  Uiso   1.00
O1102  O     0.70340   0.08893   0.47843   0.00000  Uiso   1.00
Zn1103 Zn    0.83333   0.21771   0.50000   0.00000  Uiso   1.00
Zn1104 Zn    0.83333   0.11563   0.50000   0.00000  Uiso   1.00
C1105  C     0.08661   0.50027   0.49860   0.00000  Uiso   1.00
C1106  C     0.02152   0.54238   0.50318   0.00000  Uiso   1.00
C1107  C     0.29118   0.50137   0.50321   0.00000  Uiso   1.00
C1108  C     0.04231   0.50150   0.49794   0.00000  Uiso   1.00
C1109  C     0.19340   0.35722   0.53334   0.00000  Uiso   1.00
C1110  C     0.13743   0.64295   0.46960   0.00000  Uiso   1.00
C1111  C     0.14004   0.35736   0.46656   0.00000  Uiso   1.00
C1112  C     0.19582   0.64277   0.53046   0.00000  Uiso   1.00
C1113  C     0.01859   0.41256   0.42897   0.00000  Uiso   1.00
C1114  C     0.01184   0.36270   0.42384   0.00000  Uiso   1.00
C1115  C     0.28566   0.59408   0.44254   0.00000  Uiso   1.00
C1116  C     0.24676   0.50022   0.50166   0.00000  Uiso   1.00
C1117  C     0.25280   0.63026   0.43346   0.00000  Uiso   1.00
C1118  C     0.31589   0.40695   0.56627   0.00000  Uiso   1.00
C1119  C     0.32147   0.35680   0.56551   0.00000  Uiso   1.00
C1120  C     0.05032   0.59225   0.56047   0.00000  Uiso   1.00
C1121  C     0.08222   0.62947   0.56859   0.00000  Uiso   1.00
C1122  C     0.20571   0.37914   0.61516   0.00000  Uiso   1.00
C1123  C     0.23322   0.40750   0.65244   0.00000  Uiso   1.00
C1124  C     0.10240   0.59971   0.40596   0.00000  Uiso   1.00
C1125  C     0.06487   0.61028   0.36906   0.00000  Uiso   1.00
C1126  C     0.12852   0.37844   0.38437   0.00000  Uiso   1.00
C1127  C     0.16665   0.50003   0.40634   0.00000  Uiso   1.00
C1128  C     0.10084   0.40560   0.34598   0.00000  Uiso   1.00
C1129  C     0.23073   0.60003   0.59476   0.00000  Uiso   1.00
C1130  C     0.26847   0.61103   0.63114   0.00000  Uiso   1.00
C1131  C     0.16667   0.50001   0.59366   0.00000  Uiso   1.00
C1132  C     0.16669   0.50017   0.35516   0.00000  Uiso   1.00
C1133  C     0.16663   0.50014   0.64484   0.00000  Uiso   1.00
C1134  C     0.02001   0.46163   0.49372   0.00000  Uiso   1.00
C1135  C     0.31209   0.54240   0.49934   0.00000  Uiso   1.00
C1136  C     0.31348   0.46138   0.50659   0.00000  Uiso   1.00
H1137  H     0.03952   0.42415   0.40200   0.00000  Uiso   1.00
H1138  H     0.22183   0.61530   0.43402   0.00000  Uiso   1.00
H1139  H     0.29636   0.41617   0.59578   0.00000  Uiso   1.00
H1140  H     0.01358   0.42177   0.57770   0.00000  Uiso   1.00
H1141  H     0.00905   0.34789   0.53719   0.00000  Uiso   1.00
H1142  H     0.00148   0.34499   0.60322   0.00000  Uiso   1.00
H1143  H     0.29157   0.34038   0.55495   0.00000  Uiso   1.00
H1144  H     0.06263   0.56260   0.58266   0.00000  Uiso   1.00
H1145  H     0.02157   0.60338   0.57509   0.00000  Uiso   1.00
H1146  H     0.07637   0.65585   0.53948   0.00000  Uiso   1.00
H1147  H     0.08119   0.64514   0.60597   0.00000  Uiso   1.00
H1148  H     0.32147   0.42887   0.41775   0.00000  Uiso   1.00
H1149  H     0.11348   0.61549   0.56713   0.00000  Uiso   1.00
H1150  H     0.20517   0.34497   0.63056   0.00000  Uiso   1.00
H1151  H     0.17376   0.39182   0.61317   0.00000  Uiso   1.00
H1152  H     0.23778   0.44116   0.63647   0.00000  Uiso   1.00
H1153  H     0.21908   0.41150   0.35463   0.00000  Uiso   1.00
H1154  H     0.26355   0.39105   0.66173   0.00000  Uiso   1.00
H1155  H     0.09947   0.56363   0.41338   0.00000  Uiso   1.00
H1156  H     0.13105   0.60565   0.38784   0.00000  Uiso   1.00
H1157  H     0.06395   0.64603   0.35860   0.00000  Uiso   1.00
H1158  H     0.06580   0.58972   0.33476   0.00000  Uiso   1.00
H1159  H     0.32158   0.35260   0.44823   0.00000  Uiso   1.00
H1160  H     0.03639   0.60166   0.38585   0.00000  Uiso   1.00
H1161  H     0.12949   0.34393   0.37005   0.00000  Uiso   1.00
H1162  H     0.16034   0.39149   0.38620   0.00000  Uiso   1.00
H1163  H     0.09757   0.44030   0.35963   0.00000  Uiso   1.00
H1164  H     0.11400   0.40691   0.64293   0.00000  Uiso   1.00
H1165  H     0.07001   0.38986   0.33899   0.00000  Uiso   1.00
H1166  H     0.23355   0.56381   0.58812   0.00000  Uiso   1.00
H1167  H     0.20214   0.60648   0.61284   0.00000  Uiso   1.00
H1168  H     0.27025   0.64718   0.63969   0.00000  Uiso   1.00
H1169  H     0.26718   0.59198   0.66646   0.00000  Uiso   1.00
H1170  H     0.00103   0.35404   0.38417   0.00000  Uiso   1.00
H1171  H     0.29673   0.60081   0.61475   0.00000  Uiso   1.00
H1172  H     0.04066   0.34457   0.43621   0.00000  Uiso   1.00
H1173  H     0.27546   0.56490   0.41828   0.00000  Uiso   1.00
H1174  H     0.31493   0.60705   0.43096   0.00000  Uiso   1.00
H1175  H     0.25748   0.65666   0.46265   0.00000  Uiso   1.00
H1176  H     0.25423   0.64612   0.39620   0.00000  Uiso   1.00
N1177  N     0.16667   0.61907   0.50000   0.00000  Uiso   1.00
N1178  N     0.16667   0.38093   0.50000   0.00000  Uiso   1.00
O1179  O     0.10559   0.53821   0.50000   0.00000  Uiso   1.00
O1180  O     0.29131   0.58274   0.49421   0.00000  Uiso   1.00
O1181  O     0.29623   0.42131   0.51900   0.00000  Uiso   1.00
O1182  O     0.04228   0.58268   0.50854   0.00000  Uiso   1.00
O1183  O     0.22061   0.38017   0.56734   0.00000  Uiso   1.00
O1184  O     0.10031   0.62315   0.45146   0.00000  Uiso   1.00
O1185  O     0.11334   0.38044   0.43201   0.00000  Uiso   1.00
O1186  O     0.23274   0.62259   0.54868   0.00000  Uiso   1.00
O1187  O     0.22774   0.46179   0.50000   0.00000  Uiso   1.00
O1188  O     0.22774   0.53821   0.50000   0.00000  Uiso   1.00
O1189  O     0.10559   0.46179   0.50000   0.00000  Uiso   1.00
O1190  O     0.16667   0.53821   0.42845   0.00000  Uiso   1.00
O1191  O     0.16666   0.46179   0.57155   0.00000  Uiso   1.00
O1192  O     0.16666   0.53821   0.57155   0.00000  Uiso   1.00
O1193  O     0.16667   0.46179   0.42845   0.00000  Uiso   1.00
O1194  O     0.03673   0.42226   0.47843   0.00000  Uiso   1.00
Zn1195 Zn    0.16667   0.55104   0.50000   0.00000  Uiso   1.00
Zn1196 Zn    0.16667   0.44896   0.50000   0.00000  Uiso   1.00
C1197  C     0.41994   0.50027   0.49860   0.00000  Uiso   1.00
C1198  C     0.35485   0.54238   0.50318   0.00000  Uiso   1.00
C1199  C     0.62451   0.50137   0.50321   0.00000  Uiso   1.00
C1200  C     0.37564   0.50150   0.49794   0.00000  Uiso   1.00
C1201  C     0.52674   0.35722   0.53334   0.00000  Uiso   1.00
C1202  C     0.47077   0.64295   0.46960   0.00000  Uiso   1.00
C1203  C     0.47337   0.35736   0.46656   0.00000  Uiso   1.00
C1204  C     0.52916   0.64277   0.53046   0.00000  Uiso   1.00
C1205  C     0.35193   0.41256   0.42897   0.00000  Uiso   1.00
C1206  C     0.34517   0.36270   0.42384   0.00000  Uiso   1.00
C1207  C     0.61899   0.59408   0.44254   0.00000  Uiso   1.00
C1208  C     0.58010   0.50022   0.50166   0.00000  Uiso   1.00
C1209  C     0.58614   0.63026   0.43346   0.00000  Uiso   1.00
C1210  C     0.64922   0.40695   0.56627   0.00000  Uiso   1.00
C1211  C     0.65481   0.35680   0.56551   0.00000  Uiso   1.00
C1212  C     0.38366   0.59225   0.56047   0.00000  Uiso   1.00
C1213  C     0.41556   0.62947   0.56859   0.00000  Uiso   1.00
C1214  C     0.53904   0.37914   0.61516   0.00000  Uiso   1.00
C1215  C     0.56655   0.40750   0.65244   0.00000  Uiso   1.00
C1216  C     0.43574   0.59971   0.40596   0.00000  Uiso   1.00
C1217  C     0.39821   0.61028   0.36906   0.00000  Uiso   1.00
C1218  C     0.46185   0.37844   0.38437   0.00000  Uiso   1.00
C1219  C     0.49998   0.50003   0.40634   0.00000  Uiso   1.00
C1220  C     0.43417   0.40560   0.34598   0.00000  Uiso   1.00
C1221  C     0.56406   0.60003   0.59476   0.00000  Uiso   1.00
C1222  C     0.60181   0.61103   0.63114   0.00000  Uiso   1.00
C1223  C     0.50001   0.50001   0.59366   0.00000  Uiso   1.00
C1224  C     0.50003   0.50017   0.35516   0.00000  Uiso   1.00
C1225  C     0.49997   0.50014   0.64484   0.00000  Uiso   1.00
C1226  C     0.35334   0.46163   0.49372   0.00000  Uiso   1.00
C1227  C     0.64543   0.54240   0.49934   0.00000  Uiso   1.00
C1228  C     0.64681   0.46138   0.50659   0.00000  Uiso   1.00
H1229  H     0.37285   0.42415   0.40200   0.00000  Uiso   1.00
H1230  H     0.55516   0.61530   0.43402   0.00000  Uiso   1.00
H1231  H     0.62970   0.41617   0.59578   0.00000  Uiso   1.00
H1232  H     0.34692   0.42177   0.57770   0.00000  Uiso   1.00
H1233  H     0.34238   0.34789   0.53719   0.00000  Uiso   1.00
H1234  H     0.33481   0.34499   0.60322   0.00000  Uiso   1.00
H1235  H     0.62490   0.34038   0.55495   0.00000  Uiso   1.00
H1236  H     0.39597   0.56260   0.58266   0.00000  Uiso   1.00
H1237  H     0.35491   0.60338   0.57509   0.00000  Uiso   1.00
H1238  H     0.40970   0.65585   0.53948   0.00000  Uiso   1.00
H1239  H     0.41453   0.64514   0.60597   0.00000  Uiso   1.00
H1240  H     0.65480   0.42887   0.41775   0.00000  Uiso   1.00
H1241  H     0.44682   0.61549   0.56713   0.00000  Uiso   1.00
H1242  H     0.53850   0.34497   0.63056   0.00000  Uiso   1.00
H1243  H     0.50709   0.39182   0.61317   0.00000  Uiso   1.00
H1244  H     0.57111   0.44116   0.63647   0.00000  Uiso   1.00
H1245  H     0.55242   0.41150   0.35463   0.00000  Uiso   1.00
H1246  H     0.59688   0.39105   0.66173   0.00000  Uiso   1.00
H1247  H     0.43280   0.56363   0.41338   0.00000  Uiso   1.00
H1248  H     0.46438   0.60565   0.38784   0.00000  Uiso   1.00
H1249  H     0.39728   0.64603   0.35860   0.00000  Uiso   1.00
H1250  H     0.39913   0.58972   0.33476   0.00000  Uiso   1.00
H1251  H     0.65491   0.35260   0.44823   0.00000  Uiso   1.00
H1252  H     0.36972   0.60166   0.38585   0.00000  Uiso   1.00
H1253  H     0.46282   0.34393   0.37005   0.00000  Uiso   1.00
H1254  H     0.49368   0.39149   0.38620   0.00000  Uiso   1.00
H1255  H     0.43091   0.44030   0.35963   0.00000  Uiso   1.00
H1256  H     0.44733   0.40691   0.64293   0.00000  Uiso   1.00
H1257  H     0.40334   0.38986   0.33899   0.00000  Uiso   1.00
H1258  H     0.56688   0.56381   0.58812   0.00000  Uiso   1.00
H1259  H     0.53547   0.60648   0.61284   0.00000  Uiso   1.00
H1260  H     0.60359   0.64718   0.63969   0.00000  Uiso   1.00
H1261  H     0.60051   0.59198   0.66646   0.00000  Uiso   1.00
H1262  H     0.33436   0.35404   0.38417   0.00000  Uiso   1.00
H1263  H     0.63006   0.60081   0.61475   0.00000  Uiso   1.00
H1264  H     0.37400   0.34457   0.43621   0.00000  Uiso   1.00
H1265  H     0.60880   0.56490   0.41828   0.00000  Uiso   1.00
H1266  H     0.64826   0.60705   0.43096   0.00000  Uiso   1.00
H1267  H     0.59081   0.65666   0.46265   0.00000  Uiso   1.00
H1268  H     0.58756   0.64612   0.39620   0.00000  Uiso   1.00
N1269  N     0.50000   0.61907   0.50000   0.00000  Uiso   1.00
N1270  N     0.50000   0.38093   0.50000   0.00000  Uiso   1.00
O1271  O     0.43892   0.53821   0.50000   0.00000  Uiso   1.00
O1272  O     0.62465   0.58274   0.49421   0.00000  Uiso   1.00
O1273  O     0.62957   0.42131   0.51900   0.00000  Uiso   1.00
O1274  O     0.37561   0.58268   0.50854   0.00000  Uiso   1.00
O1275  O     0.55394   0.38017   0.56734   0.00000  Uiso   1.00
O1276  O     0.43364   0.62315   0.45146   0.00000  Uiso   1.00
O1277  O     0.44668   0.38044   0.43201   0.00000  Uiso   1.00
O1278  O     0.56607   0.62259   0.54868   0.00000  Uiso   1.00
O1279  O     0.56108   0.46179   0.50000   0.00000  Uiso   1.00
O1280  O     0.56108   0.53821   0.50000   0.00000  Uiso   1.00
O1281  O     0.43892   0.46179   0.50000   0.00000  Uiso   1.00
O1282  O     0.50000   0.53821   0.42845   0.00000  Uiso   1.00
O1283  O     0.50000   0.46179   0.57155   0.00000  Uiso   1.00
O1284  O     0.50000   0.53821   0.57155   0.00000  Uiso   1.00
O1285  O     0.50000   0.46179   0.42845   0.00000  Uiso   1.00
O1286  O     0.37007   0.42226   0.47843   0.00000  Uiso   1.00
Zn1287 Zn    0.50000   0.55104   0.50000   0.00000  Uiso   1.00
Zn1288 Zn    0.50000   0.44896   0.50000   0.00000  Uiso   1.00
C1289  C     0.75327   0.50027   0.49860   0.00000  Uiso   1.00
C1290  C     0.68819   0.54238   0.50318   0.00000  Uiso   1.00
C1291  C     0.95785   0.50137   0.50321   0.00000  Uiso   1.00
C1292  C     0.70898   0.50150   0.49794   0.00000  Uiso   1.00
C1293  C     0.86007   0.35722   0.53334   0.00000  Uiso   1.00
C1294  C     0.80410   0.64295   0.46960   0.00000  Uiso   1.00
C1295  C     0.80670   0.35736   0.46656   0.00000  Uiso   1.00
C1296  C     0.86249   0.64277   0.53046   0.00000  Uiso   1.00
C1297  C     0.68526   0.41256   0.42897   0.00000  Uiso   1.00
C1298  C     0.67850   0.36270   0.42384   0.00000  Uiso   1.00
C1299  C     0.95232   0.59408   0.44254   0.00000  Uiso   1.00
C1300  C     0.91343   0.50022   0.50166   0.00000  Uiso   1.00
C1301  C     0.91947   0.63026   0.43346   0.00000  Uiso   1.00
C1302  C     0.98255   0.40695   0.56627   0.00000  Uiso   1.00
C1303  C     0.98814   0.35680   0.56551   0.00000  Uiso   1.00
C1304  C     0.71699   0.59225   0.56047   0.00000  Uiso   1.00
C1305  C     0.74889   0.62947   0.56859   0.00000  Uiso   1.00
C1306  C     0.87238   0.37914   0.61516   0.00000  Uiso   1.00
C1307  C     0.89988   0.40750   0.65244   0.00000  Uiso   1.00
C1308  C     0.76907   0.59971   0.40596   0.00000  Uiso   1.00
C1309  C     0.73154   0.61028   0.36906   0.00000  Uiso   1.00
C1310  C     0.79518   0.37844   0.38437   0.00000  Uiso   1.00
C1311  C     0.83332   0.50003   0.40634   0.00000  Uiso   1.00
C1312  C     0.76750   0.40560   0.34598   0.00000  Uiso   1.00
C1313  C     0.89740   0.60003   0.59476   0.00000  Uiso   1.00
C1314  C     0.93514   0.61103   0.63114   0.00000  Uiso   1.00
C1315  C     0.83334   0.50001   0.59366   0.00000  Uiso   1.00
C1316  C     0.83336   0.50017   0.35516   0.00000  Uiso   1.00
C1317  C     0.83330   0.50014   0.64484   0.00000  Uiso   1.00
C1318  C     0.68668   0.46163   0.49372   0.00000  Uiso   1.00
C1319  C     0.97876   0.54240   0.49934   0.00000  Uiso   1.00
C1320  C     0.98015   0.46138   0.50659   0.00000  Uiso   1.00
H1321  H     0.70618   0.42415   0.40200   0.00000  Uiso   1.00
H1322  H     0.88849   0.61530   0.43402   0.00000  Uiso   1.00
H1323  H     0.96303   0.41617   0.59578   0.00000  Uiso   1.00
H1324  H     0.68025   0.42177   0.57770   0.00000  Uiso   1.00
H1325  H     0.67571   0.34789   0.53719   0.00000  Uiso   1.00
H1326  H     0.66815   0.34499   0.60322   0.00000  Uiso   1.00
H1327  H     0.95823   0.34038   0.55495   0.00000  Uiso   1.00
H1328  H     0.72930   0.56260   0.58266   0.00000  Uiso   1.00
H1329  H     0.68824   0.60338   0.57509   0.00000  Uiso   1.00
H1330  H     0.74304   0.65585   0.53948   0.00000  Uiso   1.00
H1331  H     0.74786   0.64514   0.60597   0.00000  Uiso   1.00
H1332  H     0.98813   0.42887   0.41775   0.00000  Uiso   1.00
H1333  H     0.78015   0.61549   0.56713   0.00000  Uiso   1.00
H1334  H     0.87184   0.34497   0.63056   0.00000  Uiso   1.00
H1335  H     0.84043   0.39182   0.61317   0.00000  Uiso   1.00
H1336  H     0.90445   0.44116   0.63647   0.00000  Uiso   1.00
H1337  H     0.88575   0.41150   0.35463   0.00000  Uiso   1.00
H1338  H     0.93022   0.39105   0.66173   0.00000  Uiso   1.00
H1339  H     0.76614   0.56363   0.41338   0.00000  Uiso   1.00
H1340  H     0.79772   0.60565   0.38784   0.00000  Uiso   1.00
H1341  H     0.73062   0.64603   0.35860   0.00000  Uiso   1.00
H1342  H     0.73247   0.58972   0.33476   0.00000  Uiso   1.00
H1343  H     0.98825   0.35260   0.44823   0.00000  Uiso   1.00
H1344  H     0.70306   0.60166   0.38585   0.00000  Uiso   1.00
H1345  H     0.79615   0.34393   0.37005   0.00000  Uiso   1.00
H1346  H     0.82701   0.39149   0.38620   0.00000  Uiso   1.00
H1347  H     0.76424   0.44030   0.35963   0.00000  Uiso   1.00
H1348  H     0.78066   0.40691   0.64293   0.00000  Uiso   1.00
H1349  H     0.73667   0.38986   0.33899   0.00000  Uiso   1.00
H1350  H     0.90021   0.56381   0.58812   0.00000  Uiso   1.00
H1351  H     0.86880   0.60648   0.61284   0.00000  Uiso   1.00
H1352  H     0.93692   0.64718   0.63969   0.00000  Uiso   1.00
H1353  H     0.93385   0.59198   0.66646   0.00000  Uiso   1.00
H1354  H     0.66769   0.35404   0.38417   0.00000  Uiso   1.00
H1355  H     0.96339   0.60081   0.61475   0.00000  Uiso   1.00
H1356  H     0.70733   0.34457   0.43621   0.00000  Uiso   1.00
H1357  H     0.94213   0.56490   0.41828   0.00000  Uiso   1.00
H1358  H     0.98160   0.60705   0.43096   0.00000  Uiso   1.00
H1359  H     0.92415   0.65666   0.46265   0.00000  Uiso   1.00
H1360  H     0.92090   0.64612   0.39620   0.00000  Uiso   1.00
N1361  N     0.83333   0.61907   0.50000   0.00000  Uiso   1.00
N1362  N     0.83333   0.38093   0.50000   0.00000  Uiso   1.00
O1363  O     0.77226   0.53821   0.50000   0.00000  Uiso   1.00
O1364  O     0.95798   0.58274   0.49421   0.00000  Uiso   1.00
O1365  O     0.96290   0.42131   0.51900   0.00000  Uiso   1.00
O1366  O     0.70894   0.58268   0.50854   0.00000  Uiso   1.00
O1367  O     0.88728   0.38017   0.56734   0.00000  Uiso   1.00
O1368  O     0.76698   0.62315   0.45146   0.00000  Uiso   1.00
O1369  O     0.78001   0.38044   0.43201   0.00000  Uiso   1.00
O1370  O     0.89940   0.62259   0.54868   0.00000  Uiso   1.00
O1371  O     0.89441   0.46179   0.50000   0.00000  Uiso   1.00
O1372  O     0.89441   0.53821   0.50000   0.00000  Uiso   1.00
O1373  O     0.77226   0.46179   0.50000   0.00000  Uiso   1.00
O1374  O     0.83334   0.53821   0.42845   0.00000  Uiso   1.00
O1375  O     0.83333   0.46179   0.57155   0.00000  Uiso   1.00
O1376  O     0.83333   0.53821   0.57155   0.00000  Uiso   1.00
O1377  O     0.83334   0.46179   0.42845   0.00000  Uiso   1.00
O1378  O     0.70340   0.42226   0.47843   0.00000  Uiso   1.00
Zn1379 Zn    0.83333   0.55104   0.50000   0.00000  Uiso   1.00
Zn1380 Zn    0.83333   0.44896   0.50000   0.00000  Uiso   1.00
C1381  C     0.08661   0.83360   0.49860   0.00000  Uiso   1.00
C1382  C     0.02152   0.87571   0.50318   0.00000  Uiso   1.00
C1383  C     0.29118   0.83470   0.50321   0.00000  Uiso   1.00
C1384  C     0.04231   0.83483   0.49794   0.00000  Uiso   1.00
C1385  C     0.19340   0.69055   0.53334   0.00000  Uiso   1.00
C1386  C     0.13743   0.97628   0.46960   0.00000  Uiso   1.00
C1387  C     0.14004   0.69069   0.46656   0.00000  Uiso   1.00
C1388  C     0.19582   0.97610   0.53046   0.00000  Uiso   1.00
C1389  C     0.01859   0.74590   0.42897   0.00000  Uiso   1.00
C1390  C     0.01184   0.69603   0.42384   0.00000  Uiso   1.00
C1391  C     0.28566   0.92741   0.44254   0.00000  Uiso   1.00
C1392  C     0.24676   0.83356   0.50166   0.00000  Uiso   1.00
C1393  C     0.25280   0.96360   0.43346   0.00000  Uiso   1.00
C1394  C     0.31589   0.74028   0.56627   0.00000  Uiso   1.00
C1395  C     0.32147   0.69013   0.56551   0.00000  Uiso   1.00
C1396  C     0.05032   0.92558   0.56047   0.00000  Uiso   1.00
C1397  C     0.08222   0.96281   0.56859   0.00000  Uiso   1.00
C1398  C     0.20571   0.71248   0.61516   0.00000  Uiso   1.00
C1399  C     0.23322   0.74083   0.65244   0.00000  Uiso   1.00
C1400  C     0.10240   0.93304   0.40596   0.00000  Uiso   1.00
C1401  C     0.06487   0.94361   0.36906   0.00000  Uiso   1.00
C1402  C     0.12852   0.71177   0.38437   0.00000  Uiso   1.00
C1403  C     0.16665   0.83337   0.40634   0.00000  Uiso   1.00
C1404  C     0.10084   0.73894   0.34598   0.00000  Uiso   1.00
C1405  C     0.23073   0.93337   0.59476   0.00000  Uiso   1.00
C1406  C     0.26847   0.94437   0.63114   0.00000  Uiso   1.00
C1407  C     0.16667   0.83334   0.59366   0.00000  Uiso   1.00
C1408  C     0.16669   0.83350   0.35516   0.00000  Uiso   1.00
C1409  C     0.16663   0.83347   0.64484   0.00000  Uiso   1.00
C1410  C     0.02001   0.79497   0.49372   0.00000  Uiso   1.00
C1411  C     0.31209   0.87573   0.49934   0.00000  Uiso   1.00
C1412  C     0.31348   0.79471   0.50659   0.00000  Uiso   1.00
H1413  H     0.03952   0.75748   0.40200   0.00000  Uiso   1.00
H1414  H     0.22183   0.94863   0.43402   0.00000  Uiso   1.00
H1415  H     0.29636   0.74950   0.59578   0.00000  Uiso   1.00
H1416  H     0.01358   0.75510   0.57770   0.00000  Uiso   1.00
H1417  H     0.00905   0.68123   0.53719   0.00000  Uiso   1.00
H1418  H     0.00148   0.67833   0.60322   0.00000  Uiso   1.00
H1419  H     0.29157   0.67372   0.55495   0.00000  Uiso   1.00
H1420  H     0.06263   0.89593   0.58266   0.00000  Uiso   1.00
H1421  H     0.02157   0.93671   0.57509   0.00000  Uiso   1.00
H1422  H     0.07637   0.98918   0.53948   0.00000  Uiso   1.00
H1423  H     0.08119   0.97847   0.60597   0.00000  Uiso   1.00
H1424  H     0.32147   0.76221   0.41775   0.00000  Uiso   1.00
H1425  H     0.11348   0.94882   0.56713   0.00000  Uiso   1.00
H1426  H     0.20517   0.67830   0.63056   0.00000  Uiso   1.00
H1427  H     0.17376   0.72515   0.61317   0.00000  Uiso   1.00
H1428  H     0.23778   0.77449   0.63647   0.00000  Uiso   1.00
H1429  H     0.21908   0.74484   0.35463   0.00000  Uiso   1.00
H1430  H     0.26355   0.72438   0.66173   0.00000  Uiso   1.00
H1431  H     0.09947   0.89697   0.41338   0.00000  Uiso   1.00
H1432  H     0.13105   0.93899   0.38784   0.00000  Uiso   1.00
H1433  H     0.06395   0.97936   0.35860   0.00000  Uiso   1.00
H1434  H     0.06580   0.92306   0.33476   0.00000  Uiso   1.00
H1435  H     0.32158   0.68593   0.44823   0.00000  Uiso   1.00
H1436  H     0.03639   0.93499   0.38585   0.00000  Uiso   1.00
H1437  H     0.12949   0.67726   0.37005   0.00000  Uiso   1.00
H1438  H     0.16034   0.72483   0.38620   0.00000  Uiso   1.00
H1439  H     0.09757   0.77363   0.35963   0.00000  Uiso   1.00
H1440  H     0.11400   0.74025   0.64293   0.00000  Uiso   1.00
H1441  H     0.07001   0.72320   0.33899   0.00000  Uiso   1.00
H1442  H     0.23355   0.89714   0.58812   0.00000  Uiso   1.00
H1443  H     0.20214   0.93982   0.61284   0.00000  Uiso   1.00
H1444  H     0.27025   0.98051   0.63969   0.00000  Uiso   1.00
H1445  H     0.26718   0.92532   0.66646   0.00000  Uiso   1.00
H1446  H     0.00103   0.68737   0.38417   0.00000  Uiso   1.00
H1447  H     0.29673   0.93414   0.61475   0.00000  Uiso   1.00
H1448  H     0.04066   0.67790   0.43621   0.00000  Uiso   1.00
H1449  H     0.27546   0.89824   0.41828   0.00000  Uiso   1.00
H1450  H     0.31493   0.94039   0.43096   0.00000  Uiso   1.00
H1451  H     0.25748   0.99000   0.46265   0.00000  Uiso   1.00
H1452  H     0.25423   0.97946   0.39620   0.00000  Uiso   1.00
N1453  N     0.16667   0.95240   0.50000   0.00000  Uiso   1.00
N1454  N     0.16667   0.71427   0.50000   0.00000  Uiso   1.00
O1455  O     0.10559   0.87154   0.50000   0.00000  Uiso   1.00
O1456  O     0.29131   0.91607   0.49421   0.00000  Uiso   1.00
O1457  O     0.29623   0.75464   0.51900   0.00000  Uiso   1.00
O1458  O     0.04228   0.91601   0.50854   0.00000  Uiso   1.00
O1459  O     0.22061   0.71351   0.56734   0.00000  Uiso   1.00
O1460  O     0.10031   0.95649   0.45146   0.00000  Uiso   1.00
O1461  O     0.11334   0.71378   0.43201   0.00000  Uiso   1.00
O1462  O     0.23274   0.95592   0.54868   0.00000  Uiso   1.00
O1463  O     0.22774   0.79513   0.50000   0.00000  Uiso   1.00
O1464  O     0.22774   0.87154   0.50000   0.00000  Uiso   1.00
O1465  O     0.10559   0.79513   0.50000   0.00000  Uiso   1.00
O1466  O     0.16667   0.87155   0.42845   0.00000  Uiso   1.00
O1467  O     0.16666   0.79512   0.57155   0.00000  Uiso   1.00
O1468  O     0.16666   0.87155   0.57155   0.00000  Uiso   1.00
O1469  O     0.16667   0.79512   0.42845   0.00000  Uiso   1.00
O1470  O     0.03673   0.75559   0.47843   0.00000  Uiso   1.00
Zn1471 Zn    0.16667   0.88437   0.50000   0.00000  Uiso   1.00
Zn1472 Zn    0.16667   0.78229   0.50000   0.00000  Uiso   1.00
C1473  C     0.41994   0.83360   0.49860   0.00000  Uiso   1.00
C1474  C     0.35485   0.87571   0.50318   0.00000  Uiso   1.00
C1475  C     0.62451   0.83470   0.50321   0.00000  Uiso   1.00
C1476  C     0.37564   0.83483   0.49794   0.00000  Uiso   1.00
C1477  C     0.52674   0.69055   0.53334   0.00000  Uiso   1.00
C1478  C     0.47077   0.97628   0.46960   0.00000  Uiso   1.00
C1479  C     0.47337   0.69069   0.46656   0.00000  Uiso   1.00
C1480  C     0.52916   0.97610   0.53046   0.00000  Uiso   1.00
C1481  C     0.35193   0.74590   0.42897   0.00000  Uiso   1.00
C1482  C     0.34517   0.69603   0.42384   0.00000  Uiso   1.00
C1483  C     0.61899   0.92741   0.44254   0.00000  Uiso   1.00
C1484  C     0.58010   0.83356   0.50166   0.00000  Uiso   1.00
C1485  C     0.58614   0.96360   0.43346   0.00000  Uiso   1.00
C1486  C     0.64922   0.74028   0.56627   0.00000  Uiso   1.00
C1487  C     0.65481   0.69013   0.56551   0.00000  Uiso   1.00
C1488  C     0.38366   0.92558   0.56047   0.00000  Uiso   1.00
C1489  C     0.41556   0.96281   0.56859   0.00000  Uiso   1.00
C1490  C     0.53904   0.71248   0.61516   0.00000  Uiso   1.00
C1491  C     0.56655   0.74083   0.65244   0.00000  Uiso   1.00
C1492  C     0.43574   0.93304   0.40596   0.00000  Uiso   1.00
C1493  C     0.39821   0.94361   0.36906   0.00000  Uiso   1.00
C1494  C     0.46185   0.71177   0.38437   0.00000  Uiso   1.00
C1495  C     0.49998   0.83337   0.40634   0.00000  Uiso   1.00
C1496  C     0.43417   0.73894   0.34598   0.00000  Uiso   1.00
C1497  C     0.56406   0.93337   0.59476   0.00000  Uiso   1.00
C1498  C     0.60181   0.94437   0.63114   0.00000  Uiso   1.00
C1499  C     0.50001   0.83334   0.59366   0.00000  Uiso   1.00
C1500  C     0.50003   0.83350   0.35516   0.00000  Uiso   1.00
C1501  C     0.49997   0.83347   0.64484   0.00000  Uiso   1.00
C1502  C     0.35334   0.79497   0.49372   0.00000  Uiso   1.00
C1503  C     0.64543   0.87573   0.49934   0.00000  Uiso   1.00
C1504  C     0.64681   0.79471   0.50659   0.00000  Uiso   1.00
H1505  H     0.37285   0.75748   0.40200   0.00000  Uiso   1.00
H1506  H     0.55516   0.94863   0.43402   0.00000  Uiso   1.00
H1507  H     0.62970   0.74950   0.59578   0.00000  Uiso   1.00
H1508  H     0.34692   0.75510   0.57770   0.00000  Uiso   1.00
H1509  H     0.34238   0.68123   0.53719   0.00000  Uiso   1.00
H1510  H     0.33481   0.67833   0.60322   0.00000  Uiso   1.00
H1511  H     0.62490   0.67372   0.55495   0.00000  Uiso   1.00
H1512  H     0.39597   0.89593   0.58266   0.00000  Uiso   1.00
H1513  H     0.35491   0.93671   0.57509   0.00000  Uiso   1.00
H1514  H     0.40970   0.98918   0.53948   0.00000  Uiso   1.00
H1515  H     0.41453   0.97847   0.60597   0.00000  Uiso   1.00
H1516  H     0.65480   0.76221   0.41775   0.00000  Uiso   1.00
H1517  H     0.44682   0.94882   0.56713   0.00000  Uiso   1.00
H1518  H     0.53850   0.67830   0.63056   0.00000  Uiso   1.00
H1519  H     0.50709   0.72515   0.61317   0.00000  Uiso   1.00
H1520  H     0.57111   0.77449   0.63647   0.00000  Uiso   1.00
H1521  H     0.55242   0.74484   0.35463   0.00000  Uiso   1.00
H1522  H     0.59688   0.72438   0.66173   0.00000  Uiso   1.00
H1523  H     0.43280   0.89697   0.41338   0.00000  Uiso   1.00
H1524  H     0.46438   0.93899   0.38784   0.00000  Uiso   1.00
H1525  H     0.39728   0.97936   0.35860   0.00000  Uiso   1.00
H1526  H     0.39913   0.92306   0.33476   0.00000  Uiso   1.00
H1527  H     0.65491   0.68593   0.44823   0.00000  Uiso   1.00
H1528  H     0.36972   0.93499   0.38585   0.00000  Uiso   1.00
H1529  H     0.46282   0.67726   0.37005   0.00000  Uiso   1.00
H1530  H     0.49368   0.72483   0.38620   0.00000  Uiso   1.00
H1531  H     0.43091   0.77363   0.35963   0.00000  Uiso   1.00
H1532  H     0.44733   0.74025   0.64293   0.00000  Uiso   1.00
H1533  H     0.40334   0.72320   0.33899   0.00000  Uiso   1.00
H1534  H     0.56688   0.89714   0.58812   0.00000  Uiso   1.00
H1535  H     0.53547   0.93982   0.61284   0.00000  Uiso   1.00
H1536  H     0.60359   0.98051   0.63969   0.00000  Uiso   1.00
H1537  H     0.60051   0.92532   0.66646   0.00000  Uiso   1.00
H1538  H     0.33436   0.68737   0.38417   0.00000  Uiso   1.00
H1539  H     0.63006   0.93414   0.61475   0.00000  Uiso   1.00
H1540  H     0.37400   0.67790   0.43621   0.00000  Uiso   1.00
H1541  H     0.60880   0.89824   0.41828   0.00000  Uiso   1.00
H1542  H     0.64826   0.94039   0.43096   0.00000  Uiso   1.00
H1543  H     0.59081   0.99000   0.46265   0.00000  Uiso   1.00
H1544  H     0.58756   0.97946   0.39620   0.00000  Uiso   1.00
N1545  N     0.50000   0.95240   0.50000   0.00000  Uiso   1.00
N1546  N     0.50000   0.71427   0.50000   0.00000  Uiso   1.00
O1547  O     0.43892   0.87154   0.50000   0.00000  Uiso   1.00
O1548  O     0.62465   0.91607   0.49421   0.00000  Uiso   1.00
O1549  O     0.62957   0.75464   0.51900   0.00000  Uiso   1.00
O1550  O     0.37561   0.91601   0.50854   0.00000  Uiso   1.00
O1551  O     0.55394   0.71351   0.56734   0.00000  Uiso   1.00
O1552  O     0.43364   0.95649   0.45146   0.00000  Uiso   1.00
O1553  O     0.44668   0.71378   0.43201   0.00000  Uiso   1.00
O1554  O     0.56607   0.95592   0.54868   0.00000  Uiso   1.00
O1555  O     0.56108   0.79513   0.50000   0.00000  Uiso   1.00
O1556  O     0.56108   0.87154   0.50000   0.00000  Uiso   1.00
O1557  O     0.43892   0.79513   0.50000   0.00000  Uiso   1.00
O1558  O     0.50000   0.87155   0.42845   0.00000  Uiso   1.00
O1559  O     0.50000   0.79512   0.57155   0.00000  Uiso   1.00
O1560  O     0.50000   0.87155   0.57155   0.00000  Uiso   1.00
O1561  O     0.50000   0.79512   0.42845   0.00000  Uiso   1.00
O1562  O     0.37007   0.75559   0.47843   0.00000  Uiso   1.00
Zn1563 Zn    0.50000   0.88437   0.50000   0.00000  Uiso   1.00
Zn1564 Zn    0.50000   0.78229   0.50000   0.00000  Uiso   1.00
C1565  C     0.75327   0.83360   0.49860   0.00000  Uiso   1.00
C1566  C     0.68819   0.87571   0.50318   0.00000  Uiso   1.00
C1567  C     0.95785   0.83470   0.50321   0.00000  Uiso   1.00
C1568  C     0.70898   0.83483   0.49794   0.00000  Uiso   1.00
C1569  C     0.86007   0.69055   0.53334   0.00000  Uiso   1.00
C1570  C     0.80410   0.97628   0.46960   0.00000  Uiso   1.00
C1571  C     0.80670   0.69069   0.46656   0.00000  Uiso   1.00
C1572  C     0.86249   0.97610   0.53046   0.00000  Uiso   1.00
C1573  C     0.68526   0.74590   0.42897   0.00000  Uiso   1.00
C1574  C     0.67850   0.69603   0.42384   0.00000  Uiso   1.00
C1575  C     0.95232   0.92741   0.44254   0.00000  Uiso   1.00
C1576  C     0.91343   0.83356   0.50166   0.00000  Uiso   1.00
C1577  C     0.91947   0.96360   0.43346   0.00000  Uiso   1.00
C1578  C     0.98255   0.74028   0.56627   0.00000  Uiso   1.00
C1579  C     0.98814   0.69013   0.56551   0.00000  Uiso   1.00
C1580  C     0.71699   0.92558   0.56047   0.00000  Uiso   1.00
C1581  C     0.74889   0.96281   0.56859   0.00000  Uiso   1.00
C1582  C     0.87238   0.71248   0.61516   0.00000  Uiso   1.00
C1583  C     0.89988   0.74083   0.65244   0.00000  Uiso   1.00
C1584  C     0.76907   0.93304   0.40596   0.00000  Uiso   1.00
C1585  C     0.73154   0.94361   0.36906   0.00000  Uiso   1.00
C1586  C     0.79518   0.71177   0.38437   0.00000  Uiso   1.00
C1587  C     0.83332   0.83337   0.40634   0.00000  Uiso   1.00
C1588  C     0.76750   0.73894   0.34598   0.00000  Uiso   1.00
C1589  C     0.89740   0.93337   0.59476   0.00000  Uiso   1.00
C1590  C     0.93514   0.94437   0.63114   0.00000  Uiso   1.00
C1591  C     0.83334   0.83334   0.59366   0.00000  Uiso   1.00
C1592  C     0.83336   0.83350   0.35516   0.00000  Uiso   1.00
C1593  C     0.83330   0.83347   0.64484   0.00000  Uiso   1.00
C1594  C     0.68668   0.79497   0.49372   0.00000  Uiso   1.00
C1595  C     0.97876   0.87573   0.49934   0.00000  Uiso   1.00
C1596  C     0.98015   0.79471   0.50659   0.00000  Uiso   1.00
H1597  H     0.70618   0.75748   0.40200   0.00000  Uiso   1.00
H1598  H     0.88849   0.94863   0.43402   0.00000  Uiso   1.00
H1599  H     0.96303   0.74950   0.59578   0.00000  Uiso   1.00
H1600  H     0.68025   0.75510   0.57770   0.00000  Uiso   1.00
H1601  H     0.67571   0.68123   0.53719   0.00000  Uiso   1.00
H1602  H     0.66815   0.67833   0.60322   0.00000  Uiso   1.00
H1603  H     0.95823   0.67372   0.55495   0.00000  Uiso   1.00
H1604  H     0.72930   0.89593   0.58266   0.00000  Uiso   1.00
H1605  H     0.68824   0.93671   0.57509   0.00000  Uiso   1.00
H1606  H     0.74304   0.98918   0.53948   0.00000  Uiso   1.00
H1607  H     0.74786   0.97847   0.60597   0.00000  Uiso   1.00
H1608  H     0.98813   0.76221   0.41775   0.00000  Uiso   1.00
H1609  H     0.78015   0.94882   0.56713   0.00000  Uiso   1.00
H1610  H     0.87184   0.67830   0.63056   0.00000  Uiso   1.00
H1611  H     0.84043   0.72515   0.61317   0.00000  Uiso   1.00
H1612  H     0.90445   0.77449   0.63647   0.00000  Uiso   1.00
H1613  H     0.88575   0.74484   0.35463   0.00000  Uiso   1.00
H1614  H     0.93022   0.72438   0.66173   0.00000  Uiso   1.00
H1615  H     0.76614   0.89697   0.41338   0.00000  Uiso   1.00
H1616  H     0.79772   0.93899   0.38784   0.00000  Uiso   1.00
H1617  H     0.73062   0.97936   0.35860   0.00000  Uiso   1.00
H1618  H     0.73247   0.92306   0.33476   0.00000  Uiso   1.00
H1619  H     0.98825   0.68593   0.44823   0.00000  Uiso   1.00
H1620  H     0.70306   0.93499   0.38585   0.00000  Uiso   1.00
H1621  H     0.79615   0.67726   0.37005   0.00000  Uiso   1.00
H1622  H     0.82701   0.72483   0.38620   0.00000  Uiso   1.00
H1623  H     0.76424   0.77363   0.35963   0.00000  Uiso   1.00
H1624  H     0.78066   0.74025   0.64293   0.00000  Uiso   1.00
H1625  H     0.73667   0.72320   0.33899   0.00000  Uiso   1.00
H1626  H     0.90021   0.89714   0.58812   0.00000  Uiso   1.00
H1627  H     0.86880   0.93982   0.61284   0.00000  Uiso   1.00
H1628  H     0.93692   0.98051   0.63969   0.00000  Uiso   1.00
H1629  H     0.93385   0.92532   0.66646   0.00000  Uiso   1.00
H1630  H     0.66769   0.68737   0.38417   0.00000  Uiso   1.00
H1631  H     0.96339   0.93414   0.61475   0.00000  Uiso   1.00
H1632  H     0.70733   0.67790   0.43621   0.00000  Uiso   1.00
H1633  H     0.94213   0.89824   0.41828   0.00000  Uiso   1.00
H1634  H     0.98160   0.94039   0.43096   0.00000  Uiso   1.00
H1635  H     0.92415   0.99000   0.46265   0.00000  Uiso   1.00
H1636  H     0.92090   0.97946   0.39620   0.00000  Uiso   1.00
N1637  N     0.83333   0.95240   0.50000   0.00000  Uiso   1.00
N1638  N     0.83333   0.71427   0.50000   0.00000  Uiso   1.00
O1639  O     0.77226   0.87154   0.50000   0.00000  Uiso   1.00
O1640  O     0.95798   0.91607   0.49421   0.00000  Uiso   1.00
O1641  O     0.96290   0.75464   0.51900   0.00000  Uiso   1.00
O1642  O     0.70894   0.91601   0.50854   0.00000  Uiso   1.00
O1643  O     0.88728   0.71351   0.56734   0.00000  Uiso   1.00
O1644  O     0.76698   0.95649   0.45146   0.00000  Uiso   1.00
O1645  O     0.78001   0.71378   0.43201   0.00000  Uiso   1.00
O1646  O     0.89940   0.95592   0.54868   0.00000  Uiso   1.00
O1647  O     0.89441   0.79513   0.50000   0.00000  Uiso   1.00
O1648  O     0.89441   0.87154   0.50000   0.00000  Uiso   1.00
O1649  O     0.77226   0.79513   0.50000   0.00000  Uiso   1.00
O1650  O     0.83334   0.87155   0.42845   0.00000  Uiso   1.00
O1651  O     0.83333   0.79512   0.57155   0.00000  Uiso   1.00
O1652  O     0.83333   0.87155   0.57155   0.00000  Uiso   1.00
O1653  O     0.83334   0.79512   0.42845   0.00000  Uiso   1.00
O1654  O     0.70340   0.75559   0.47843   0.00000  Uiso   1.00
Zn1655 Zn    0.83333   0.88437   0.50000   0.00000  Uiso   1.00
Zn1656 Zn    0.83333   0.78229   0.50000   0.00000  Uiso   1.00
C1657  C     0.08661   0.16693   0.83193   0.00000  Uiso   1.00
C1658  C     0.02152   0.20904   0.83651   0.00000  Uiso   1.00
C1659  C     0.29118   0.16804   0.83655   0.00000  Uiso   1.00
C1660  C     0.04231   0.16816   0.83128   0.00000  Uiso   1.00
C1661  C     0.19340   0.02388   0.86668   0.00000  Uiso   1.00
C1662  C     0.13743   0.30961   0.80293   0.00000  Uiso   1.00
C1663  C     0.14004   0.02402   0.79990   0.00000  Uiso   1.00
C1664  C     0.19582   0.30943   0.86380   0.00000  Uiso   1.00
C1665  C     0.01859   0.07923   0.76231   0.00000  Uiso   1.00
C1666  C     0.01184   0.02936   0.75717   0.00000  Uiso   1.00
C1667  C     0.28566   0.26075   0.77588   0.00000  Uiso   1.00
C1668  C     0.24676   0.16689   0.83499   0.00000  Uiso   1.00
C1669  C     0.25280   0.29693   0.76679   0.00000  Uiso   1.00
C1670  C     0.31589   0.07362   0.89960   0.00000  Uiso   1.00
C1671  C     0.32147   0.02346   0.89884   0.00000  Uiso   1.00
C1672  C     0.05032   0.25892   0.89380   0.00000  Uiso   1.00
C1673  C     0.08222   0.29614   0.90192   0.00000  Uiso   1.00
C1674  C     0.20571   0.04581   0.94849   0.00000  Uiso   1.00
C1675  C     0.23322   0.07417   0.98577   0.00000  Uiso   1.00
C1676  C     0.10240   0.26637   0.73930   0.00000  Uiso   1.00
C1677  C     0.06487   0.27694   0.70239   0.00000  Uiso   1.00
C1678  C     0.12852   0.04511   0.71770   0.00000  Uiso   1.00
C1679  C     0.16665   0.16670   0.73967   0.00000  Uiso   1.00
C1680  C     0.10084   0.07227   0.67932   0.00000  Uiso   1.00
C1681  C     0.23073   0.26670   0.92810   0.00000  Uiso   1.00
C1682  C     0.26847   0.27770   0.96447   0.00000  Uiso   1.00
C1683  C     0.16667   0.16668   0.92699   0.00000  Uiso   1.00
C1684  C     0.16669   0.16684   0.68849   0.00000  Uiso   1.00
C1685  C     0.16663   0.16680   0.97817   0.00000  Uiso   1.00
C1686  C     0.02001   0.12830   0.82706   0.00000  Uiso   1.00
C1687  C     0.31209   0.20907   0.83268   0.00000  Uiso   1.00
C1688  C     0.31348   0.12804   0.83993   0.00000  Uiso   1.00
H1689  H     0.03952   0.09082   0.73534   0.00000  Uiso   1.00
H1690  H     0.22183   0.28197   0.76736   0.00000  Uiso   1.00
H1691  H     0.29636   0.08283   0.92912   0.00000  Uiso   1.00
H1692  H     0.01358   0.08843   0.91103   0.00000  Uiso   1.00
H1693  H     0.00905   0.01456   0.87052   0.00000  Uiso   1.00
H1694  H     0.00148   0.01166   0.93656   0.00000  Uiso   1.00
H1695  H     0.29157   0.00705   0.88829   0.00000  Uiso   1.00
H1696  H     0.06263   0.22926   0.91600   0.00000  Uiso   1.00
H1697  H     0.02157   0.27004   0.90843   0.00000  Uiso   1.00
H1698  H     0.07637   0.32251   0.87282   0.00000  Uiso   1.00
H1699  H     0.08119   0.31181   0.93930   0.00000  Uiso   1.00
H1700  H     0.32147   0.09554   0.75108   0.00000  Uiso   1.00
H1701  H     0.11348   0.28215   0.90046   0.00000  Uiso   1.00
H1702  H     0.20517   0.01163   0.96390   0.00000  Uiso   1.00
H1703  H     0.17376   0.05849   0.94651   0.00000  Uiso   1.00
H1704  H     0.23778   0.10783   0.96981   0.00000  Uiso   1.00
H1705  H     0.21908   0.07817   0.68796   0.00000  Uiso   1.00
H1706  H     0.26355   0.05771   0.99506   0.00000  Uiso   1.00
H1707  H     0.09947   0.23030   0.74671   0.00000  Uiso   1.00
H1708  H     0.13105   0.27232   0.72118   0.00000  Uiso   1.00
H1709  H     0.06395   0.31269   0.69193   0.00000  Uiso   1.00
H1710  H     0.06580   0.25639   0.66809   0.00000  Uiso   1.00
H1711  H     0.32158   0.01927   0.78157   0.00000  Uiso   1.00
H1712  H     0.03639   0.26833   0.71918   0.00000  Uiso   1.00
H1713  H     0.12949   0.01060   0.70339   0.00000  Uiso   1.00
H1714  H     0.16034   0.05816   0.71954   0.00000  Uiso   1.00
H1715  H     0.09757   0.10696   0.69297   0.00000  Uiso   1.00
H1716  H     0.11400   0.07358   0.97626   0.00000  Uiso   1.00
H1717  H     0.07001   0.05653   0.67233   0.00000  Uiso   1.00
H1718  H     0.23355   0.23047   0.92145   0.00000  Uiso   1.00
H1719  H     0.20214   0.27315   0.94618   0.00000  Uiso   1.00
H1720  H     0.27025   0.31384   0.97302   0.00000  Uiso   1.00
H1721  H     0.26718   0.25865   0.99979   0.00000  Uiso   1.00
H1722  H     0.00103   0.02071   0.71751   0.00000  Uiso   1.00
H1723  H     0.29673   0.26747   0.94808   0.00000  Uiso   1.00
H1724  H     0.04066   0.01123   0.76954   0.00000  Uiso   1.00
H1725  H     0.27546   0.23157   0.75162   0.00000  Uiso   1.00
H1726  H     0.31493   0.27372   0.76430   0.00000  Uiso   1.00
H1727  H     0.25748   0.32333   0.79598   0.00000  Uiso   1.00
H1728  H     0.25423   0.31279   0.72953   0.00000  Uiso   1.00
N1729  N     0.16667   0.28573   0.83333   0.00000  Uiso   1.00
N1730  N     0.16667   0.04760   0.83333   0.00000  Uiso   1.00
O1731  O     0.10559   0.20487   0.83333   0.00000  Uiso   1.00
O1732  O     0.29131   0.24941   0.82754   0.00000  Uiso   1.00
O1733  O     0.29623   0.08798   0.85234   0.00000  Uiso   1.00
O1734  O     0.04228   0.24935   0.84187   0.00000  Uiso   1.00
O1735  O     0.22061   0.04684   0.90067   0.00000  Uiso   1.00
O1736  O     0.10031   0.28982   0.78480   0.00000  Uiso   1.00
O1737  O     0.11334   0.04711   0.76534   0.00000  Uiso   1.00
O1738  O     0.23274   0.28925   0.88202   0.00000  Uiso   1.00
O1739  O     0.22774   0.12846   0.83334   0.00000  Uiso   1.00
O1740  O     0.22774   0.20487   0.83334   0.00000  Uiso   1.00
O1741  O     0.10559   0.12846   0.83333   0.00000  Uiso   1.00
O1742  O     0.16667   0.20488   0.76178   0.00000  Uiso   1.00
O1743  O     0.16666   0.12845   0.90489   0.00000  Uiso   1.00
O1744  O     0.16666   0.20488   0.90489   0.00000  Uiso   1.00
O1745  O     0.16667   0.12845   0.76178   0.00000  Uiso   1.00
O1746  O     0.03673   0.08893   0.81176   0.00000  Uiso   1.00
Zn1747 Zn    0.16667   0.21771   0.83333   0.00000  Uiso   1.00
Zn1748 Zn    0.16667   0.11563   0.83333   0.00000  Uiso   1.00
C1749  C     0.41994   0.16693   0.83193   0.00000  Uiso   1.00
C1750  C     0.35485   0.20904   0.83651   0.00000  Uiso   1.00
C1751  C     0.62451   0.16804   0.83655   0.00000  Uiso   1.00
C1752  C     0.37564   0.16816   0.83128   0.00000  Uiso   1.00
C1753  C     0.52674   0.02388   0.86668   0.00000  Uiso   1.00
C1754  C     0.47077   0.30961   0.80293   0.00000  Uiso   1.00
C1755  C     0.47337   0.02402   0.79990   0.00000  Uiso   1.00
C1756  C     0.52916   0.30943   0.86380   0.00000  Uiso   1.00
C1757  C     0.35193   0.07923   0.76231   0.00000  Uiso   1.00
C1758  C     0.34517   0.02936   0.75717   0.00000  Uiso   1.00
C1759  C     0.61899   0.26075   0.77588   0.00000  Uiso   1.00
C1760  C     0.58010   0.16689   0.83499   0.00000  Uiso   1.00
C1761  C     0.58614   0.29693   0.76679   0.00000  Uiso   1.00
C1762  C     0.64922   0.07362   0.89960   0.00000  Uiso   1.00
C1763  C     0.65481   0.02346   0.89884   0.00000  Uiso   1.00
C1764  C     0.38366   0.25892   0.89380   0.00000  Uiso   1.00
C1765  C     0.41556   0.29614   0.90192   0.00000  Uiso   1.00
C1766  C     0.53904   0.04581   0.94849   0.00000  Uiso   1.00
C1767  C     0.56655   0.07417   0.98577   0.00000  Uiso   1.00
C1768  C     0.43574   0.26637   0.73930   0.00000  Uiso   1.00
C1769  C     0.39821   0.27694   0.70239   0.00000  Uiso   1.00
C1770  C     0.46185   0.04511   0.71770   0.00000  Uiso   1.00
C1771  C     0.49998   0.16670   0.73967   0.00000  Uiso   1.00
C1772  C     0.43417   0.07227   0.67932   0.00000  Uiso   1.00
C1773  C     0.56406   0.26670   0.92810   0.00000  Uiso   1.00
C1774  C     0.60181   0.27770   0.96447   0.00000  Uiso   1.00
C1775  C     0.50001   0.16668   0.92699   0.00000  Uiso   1.00
C1776  C     0.50003   0.16684   0.68849   0.00000  Uiso   1.00
C1777  C     0.49997   0.16680   0.97817   0.00000  Uiso   1.00
C1778  C     0.35334   0.12830   0.82706   0.00000  Uiso   1.00
C1779  C     0.64543   0.20907   0.83268   0.00000  Uiso   1.00
C1780  C     0.64681   0.12804   0.83993   0.00000  Uiso   1.00
H1781  H     0.37285   0.09082   0.73534   0.00000  Uiso   1.00
H1782  H     0.55516   0.28197   0.76736   0.00000  Uiso   1.00
H1783  H     0.62970   0.08283   0.92912   0.00000  Uiso   1.00
H1784  H     0.34692   0.08843   0.91103   0.00000  Uiso   1.00
H1785  H     0.34238   0.01456   0.87052   0.00000  Uiso   1.00
H1786  H     0.33481   0.01166   0.93656   0.00000  Uiso   1.00
H1787  H     0.62490   0.00705   0.88829   0.00000  Uiso   1.00
H1788  H     0.39597   0.22926   0.91600   0.00000  Uiso   1.00
H1789  H     0.35491   0.27004   0.90843   0.00000  Uiso   1.00
H1790  H     0.40970   0.32251   0.87282   0.00000  Uiso   1.00
H1791  H     0.41453   0.31181   0.93930   0.00000  Uiso   1.00
H1792  H     0.65480   0.09554   0.75108   0.00000  Uiso   1.00
H1793  H     0.44682   0.28215   0.90046   0.00000  Uiso   1.00
H1794  H     0.53850   0.01163   0.96390   0.00000  Uiso   1.00
H1795  H     0.50709   0.05849   0.94651   0.00000  Uiso   1.00
H1796  H     0.57111   0.10783   0.96981   0.00000  Uiso   1.00
H1797  H     0.55242   0.07817   0.68796   0.00000  Uiso   1.00
H1798  H     0.59688   0.05771   0.99506   0.00000  Uiso   1.00
H1799  H     0.43280   0.23030   0.74671   0.00000  Uiso   1.00
H1800  H     0.46438   0.27232   0.72118   0.00000  Uiso   1.00
H1801  H     0.39728   0.31269   0.69193   0.00000  Uiso   1.00
H1802  H     0.39913   0.25639   0.66809   0.00000  Uiso   1.00
H1803  H     0.65491   0.01927   0.78157   0.00000  Uiso   1.00
H1804  H     0.36972   0.26833   0.71918   0.00000  Uiso   1.00
H1805  H     0.46282   0.01060   0.70339   0.00000  Uiso   1.00
H1806  H     0.49368   0.05816   0.71954   0.00000  Uiso   1.00
H1807  H     0.43091   0.10696   0.69297   0.00000  Uiso   1.00
H1808  H     0.44733   0.07358   0.97626   0.00000  Uiso   1.00
H1809  H     0.40334   0.05653   0.67233   0.00000  Uiso   1.00
H1810  H     0.56688   0.23047   0.92145   0.00000  Uiso   1.00
H1811  H     0.53547   0.27315   0.94618   0.00000  Uiso   1.00
H1812  H     0.60359   0.31384   0.97302   0.00000  Uiso   1.00
H1813  H     0.60051   0.25865   0.99979   0.00000  Uiso   1.00
H1814  H     0.33436   0.02071   0.71751   0.00000  Uiso   1.00
H1815  H     0.63006   0.26747   0.94808   0.00000  Uiso   1.00
H1816  H     0.37400   0.01123   0.76954   0.00000  Uiso   1.00
H1817  H     0.60880   0.23157   0.75162   0.00000  Uiso   1.00
H1818  H     0.64826   0.27372   0.76430   0.00000  Uiso   1.00
H1819  H     0.59081   0.32333   0.79598   0.00000  Uiso   1.00
H1820  H     0.58756   0.31279   0.72953   0.00000  Uiso   1.00
N1821  N     0.50000   0.28573   0.83333   0.00000  Uiso   1.00
N1822  N     0.50000   0.04760   0.83333   0.00000  Uiso   1.00
O1823  O     0.43892   0.20487   0.83333   0.00000  Uiso   1.00
O1824  O     0.62465   0.24941   0.82754   0.00000  Uiso   1.00
O1825  O     0.62957   0.08798   0.85234   0.00000  Uiso   1.00
O1826  O     0.37561   0.24935   0.84187   0.00000  Uiso   1.00
O1827  O     0.55394   0.04684   0.90067   0.00000  Uiso   1.00
O1828  O     0.43364   0.28982   0.78480   0.00000  Uiso   1.00
O1829  O     0.44668   0.04711   0.76534   0.00000  Uiso   1.00
O1830  O     0.56607   0.28925   0.88202   0.00000  Uiso   1.00
O1831  O     0.56108   0.12846   0.83334   0.00000  Uiso   1.00
O1832  O     0.56108   0.20487   0.83334   0.00000  Uiso   1.00
O1833  O     0.43892   0.12846   0.83333   0.00000  Uiso   1.00
O1834  O     0.50000   0.20488   0.76178   0.00000  Uiso   1.00
O1835  O     0.50000   0.12845   0.90489   0.00000  Uiso   1.00
O1836  O     0.50000   0.20488   0.90489   0.00000  Uiso   1.00
O1837  O     0.50000   0.12845   0.76178   0.00000  Uiso   1.00
O1838  O     0.37007   0.08893   0.81176   0.00000  Uiso   1.00
Zn1839 Zn    0.50000   0.21771   0.83333   0.00000  Uiso   1.00
Zn1840 Zn    0.50000   0.11563   0.83333   0.00000  Uiso   1.00
C1841  C     0.75327   0.16693   0.83193   0.00000  Uiso   1.00
C1842  C     0.68819   0.20904   0.83651   0.00000  Uiso   1.00
C1843  C     0.95785   0.16804   0.83655   0.00000  Uiso   1.00
C1844  C     0.70898   0.16816   0.83128   0.00000  Uiso   1.00
C1845  C     0.86007   0.02388   0.86668   0.00000  Uiso   1.00
C1846  C     0.80410   0.30961   0.80293   0.00000  Uiso   1.00
C1847  C     0.80670   0.02402   0.79990   0.00000  Uiso   1.00
C1848  C     0.86249   0.30943   0.86380   0.00000  Uiso   1.00
C1849  C     0.68526   0.07923   0.76231   0.00000  Uiso   1.00
C1850  C     0.67850   0.02936   0.75717   0.00000  Uiso   1.00
C1851  C     0.95232   0.26075   0.77588   0.00000  Uiso   1.00
C1852  C     0.91343   0.16689   0.83499   0.00000  Uiso   1.00
C1853  C     0.91947   0.29693   0.76679   0.00000  Uiso   1.00
C1854  C     0.98255   0.07362   0.89960   0.00000  Uiso   1.00
C1855  C     0.98814   0.02346   0.89884   0.00000  Uiso   1.00
C1856  C     0.71699   0.25892   0.89380   0.00000  Uiso   1.00
C1857  C     0.74889   0.29614   0.90192   0.00000  Uiso   1.00
C1858  C     0.87238   0.04581   0.94849   0.00000  Uiso   1.00
C1859  C     0.89988   0.07417   0.98577   0.00000  Uiso   1.00
C1860  C     0.76907   0.26637   0.73930   0.00000  Uiso   1.00
C1861  C     0.73154   0.27694   0.70239   0.00000  Uiso   1.00
C1862  C     0.79518   0.04511   0.71770   0.00000  Uiso   1.00
C1863  C     0.83332   0.16670   0.73967   0.00000  Uiso   1.00
C1864  C     0.76750   0.07227   0.67932   0.00000  Uiso   1.00
C1865  C     0.89740   0.26670   0.92810   0.00000  Uiso   1.00
C1866  C     0.93514   0.27770   0.96447   0.00000  Uiso   1.00
C1867  C     0.83334   0.16668   0.92699   0.00000  Uiso   1.00
C1868  C     0.83336   0.16684   0.68849   0.00000  Uiso   1.00
C1869  C     0.83330   0.16680   0.97817   0.00000  Uiso   1.00
C1870  C     0.68668   0.12830   0.82706   0.00000  Uiso   1.00
C1871  C     0.97876   0.20907   0.83268   0.00000  Uiso   1.00
C1872  C     0.98015   0.12804   0.83993   0.00000  Uiso   1.00
H1873  H     0.70618   0.09082   0.73534   0.00000  Uiso   1.00
H1874  H     0.88849   0.28197   0.76736   0.00000  Uiso   1.00
H1875  H     0.96303   0.08283   0.92912   0.00000  Uiso   1.00
H1876  H     0.68025   0.08843   0.91103   0.00000  Uiso   1.00
H1877  H     0.67571   0.01456   0.87052   0.00000  Uiso   1.00
H1878  H     0.66815   0.01166   0.93656   0.00000  Uiso   1.00
H1879  H     0.95823   0.00705   0.88829   0.00000  Uiso   1.00
H1880  H     0.72930   0.22926   0.91600   0.00000  Uiso   1.00
H1881  H     0.68824   0.27004   0.90843   0.00000  Uiso   1.00
H1882  H     0.74304   0.32251   0.87282   0.00000  Uiso   1.00
H1883  H     0.74786   0.31181   0.93930   0.00000  Uiso   1.00
H1884  H     0.98813   0.09554   0.75108   0.00000  Uiso   1.00
H1885  H     0.78015   0.28215   0.90046   0.00000  Uiso   1.00
H1886  H     0.87184   0.01163   0.96390   0.00000  Uiso   1.00
H1887  H     0.84043   0.05849   0.94651   0.00000  Uiso   1.00
H1888  H     0.90445   0.10783   0.96981   0.00000  Uiso   1.00
H1889  H     0.88575   0.07817   0.68796   0.00000  Uiso   1.00
H1890  H     0.93022   0.05771   0.99506   0.00000  Uiso   1.00
H1891  H     0.76614   0.23030   0.74671   0.00000  Uiso   1.00
H1892  H     0.79772   0.27232   0.72118   0.00000  Uiso   1.00
H1893  H     0.73062   0.31269   0.69193   0.00000  Uiso   1.00
H1894  H     0.73247   0.25639   0.66809   0.00000  Uiso   1.00
H1895  H     0.98825   0.01927   0.78157   0.00000  Uiso   1.00
H1896  H     0.70306   0.26833   0.71918   0.00000  Uiso   1.00
H1897  H     0.79615   0.01060   0.70339   0.00000  Uiso   1.00
H1898  H     0.82701   0.05816   0.71954   0.00000  Uiso   1.00
H1899  H     0.76424   0.10696   0.69297   0.00000  Uiso   1.00
H1900  H     0.78066   0.07358   0.97626   0.00000  Uiso   1.00
H1901  H     0.73667   0.05653   0.67233   0.00000  Uiso   1.00
H1902  H     0.90021   0.23047   0.92145   0.00000  Uiso   1.00
H1903  H     0.86880   0.27315   0.94618   0.00000  Uiso   1.00
H1904  H     0.93692   0.31384   0.97302   0.00000  Uiso   1.00
H1905  H     0.93385   0.25865   0.99979   0.00000  Uiso   1.00
H1906  H     0.66769   0.02071   0.71751   0.00000  Uiso   1.00
H1907  H     0.96339   0.26747   0.94808   0.00000  Uiso   1.00
H1908  H     0.70733   0.01123   0.76954   0.00000  Uiso   1.00
H1909  H     0.94213   0.23157   0.75162   0.00000  Uiso   1.00
H1910  H     0.98160   0.27372   0.76430   0.00000  Uiso   1.00
H1911  H     0.92415   0.32333   0.79598   0.00000  Uiso   1.00
H1912  H     0.92090   0.31279   0.72953   0.00000  Uiso   1.00
N1913  N     0.83333   0.28573   0.83333   0.00000  Uiso   1.00
N1914  N     0.83333   0.04760   0.83333   0.00000  Uiso   1.00
O1915  O     0.77226   0.20487   0.83333   0.00000  Uiso   1.00
O1916  O     0.95798   0.24941   0.82754   0.00000  Uiso   1.00
O1917  O     0.96290   0.08798   0.85234   0.00000  Uiso   1.00
O1918  O     0.70894   0.24935   0.84187   0.00000  Uiso   1.00
O1919  O     0.88728   0.04684   0.90067   0.00000  Uiso   1.00
O1920  O     0.76698   0.28982   0.78480   0.00000  Uiso   1.00
O1921  O     0.78001   0.04711   0.76534   0.00000  Uiso   1.00
O1922  O     0.89940   0.28925   0.88202   0.00000  Uiso   1.00
O1923  O     0.89441   0.12846   0.83334   0.00000  Uiso   1.00
O1924  O     0.89441   0.20487   0.83334   0.00000  Uiso   1.00
O1925  O     0.77226   0.12846   0.83333   0.00000  Uiso   1.00
O1926  O     0.83334   0.20488   0.76178   0.00000  Uiso   1.00
O1927  O     0.83333   0.12845   0.90489   0.00000  Uiso   1.00
O1928  O     0.83333   0.20488   0.90489   0.00000  Uiso   1.00
O1929  O     0.83334   0.12845   0.76178   0.00000  Uiso   1.00
O1930  O     0.70340   0.08893   0.81176   0.00000  Uiso   1.00
Zn1931 Zn    0.83333   0.21771   0.83333   0.00000  Uiso   1.00
Zn1932 Zn    0.83333   0.11563   0.83333   0.00000  Uiso   1.00
C1933  C     0.08661   0.50027   0.83193   0.00000  Uiso   1.00
C1934  C     0.02152   0.54238   0.83651   0.00000  Uiso   1.00
C1935  C     0.29118   0.50137   0.83655   0.00000  Uiso   1.00
C1936  C     0.04231   0.50150   0.83128   0.00000  Uiso   1.00
C1937  C     0.19340   0.35722   0.86668   0.00000  Uiso   1.00
C1938  C     0.13743   0.64295   0.80293   0.00000  Uiso   1.00
C1939  C     0.14004   0.35736   0.79990   0.00000  Uiso   1.00
C1940  C     0.19582   0.64277   0.86380   0.00000  Uiso   1.00
C1941  C     0.01859   0.41256   0.76231   0.00000  Uiso   1.00
C1942  C     0.01184   0.36270   0.75717   0.00000  Uiso   1.00
C1943  C     0.28566   0.59408   0.77588   0.00000  Uiso   1.00
C1944  C     0.24676   0.50022   0.83499   0.00000  Uiso   1.00
C1945  C     0.25280   0.63026   0.76679   0.00000  Uiso   1.00
C1946  C     0.31589   0.40695   0.89960   0.00000  Uiso   1.00
C1947  C     0.32147   0.35680   0.89884   0.00000  Uiso   1.00
C1948  C     0.05032   0.59225   0.89380   0.00000  Uiso   1.00
C1949  C     0.08222   0.62947   0.90192   0.00000  Uiso   1.00
C1950  C     0.20571   0.37914   0.94849   0.00000  Uiso   1.00
C1951  C     0.23322   0.40750   0.98577   0.00000  Uiso   1.00
C1952  C     0.10240   0.59971   0.73930   0.00000  Uiso   1.00
C1953  C     0.06487   0.61028   0.70239   0.00000  Uiso   1.00
C1954  C     0.12852   0.37844   0.71770   0.00000  Uiso   1.00
C1955  C     0.16665   0.50003   0.73967   0.00000  Uiso   1.00
C1956  C     0.10084   0.40560   0.67932   0.00000  Uiso   1.00
C1957  C     0.23073   0.60003   0.92810   0.00000  Uiso   1.00
C1958  C     0.26847   0.61103   0.96447   0.00000  Uiso   1.00
C1959  C     0.16667   0.50001   0.92699   0.00000  Uiso   1.00
C1960  C     0.16669   0.50017   0.68849   0.00000  Uiso   1.00
C1961  C     0.16663   0.50014   0.97817   0.00000  Uiso   1.00
C1962  C     0.02001   0.46163   0.82706   0.00000  Uiso   1.00
C1963  C     0.31209   0.54240   0.83268   0.00000  Uiso   1.00
C1964  C     0.31348   0.46138   0.83993   0.00000  Uiso   1.00
H1965  H     0.03952   0.42415   0.73534   0.00000  Uiso   1.00
H1966  H     0.22183   0.61530   0.76736   0.00000  Uiso   1.00
H1967  H     0.29636   0.41617   0.92912   0.00000  Uiso   1.00
H1968  H     0.01358   0.42177   0.91103   0.00000  Uiso   1.00
H1969  H     0.00905   0.34789   0.87052   0.00000  Uiso   1.00
H1970  H     0.00148   0.34499   0.93656   0.00000  Uiso   1.00
H1971  H     0.29157   0.34038   0.88829   0.00000  Uiso   1.00
H1972  H     0.06263   0.56260   0.91600   0.00000  Uiso   1.00
H1973  H     0.02157   0.60338   0.90843   0.00000  Uiso   1.00
H1974  H     0.07637   0.65585   0.87282   0.00000  Uiso   1.00
H1975  H     0.08119   0.64514   0.93930   0.00000  Uiso   1.00
H1976  H     0.32147   0.42887   0.75108   0.00000  Uiso   1.00
H1977  H     0.11348   0.61549   0.90046   0.00000  Uiso   1.00
H1978  H     0.20517   0.34497   0.96390   0.00000  Uiso   1.00
H1979  H     0.17376   0.39182   0.94651   0.00000  Uiso   1.00
H1980  H     0.23778   0.44116   0.96981   0.00000  Uiso   1.00
H1981  H     0.21908   0.41150   0.68796   0.00000  Uiso   1.00
H1982  H     0.26355   0.39105   0.99506   0.00000  Uiso   1.00
H1983  H     0.09947   0.56363   0.74671   0.00000  Uiso   1.00
H1984  H     0.13105   0.60565   0.72118   0.00000  Uiso   1.00
H1985  H     0.06395   0.64603   0.69193   0.00000  Uiso   1.00
H1986  H     0.06580   0.58972   0.66809   0.00000  Uiso   1.00
H1987  H     0.32158   0.35260   0.78157   0.00000  Uiso   1.00
H1988  H     0.03639   0.60166   0.71918   0.00000  Uiso   1.00
H1989  H     0.12949   0.34393   0.70339   0.00000  Uiso   1.00
H1990  H     0.16034   0.39149   0.71954   0.00000  Uiso   1.00
H1991  H     0.09757   0.44030   0.69297   0.00000  Uiso   1.00
H1992  H     0.11400   0.40691   0.97626   0.00000  Uiso   1.00
H1993  H     0.07001   0.38986   0.67233   0.00000  Uiso   1.00
H1994  H     0.23355   0.56381   0.92145   0.00000  Uiso   1.00
H1995  H     0.20214   0.60648   0.94618   0.00000  Uiso   1.00
H1996  H     0.27025   0.64718   0.97302   0.00000  Uiso   1.00
H1997  H     0.26718   0.59198   0.99979   0.00000  Uiso   1.00
H1998  H     0.00103   0.35404   0.71751   0.00000  Uiso   1.00
H1999  H     0.29673   0.60081   0.94808   0.00000  Uiso   1.00
H2000  H     0.04066   0.34457   0.76954   0.00000  Uiso   1.00
H2001  H     0.27546   0.56490   0.75162   0.00000  Uiso   1.00
H2002  H     0.31493   0.60705   0.76430   0.00000  Uiso   1.00
H2003  H     0.25748   0.65666   0.79598   0.00000  Uiso   1.00
H2004  H     0.25423   0.64612   0.72953   0.00000  Uiso   1.00
N2005  N     0.16667   0.61907   0.83333   0.00000  Uiso   1.00
N2006  N     0.16667   0.38093   0.83333   0.00000  Uiso   1.00
O2007  O     0.10559   0.53821   0.83333   0.00000  Uiso   1.00
O2008  O     0.29131   0.58274   0.82754   0.00000  Uiso   1.00
O2009  O     0.29623   0.42131   0.85234   0.00000  Uiso   1.00
O2010  O     0.04228   0.58268   0.84187   0.00000  Uiso   1.00
O2011  O     0.22061   0.38017   0.90067   0.00000  Uiso   1.00
O2012  O     0.10031   0.62315   0.78480   0.00000  Uiso   1.00
O2013  O     0.11334   0.38044   0.76534   0.00000  Uiso   1.00
O2014  O     0.23274   0.62259   0.88202   0.00000  Uiso   1.00
O2015  O     0.22774   0.46179   0.83334   0.00000  Uiso   1.00
O2016  O     0.22774   0.53821   0.83334   0.00000  Uiso   1.00
O2017  O     0.10559   0.46179   0.83333   0.00000  Uiso   1.00
O2018  O     0.16667   0.53821   0.76178   0.00000  Uiso   1.00
O2019  O     0.16666   0.46179   0.90489   0.00000  Uiso   1.00
O2020  O     0.16666   0.53821   0.90489   0.00000  Uiso   1.00
O2021  O     0.16667   0.46179   0.76178   0.00000  Uiso   1.00
O2022  O     0.03673   0.42226   0.81176   0.00000  Uiso   1.00
Zn2023 Zn    0.16667   0.55104   0.83333   0.00000  Uiso   1.00
Zn2024 Zn    0.16667   0.44896   0.83333   0.00000  Uiso   1.00
C2025  C     0.41994   0.50027   0.83193   0.00000  Uiso   1.00
C2026  C     0.35485   0.54238   0.83651   0.00000  Uiso   1.00
C2027  C     0.62451   0.50137   0.83655   0.00000  Uiso   1.00
C2028  C     0.37564   0.50150   0.83128   0.00000  Uiso   1.00
C2029  C     0.52674   0.35722   0.86668   0.00000  Uiso   1.00
C2030  C     0.47077   0.64295   0.80293   0.00000  Uiso   1.00
C2031  C     0.47337   0.35736   0.79990   0.00000  Uiso   1.00
C2032  C     0.52916   0.64277   0.86380   0.00000  Uiso   1.00
C2033  C     0.35193   0.41256   0.76231   0.00000  Uiso   1.00
C2034  C     0.34517   0.36270   0.75717   0.00000  Uiso   1.00
C2035  C     0.61899   0.59408   0.77588   0.00000  Uiso   1.00
C2036  C     0.58010   0.50022   0.83499   0.00000  Uiso   1.00
C2037  C     0.58614   0.63026   0.76679   0.00000  Uiso   1.00
C2038  C     0.64922   0.40695   0.89960   0.00000  Uiso   1.00
C2039  C     0.65481   0.35680   0.89884   0.00000  Uiso   1.00
C2040  C     0.38366   0.59225   0.89380   0.00000  Uiso   1.00
C2041  C     0.41556   0.62947   0.90192   0.00000  Uiso   1.00
C2042  C     0.53904   0.37914   0.94849   0.00000  Uiso   1.00
C2043  C     0.56655   0.40750   0.98577   0.00000  Uiso   1.00
C2044  C     0.43574   0.59971   0.73930   0.00000  Uiso   1.00
C2045  C     0.39821   0.61028   0.70239   0.00000  Uiso   1.00
C2046  C     0.46185   0.37844   0.71770   0.00000  Uiso   1.00
C2047  C     0.49998   0.50003   0.73967   0.00000  Uiso   1.00
C2048  C     0.43417   0.40560   0.67932   0.00000  Uiso   1.00
C2049  C     0.56406   0.60003   0.92810   0.00000  Uiso   1.00
C2050  C     0.60181   0.61103   0.96447   0.00000  Uiso   1.00
C2051  C     0.50001   0.50001   0.92699   0.00000  Uiso   1.00
C2052  C     0.50003   0.50017   0.68849   0.00000  Uiso   1.00
C2053  C     0.49997   0.50014   0.97817   0.00000  Uiso   1.00
C2054  C     0.35334   0.46163   0.82706   0.00000  Uiso   1.00
C2055  C     0.64543   0.54240   0.83268   0.00000  Uiso   1.00
C2056  C     0.64681   0.46138   0.83993   0.00000  Uiso   1.00
H2057  H     0.37285   0.42415   0.73534   0.00000  Uiso   1.00
H2058  H     0.55516   0.61530   0.76736   0.00000  Uiso   1.00
H2059  H     0.62970   0.41617   0.92912   0.00000  Uiso   1.00
H2060  H     0.34692   0.42177   0.91103   0.00000  Uiso   1.00
H2061  H     0.34238   0.34789   0.87052   0.00000  Uiso   1.00
H2062  H     0.33481   0.34499   0.93656   0.00000  Uiso   1.00
H2063  H     0.62490   0.34038   0.88829   0.00000  Uiso   1.00
H2064  H     0.39597   0.56260   0.91600   0.00000  Uiso   1.00
H2065  H     0.35491   0.60338   0.90843   0.00000  Uiso   1.00
H2066  H     0.40970   0.65585   0.87282   0.00000  Uiso   1.00
H2067  H     0.41453   0.64514   0.93930   0.00000  Uiso   1.00
H2068  H     0.65480   0.42887   0.75108   0.00000  Uiso   1.00
H2069  H     0.44682   0.61549   0.90046   0.00000  Uiso   1.00
H2070  H     0.53850   0.34497   0.96390   0.00000  Uiso   1.00
H2071  H     0.50709   0.39182   0.94651   0.00000  Uiso   1.00
H2072  H     0.57111   0.44116   0.96981   0.00000  Uiso   1.00
H2073  H     0.55242   0.41150   0.68796   0.00000  Uiso   1.00
H2074  H     0.59688   0.39105   0.99506   0.00000  Uiso   1.00
H2075  H     0.43280   0.56363   0.74671   0.00000  Uiso   1.00
H2076  H     0.46438   0.60565   0.72118   0.00000  Uiso   1.00
H2077  H     0.39728   0.64603   0.69193   0.00000  Uiso   1.00
H2078  H     0.39913   0.58972   0.66809   0.00000  Uiso   1.00
H2079  H     0.65491   0.35260   0.78157   0.00000  Uiso   1.00
H2080  H     0.36972   0.60166   0.71918   0.00000  Uiso   1.00
H2081  H     0.46282   0.34393   0.70339   0.00000  Uiso   1.00
H2082  H     0.49368   0.39149   0.71954   0.00000  Uiso   1.00
H2083  H     0.43091   0.44030   0.69297   0.00000  Uiso   1.00
H2084  H     0.44733   0.40691   0.97626   0.00000  Uiso   1.00
H2085  H     0.40334   0.38986   0.67233   0.00000  Uiso   1.00
H2086  H     0.56688   0.56381   0.92145   0.00000  Uiso   1.00
H2087  H     0.53547   0.60648   0.94618   0.00000  Uiso   1.00
H2088  H     0.60359   0.64718   0.97302   0.00000  Uiso   1.00
H2089  H     0.60051   0.59198   0.99979   0.00000  Uiso   1.00
H2090  H     0.33436   0.35404   0.71751   0.00000  Uiso   1.00
H2091  H     0.63006   0.60081   0.94808   0.00000  Uiso   1.00
H2092  H     0.37400   0.34457   0.76954   0.00000  Uiso   1.00
H2093  H     0.60880   0.56490   0.75162   0.00000  Uiso   1.00
H2094  H     0.64826   0.60705   0.76430   0.00000  Uiso   1.00
H2095  H     0.59081   0.65666   0.79598   0.00000  Uiso   1.00
H2096  H     0.58756   0.64612   0.72953   0.00000  Uiso   1.00
N2097  N     0.50000   0.61907   0.83333   0.00000  Uiso   1.00
N2098  N     0.50000   0.38093   0.83333   0.00000  Uiso   1.00
O2099  O     0.43892   0.53821   0.83333   0.00000  Uiso   1.00
O2100  O     0.62465   0.58274   0.82754   0.00000  Uiso   1.00
O2101  O     0.62957   0.42131   0.85234   0.00000  Uiso   1.00
O2102  O     0.37561   0.58268   0.84187   0.00000  Uiso   1.00
O2103  O     0.55394   0.38017   0.90067   0.00000  Uiso   1.00
O2104  O     0.43364   0.62315   0.78480   0.00000  Uiso   1.00
O2105  O     0.44668   0.38044   0.76534   0.00000  Uiso   1.00
O2106  O     0.56607   0.62259   0.88202   0.00000  Uiso   1.00
O2107  O     0.56108   0.46179   0.83334   0.00000  Uiso   1.00
O2108  O     0.56108   0.53821   0.83334   0.00000  Uiso   1.00
O2109  O     0.43892   0.46179   0.83333   0.00000  Uiso   1.00
O2110  O     0.50000   0.53821   0.76178   0.00000  Uiso   1.00
O2111  O     0.50000   0.46179   0.90489   0.00000  Uiso   1.00
O2112  O     0.50000   0.53821   0.90489   0.00000  Uiso   1.00
O2113  O     0.50000   0.46179   0.76178   0.00000  Uiso   1.00
O2114  O     0.37007   0.42226   0.81176   0.00000  Uiso   1.00
Zn2115 Zn    0.50000   0.55104   0.83333   0.00000  Uiso   1.00
Zn2116 Zn    0.50000   0.44896   0.83333   0.00000  Uiso   1.00
C2117  C     0.75327   0.50027   0.83193   0.00000  Uiso   1.00
C2118  C     0.68819   0.54238   0.83651   0.00000  Uiso   1.00
C2119  C     0.95785   0.50137   0.83655   0.00000  Uiso   1.00
C2120  C     0.70898   0.50150   0.83128   0.00000  Uiso   1.00
C2121  C     0.86007   0.35722   0.86668   0.00000  Uiso   1.00
C2122  C     0.80410   0.64295   0.80293   0.00000  Uiso   1.00
C2123  C     0.80670   0.35736   0.79990   0.00000  Uiso   1.00
C2124  C     0.86249   0.64277   0.86380   0.00000  Uiso   1.00
C2125  C     0.68526   0.41256   0.76231   0.00000  Uiso   1.00
C2126  C     0.67850   0.36270   0.75717   0.00000  Uiso   1.00
C2127  C     0.95232   0.59408   0.77588   0.00000  Uiso   1.00
C2128  C     0.91343   0.50022   0.83499   0.00000  Uiso   1.00
C2129  C     0.91947   0.63026   0.76679   0.00000  Uiso   1.00
C2130  C     0.98255   0.40695   0.89960   0.00000  Uiso   1.00
C2131  C     0.98814   0.35680   0.89884   0.00000  Uiso   1.00
C2132  C     0.71699   0.59225   0.89380   0.00000  Uiso   1.00
C2133  C     0.74889   0.62947   0.90192   0.00000  Uiso   1.00
C2134  C     0.87238   0.37914   0.94849   0.00000  Uiso   1.00
C2135  C     0.89988   0.40750   0.98577   0.00000  Uiso   1.00
C2136  C     0.76907   0.59971   0.73930   0.00000  Uiso   1.00
C2137  C     0.73154   0.61028   0.70239   0.00000  Uiso   1.00
C2138  C     0.79518   0.37844   0.71770   0.00000  Uiso   1.00
C2139  C     0.83332   0.50003   0.73967   0.00000  Uiso   1.00
C2140  C     0.76750   0.40560   0.67932   0.00000  Uiso   1.00
C2141  C     0.89740   0.60003   0.92810   0.00000  Uiso   1.00
C2142  C     0.93514   0.61103   0.96447   0.00000  Uiso   1.00
C2143  C     0.83334   0.50001   0.92699   0.00000  Uiso   1.00
C2144  C     0.83336   0.50017   0.68849   0.00000  Uiso   1.00
C2145  C     0.83330   0.50014   0.97817   0.00000  Uiso   1.00
C2146  C     0.68668   0.46163   0.82706   0.00000  Uiso   1.00
C2147  C     0.97876   0.54240   0.83268   0.00000  Uiso   1.00
C2148  C     0.98015   0.46138   0.83993   0.00000  Uiso   1.00
H2149  H     0.70618   0.42415   0.73534   0.00000  Uiso   1.00
H2150  H     0.88849   0.61530   0.76736   0.00000  Uiso   1.00
H2151  H     0.96303   0.41617   0.92912   0.00000  Uiso   1.00
H2152  H     0.68025   0.42177   0.91103   0.00000  Uiso   1.00
H2153  H     0.67571   0.34789   0.87052   0.00000  Uiso   1.00
H2154  H     0.66815   0.34499   0.93656   0.00000  Uiso   1.00
H2155  H     0.95823   0.34038   0.88829   0.00000  Uiso   1.00
H2156  H     0.72930   0.56260   0.91600   0.00000  Uiso   1.00
H2157  H     0.68824   0.60338   0.90843   0.00000  Uiso   1.00
H2158  H     0.74304   0.65585   0.87282   0.00000  Uiso   1.00
H2159  H     0.74786   0.64514   0.93930   0.00000  Uiso   1.00
H2160  H     0.98813   0.42887   0.75108   0.00000  Uiso   1.00
H2161  H     0.78015   0.61549   0.90046   0.00000  Uiso   1.00
H2162  H     0.87184   0.34497   0.96390   0.00000  Uiso   1.00
H2163  H     0.84043   0.39182   0.94651   0.00000  Uiso   1.00
H2164  H     0.90445   0.44116   0.96981   0.00000  Uiso   1.00
H2165  H     0.88575   0.41150   0.68796   0.00000  Uiso   1.00
H2166  H     0.93022   0.39105   0.99506   0.00000  Uiso   1.00
H2167  H     0.76614   0.56363   0.74671   0.00000  Uiso   1.00
H2168  H     0.79772   0.60565   0.72118   0.00000  Uiso   1.00
H2169  H     0.73062   0.64603   0.69193   0.00000  Uiso   1.00
H2170  H     0.73247   0.58972   0.66809   0.00000  Uiso   1.00
H2171  H     0.98825   0.35260   0.78157   0.00000  Uiso   1.00
H2172  H     0.70306   0.60166   0.71918   0.00000  Uiso   1.00
H2173  H     0.79615   0.34393   0.70339   0.00000  Uiso   1.00
H2174  H     0.82701   0.39149   0.71954   0.00000  Uiso   1.00
H2175  H     0.76424   0.44030   0.69297   0.00000  Uiso   1.00
H2176  H     0.78066   0.40691   0.97626   0.00000  Uiso   1.00
H2177  H     0.73667   0.38986   0.67233   0.00000  Uiso   1.00
H2178  H     0.90021   0.56381   0.92145   0.00000  Uiso   1.00
H2179  H     0.86880   0.60648   0.94618   0.00000  Uiso   1.00
H2180  H     0.93692   0.64718   0.97302   0.00000  Uiso   1.00
H2181  H     0.93385   0.59198   0.99979   0.00000  Uiso   1.00
H2182  H     0.66769   0.35404   0.71751   0.00000  Uiso   1.00
H2183  H     0.96339   0.60081   0.94808   0.00000  Uiso   1.00
H2184  H     0.70733   0.34457   0.76954   0.00000  Uiso   1.00
H2185  H     0.94213   0.56490   0.75162   0.00000  Uiso   1.00
H2186  H     0.98160   0.60705   0.76430   0.00000  Uiso   1.00
H2187  H     0.92415   0.65666   0.79598   0.00000  Uiso   1.00
H2188  H     0.92090   0.64612   0.72953   0.00000  Uiso   1.00
N2189  N     0.83333   0.61907   0.83333   0.00000  Uiso   1.00
N2190  N     0.83333   0.38093   0.83333   0.00000  Uiso   1.00
O2191  O     0.77226   0.53821   0.83333   0.00000  Uiso   1.00
O2192  O     0.95798   0.58274   0.82754   0.00000  Uiso   1.00
O2193  O     0.96290   0.42131   0.85234   0.00000  Uiso   1.00
O2194  O     0.70894   0.58268   0.84187   0.00000  Uiso   1.00
O2195  O     0.88728   0.38017   0.90067   0.00000  Uiso   1.00
O2196  O     0.76698   0.62315   0.78480   0.00000  Uiso   1.00
O2197  O     0.78001   0.38044   0.76534   0.00000  Uiso   1.00
O2198  O     0.89940   0.62259   0.88202   0.00000  Uiso   1.00
O2199  O     0.89441   0.46179   0.83334   0.00000  Uiso   1.00
O2200  O     0.89441   0.53821   0.83334   0.00000  Uiso   1.00
O2201  O     0.77226   0.46179   0.83333   0.00000  Uiso   1.00
O2202  O     0.83334   0.53821   0.76178   0.00000  Uiso   1.00
O2203  O     0.83333   0.46179   0.90489   0.00000  Uiso   1.00
O2204  O     0.83333   0.53821   0.90489   0.00000  Uiso   1.00
O2205  O     0.83334   0.46179   0.76178   0.00000  Uiso   1.00
O2206  O     0.70340   0.42226   0.81176   0.00000  Uiso   1.00
Zn2207 Zn    0.83333   0.55104   0.83333   0.00000  Uiso   1.00
Zn2208 Zn    0.83333   0.44896   0.83333   0.00000  Uiso   1.00
C2209  C     0.08661   0.83360   0.83193   0.00000  Uiso   1.00
C2210  C     0.02152   0.87571   0.83651   0.00000  Uiso   1.00
C2211  C     0.29118   0.83470   0.83655   0.00000  Uiso   1.00
C2212  C     0.04231   0.83483   0.83128   0.00000  Uiso   1.00
C2213  C     0.19340   0.69055   0.86668   0.00000  Uiso   1.00
C2214  C     0.13743   0.97628   0.80293   0.00000  Uiso   1.00
C2215  C     0.14004   0.69069   0.79990   0.00000  Uiso   1.00
C2216  C     0.19582   0.97610   0.86380   0.00000  Uiso   1.00
C2217  C     0.01859   0.74590   0.76231   0.00000  Uiso   1.00
C2218  C     0.01184   0.69603   0.75717   0.00000  Uiso   1.00
C2219  C     0.28566   0.92741   0.77588   0.00000  Uiso   1.00
C2220  C     0.24676   0.83356   0.83499   0.00000  Uiso   1.00
C2221  C     0.25280   0.96360   0.76679   0.00000  Uiso   1.00
C2222  C     0.31589   0.74028   0.89960   0.00000  Uiso   1.00
C2223  C     0.32147   0.69013   0.89884   0.00000  Uiso   1.00
C2224  C     0.05032   0.92558   0.89380   0.00000  Uiso   1.00
C2225  C     0.08222   0.96281   0.90192   0.00000  Uiso   1.00
C2226  C     0.20571   0.71248   0.94849   0.00000  Uiso   1.00
C2227  C     0.23322   0.74083   0.98577   0.00000  Uiso   1.00
C2228  C     0.10240   0.93304   0.73930   0.00000  Uiso   1.00
C2229  C     0.06487   0.94361   0.70239   0.00000  Uiso   1.00
C2230  C     0.12852   0.71177   0.71770   0.00000  Uiso   1.00
C2231  C     0.16665   0.83337   0.73967   0.00000  Uiso   1.00
C2232  C     0.10084   0.73894   0.67932   0.00000  Uiso   1.00
C2233  C     0.23073   0.93337   0.92810   0.00000  Uiso   1.00
C2234  C     0.26847   0.94437   0.96447   0.00000  Uiso   1.00
C2235  C     0.16667   0.83334   0.92699   0.00000  Uiso   1.00
C2236  C     0.16669   0.83350   0.68849   0.00000  Uiso   1.00
C2237  C     0.16663   0.83347   0.97817   0.00000  Uiso   1.00
C2238  C     0.02001   0.79497   0.82706   0.00000  Uiso   1.00
C2239  C     0.31209   0.87573   0.83268   0.00000  Uiso   1.00
C2240  C     0.31348   0.79471   0.83993   0.00000  Uiso   1.00
H2241  H     0.03952   0.75748   0.73534   0.00000  Uiso   1.00
H2242  H     0.22183   0.94863   0.76736   0.00000  Uiso   1.00
H2243  H     0.29636   0.74950   0.92912   0.00000  Uiso   1.00
H2244  H     0.01358   0.75510   0.91103   0.00000  Uiso   1.00
H2245  H     0.00905   0.68123   0.87052   0.00000  Uiso   1.00
H2246  H     0.00148   0.67833   0.93656   0.00000  Uiso   1.00
H2247  H     0.29157   0.67372   0.88829   0.00000  Uiso   1.00
H2248  H     0.06263   0.89593   0.91600   0.00000  Uiso   1.00
H2249  H     0.02157   0.93671   0.90843   0.00000  Uiso   1.00
H2250  H     0.07637   0.98918   0.87282   0.00000  Uiso   1.00
H2251  H     0.08119   0.97847   0.93930   0.00000  Uiso   1.00
H2252  H     0.32147   0.76221   0.75108   0.00000  Uiso   1.00
H2253  H     0.11348   0.94882   0.90046   0.00000  Uiso   1.00
H2254  H     0.20517   0.67830   0.96390   0.00000  Uiso   1.00
H2255  H     0.17376   0.72515   0.94651   0.00000  Uiso   1.00
H2256  H     0.23778   0.77449   0.96981   0.00000  Uiso   1.00
H2257  H     0.21908   0.74484   0.68796   0.00000  Uiso   1.00
H2258  H     0.26355   0.72438   0.99506   0.00000  Uiso   1.00
H2259  H     0.09947   0.89697   0.74671   0.00000  Uiso   1.00
H2260  H     0.13105   0.93899   0.72118   0.00000  Uiso   1.00
H2261  H     0.06395   0.97936   0.69193   0.00000  Uiso   1.00
H2262  H     0.06580   0.92306   0.66809   0.00000  Uiso   1.00
H2263  H     0.32158   0.68593   0.78157   0.00000  Uiso   1.00
H2264  H     0.03639   0.93499   0.71918   0.00000  Uiso   1.00
H2265  H     0.12949   0.67726   0.70339   0.00000  Uiso   1.00
H2266  H     0.16034   0.72483   0.71954   0.00000  Uiso   1.00
H2267  H     0.09757   0.77363   0.69297   0.00000  Uiso   1.00
H2268  H     0.11400   0.74025   0.97626   0.00000  Uiso   1.00
H2269  H     0.07001   0.72320   0.67233   0.00000  Uiso   1.00
H2270  H     0.23355   0.89714   0.92145   0.00000  Uiso   1.00
H2271  H     0.20214   0.93982   0.94618   0.00000  Uiso   1.00
H2272  H     0.27025   0.98051   0.97302   0.00000  Uiso   1.00
H2273  H     0.26718   0.92532   0.99979   0.00000  Uiso   1.00
H2274  H     0.00103   0.68737   0.71751   0.00000  Uiso   1.00
H2275  H     0.29673   0.93414   0.94808   0.00000  Uiso   1.00
H2276  H     0.04066   0.67790   0.76954   0.00000  Uiso   1.00
H2277  H     0.27546   0.89824   0.75162   0.00000  Uiso   1.00
H2278  H     0.31493   0.94039   0.76430   0.00000  Uiso   1.00
H2279  H     0.25748   0.99000   0.79598   0.00000  Uiso   1.00
H2280  H     0.25423   0.97946   0.72953   0.00000  Uiso   1.00
N2281  N     0.16667   0.95240   0.83333   0.00000  Uiso   1.00
N2282  N     0.16667   0.71427   0.83333   0.00000  Uiso   1.00
O2283  O     0.10559   0.87154   0.83333   0.00000  Uiso   1.00
O2284  O     0.29131   0.91607   0.82754   0.00000  Uiso   1.00
O2285  O     0.29623   0.75464   0.85234   0.00000  Uiso   1.00
O2286  O     0.04228   0.91601   0.84187   0.00000  Uiso   1.00
O2287  O     0.22061   0.71351   0.90067   0.00000  Uiso   1.00
O2288  O     0.10031   0.95649   0.78480   0.00000  Uiso   1.00
O2289  O     0.11334   0.71378   0.76534   0.00000  Uiso   1.00
O2290  O     0.23274   0.95592   0.88202   0.00000  Uiso   1.00
O2291  O     0.22774   0.79513   0.83334   0.00000  Uiso   1.00
O2292  O     0.22774   0.87154   0.83334   0.00000  Uiso   1.00
O2293  O     0.10559   0.79513   0.83333   0.00000  Uiso   1.00
O2294  O     0.16667   0.87155   0.76178   0.00000  Uiso   1.00
O2295  O     0.16666   0.79512   0.90489   0.00000  Uiso   1.00
O2296  O     0.16666   0.87155   0.90489   0.00000  Uiso   1.00
O2297  O     0.16667   0.79512   0.76178   0.00000  Uiso   1.00
O2298  O     0.03673   0.75559   0.81176   0.00000  Uiso   1.00
Zn2299 Zn    0.16667   0.88437   0.83333   0.00000  Uiso   1.00
Zn2300 Zn    0.16667   0.78229   0.83333   0.00000  Uiso   1.00
C2301  C     0.41994   0.83360   0.83193   0.00000  Uiso   1.00
C2302  C     0.35485   0.87571   0.83651   0.00000  Uiso   1.00
C2303  C     0.62451   0.83470   0.83655   0.00000  Uiso   1.00
C2304  C     0.37564   0.83483   0.83128   0.00000  Uiso   1.00
C2305  C     0.52674   0.69055   0.86668   0.00000  Uiso   1.00
C2306  C     0.47077   0.97628   0.80293   0.00000  Uiso   1.00
C2307  C     0.47337   0.69069   0.79990   0.00000  Uiso   1.00
C2308  C     0.52916   0.97610   0.86380   0.00000  Uiso   1.00
C2309  C     0.35193   0.74590   0.76231   0.00000  Uiso   1.00
C2310  C     0.34517   0.69603   0.75717   0.00000  Uiso   1.00
C2311  C     0.61899   0.92741   0.77588   0.00000  Uiso   1.00
C2312  C     0.58010   0.83356   0.83499   0.00000  Uiso   1.00
C2313  C     0.58614   0.96360   0.76679   0.00000  Uiso   1.00
C2314  C     0.64922   0.74028   0.89960   0.00000  Uiso   1.00
C2315  C     0.65481   0.69013   0.89884   0.00000  Uiso   1.00
C2316  C     0.38366   0.92558   0.89380   0.00000  Uiso   1.00
C2317  C     0.41556   0.96281   0.90192   0.00000  Uiso   1.00
C2318  C     0.53904   0.71248   0.94849   0.00000  Uiso   1.00
C2319  C     0.56655   0.74083   0.98577   0.00000  Uiso   1.00
C2320  C     0.43574   0.93304   0.73930   0.00000  Uiso   1.00
C2321  C     0.39821   0.94361   0.70239   0.00000  Uiso   1.00
C2322  C     0.46185   0.71177   0.71770   0.00000  Uiso   1.00
C2323  C     0.49998   0.83337   0.73967   0.00000  Uiso   1.00
C2324  C     0.43417   0.73894   0.67932   0.00000  Uiso   1.00
C2325  C     0.56406   0.93337   0.92810   0.00000  Uiso   1.00
C2326  C     0.60181   0.94437   0.96447   0.00000  Uiso   1.00
C2327  C     0.50001   0.83334   0.92699   0.00000  Uiso   1.00
C2328  C     0.50003   0.83350   0.68849   0.00000  Uiso   1.00
C2329  C     0.49997   0.83347   0.97817   0.00000  Uiso   1.00
C2330  C     0.35334   0.79497   0.82706   0.00000  Uiso   1.00
C2331  C     0.64543   0.87573   0.83268   0.00000  Uiso   1.00
C2332  C     0.64681   0.79471   0.83993   0.00000  Uiso   1.00
H2333  H     0.37285   0.75748   0.73534   0.00000  Uiso   1.00
H2334  H     0.55516   0.94863   0.76736   0.00000  Uiso   1.00
H2335  H     0.62970   0.74950   0.92912   0.00000  Uiso   1.00
H2336  H     0.34692   0.75510   0.91103   0.00000  Uiso   1.00
H2337  H     0.34238   0.68123   0.87052   0.00000  Uiso   1.00
H2338  H     0.33481   0.67833   0.93656   0.00000  Uiso   1.00
H2339  H     0.62490   0.67372   0.88829   0.00000  Uiso   1.00
H2340  H     0.39597   0.89593   0.91600   0.00000  Uiso   1.00
H2341  H     0.35491   0.93671   0.90843   0.00000  Uiso   1.00
H2342  H     0.40970   0.98918   0.87282   0.00000  Uiso   1.00
H2343  H     0.41453   0.97847   0.93930   0.00000  Uiso   1.00
H2344  H     0.65480   0.76221   0.75108   0.00000  Uiso   1.00
H2345  H     0.44682   0.94882   0.90046   0.00000  Uiso   1.00
H2346  H     0.53850   0.67830   0.96390   0.00000  Uiso   1.00
H2347  H     0.50709   0.72515   0.94651   0.00000  Uiso   1.00
H2348  H     0.57111   0.77449   0.96981   0.00000  Uiso   1.00
H2349  H     0.55242   0.74484   0.68796   0.00000  Uiso   1.00
H2350  H     0.59688   0.72438   0.99506   0.00000  Uiso   1.00
H2351  H     0.43280   0.89697   0.74671   0.00000  Uiso   1.00
H2352  H     0.46438   0.93899   0.72118   0.00000  Uiso   1.00
H2353  H     0.39728   0.97936   0.69193   0.00000  Uiso   1.00
H2354  H     0.39913   0.92306   0.66809   0.00000  Uiso   1.00
H2355  H     0.65491   0.68593   0.78157   0.00000  Uiso   1.00
H2356  H     0.36972   0.93499   0.71918   0.00000  Uiso   1.00
H2357  H     0.46282   0.67726   0.70339   0.00000  Uiso   1.00
H2358  H     0.49368   0.72483   0.71954   0.00000  Uiso   1.00
H2359  H     0.43091   0.77363   0.69297   0.00000  Uiso   1.00
H2360  H     0.44733   0.74025   0.97626   0.00000  Uiso   1.00
H2361  H     0.40334   0.72320   0.67233   0.00000  Uiso   1.00
H2362  H     0.56688   0.89714   0.92145   0.00000  Uiso   1.00
H2363  H     0.53547   0.93982   0.94618   0.00000  Uiso   1.00
H2364  H     0.60359   0.98051   0.97302   0.00000  Uiso   1.00
H2365  H     0.60051   0.92532   0.99979   0.00000  Uiso   1.00
H2366  H     0.33436   0.68737   0.71751   0.00000  Uiso   1.00
H2367  H     0.63006   0.93414   0.94808   0.00000  Uiso   1.00
H2368  H     0.37400   0.67790   0.76954   0.00000  Uiso   1.00
H2369  H     0.60880   0.89824   0.75162   0.00000  Uiso   1.00
H2370  H     0.64826   0.94039   0.76430   0.00000  Uiso   1.00
H2371  H     0.59081   0.99000   0.79598   0.00000  Uiso   1.00
H2372  H     0.58756   0.97946   0.72953   0.00000  Uiso   1.00
N2373  N     0.50000   0.95240   0.83333   0.00000  Uiso   1.00
N2374  N     0.50000   0.71427   0.83333   0.00000  Uiso   1.00
O2375  O     0.43892   0.87154   0.83333   0.00000  Uiso   1.00
O2376  O     0.62465   0.91607   0.82754   0.00000  Uiso   1.00
O2377  O     0.62957   0.75464   0.85234   0.00000  Uiso   1.00
O2378  O     0.37561   0.91601   0.84187   0.00000  Uiso   1.00
O2379  O     0.55394   0.71351   0.90067   0.00000  Uiso   1.00
O2380  O     0.43364   0.95649   0.78480   0.00000  Uiso   1.00
O2381  O     0.44668   0.71378   0.76534   0.00000  Uiso   1.00
O2382  O     0.56607   0.95592   0.88202   0.00000  Uiso   1.00
O2383  O     0.56108   0.79513   0.83334   0.00000  Uiso   1.00
O2384  O     0.56108   0.87154   0.83334   0.00000  Uiso   1.00
O2385  O     0.43892   0.79513   0.83333   0.00000  Uiso   1.00
O2386  O     0.50000   0.87155   0.76178   0.00000  Uiso   1.00
O2387  O     0.50000   0.79512   0.90489   0.00000  Uiso   1.00
O2388  O     0.50000   0.87155   0.90489   0.00000  Uiso   1.00
O2389  O     0.50000   0.79512   0.76178   0.00000  Uiso   1.00
O2390  O     0.37007   0.75559   0.81176   0.00000  Uiso   1.00
Zn2391 Zn    0.50000   0.88437   0.83333   0.00000  Uiso   1.00
Zn2392 Zn    0.50000   0.78229   0.83333   0.00000  Uiso   1.00
C2393  C     0.75327   0.83360   0.83193   0.00000  Uiso   1.00
C2394  C     0.68819   0.87571   0.83651   0.00000  Uiso   1.00
C2395  C     0.95785   0.83470   0.83655   0.00000  Uiso   1.00
C2396  C     0.70898   0.83483   0.83128   0.00000  Uiso   1.00
C2397  C     0.86007   0.69055   0.86668   0.00000  Uiso   1.00
C2398  C     0.80410   0.97628   0.80293   0.00000  Uiso   1.00
C2399  C     0.80670   0.69069   0.79990   0.00000  Uiso   1.00
C2400  C     0.86249   0.97610   0.86380   0.00000  Uiso   1.00
C2401  C     0.68526   0.74590   0.76231   0.00000  Uiso   1.00
C2402  C     0.67850   0.69603   0.75717   0.00000  Uiso   1.00
C2403  C     0.95232   0.92741   0.77588   0.00000  Uiso   1.00
C2404  C     0.91343   0.83356   0.83499   0.00000  Uiso   1.00
C2405  C     0.91947   0.96360   0.76679   0.00000  Uiso   1.00
C2406  C     0.98255   0.74028   0.89960   0.00000  Uiso   1.00
C2407  C     0.98814   0.69013   0.89884   0.00000  Uiso   1.00
C2408  C     0.71699   0.92558   0.89380   0.00000  Uiso   1.00
C2409  C     0.74889   0.96281   0.90192   0.00000  Uiso   1.00
C2410  C     0.87238   0.71248   0.94849   0.00000  Uiso   1.00
C2411  C     0.89988   0.74083   0.98577   0.00000  Uiso   1.00
C2412  C     0.76907   0.93304   0.73930   0.00000  Uiso   1.00
C2413  C     0.73154   0.94361   0.70239   0.00000  Uiso   1.00
C2414  C     0.79518   0.71177   0.71770   0.00000  Uiso   1.00
C2415  C     0.83332   0.83337   0.73967   0.00000  Uiso   1.00
C2416  C     0.76750   0.73894   0.67932   0.00000  Uiso   1.00
C2417  C     0.89740   0.93337   0.92810   0.00000  Uiso   1.00
C2418  C     0.93514   0.94437   0.96447   0.00000  Uiso   1.00
C2419  C     0.83334   0.83334   0.92699   0.00000  Uiso   1.00
C2420  C     0.83336   0.83350   0.68849   0.00000  Uiso   1.00
C2421  C     0.83330   0.83347   0.97817   0.00000  Uiso   1.00
C2422  C     0.68668   0.79497   0.82706   0.00000  Uiso   1.00
C2423  C     0.97876   0.87573   0.83268   0.00000  Uiso   1.00
C2424  C     0.98015   0.79471   0.83993   0.00000  Uiso   1.00
H2425  H     0.70618   0.75748   0.73534   0.00000  Uiso   1.00
H2426  H     0.88849   0.94863   0.76736   0.00000  Uiso   1.00
H2427  H     0.96303   0.74950   0.92912   0.00000  Uiso   1.00
H2428  H     0.68025   0.75510   0.91103   0.00000  Uiso   1.00
H2429  H     0.67571   0.68123   0.87052   0.00000  Uiso   1.00
H2430  H     0.66815   0.67833   0.93656   0.00000  Uiso   1.00
H2431  H     0.95823   0.67372   0.88829   0.00000  Uiso   1.00
H2432  H     0.72930   0.89593   0.91600   0.00000  Uiso   1.00
H2433  H     0.68824   0.93671   0.90843   0.00000  Uiso   1.00
H2434  H     0.74304   0.98918   0.87282   0.00000  Uiso   1.00
H2435  H     0.74786   0.97847   0.93930   0.00000  Uiso   1.00
H2436  H     0.98813   0.76221   0.75108   0.00000  Uiso   1.00
H2437  H     0.78015   0.94882   0.90046   0.00000  Uiso   1.00
H2438  H     0.87184   0.67830   0.96390   0.00000  Uiso   1.00
H2439  H     0.84043   0.72515   0.94651   0.00000  Uiso   1.00
H2440  H     0.90445   0.77449   0.96981   0.00000  Uiso   1.00
H2441  H     0.88575   0.74484   0.68796   0.00000  Uiso   1.00
H2442  H     0.93022   0.72438   0.99506   0.00000  Uiso   1.00
H2443  H     0.76614   0.89697   0.74671   0.00000  Uiso   1.00
H2444  H     0.79772   0.93899   0.72118   0.00000  Uiso   1.00
H2445  H     0.73062   0.97936   0.69193   0.00000  Uiso   1.00
H2446  H     0.73247   0.92306   0.66809   0.00000  Uiso   1.00
H2447  H     0.98825   0.68593   0.78157   0.00000  Uiso   1.00
H2448  H     0.70306   0.93499   0.71918   0.00000  Uiso   1.00
H2449  H     0.79615   0.67726   0.70339   0.00000  Uiso   1.00
H2450  H     0.82701   0.72483   0.71954   0.00000  Uiso   1.00
H2451  H     0.76424   0.77363   0.69297   0.00000  Uiso   1.00
H2452  H     0.78066   0.74025   0.97626   0.00000  Uiso   1.00
H2453  H     0.73667   0.72320   0.67233   0.00000  Uiso   1.00
H2454  H     0.90021   0.89714   0.92145   0.00000  Uiso   1.00
H2455  H     0.86880   0.93982   0.94618   0.00000  Uiso   1.00
H2456  H     0.93692   0.98051   0.97302   0.00000  Uiso   1.00
H2457  H     0.93385   0.92532   0.99979   0.00000  Uiso   1.00
H2458  H     0.66769   0.68737   0.71751   0.00000  Uiso   1.00
H2459  H     0.96339   0.93414   0.94808   0.00000  Uiso   1.00
H2460  H     0.70733   0.67790   0.76954   0.00000  Uiso   1.00
H2461  H     0.94213   0.89824   0.75162   0.00000  Uiso   1.00
H2462  H     0.98160   0.94039   0.76430   0.00000  Uiso   1.00
H2463  H     0.92415   0.99000   0.79598   0.00000  Uiso   1.00
H2464  H     0.92090   0.97946   0.72953   0.00000  Uiso   1.00
N2465  N     0.83333   0.95240   0.83333   0.00000  Uiso   1.00
N2466  N     0.83333   0.71427   0.83333   0.00000  Uiso   1.00
O2467  O     0.77226   0.87154   0.83333   0.00000  Uiso   1.00
O2468  O     0.95798   0.91607   0.82754   0.00000  Uiso   1.00
O2469  O     0.96290   0.75464   0.85234   0.00000  Uiso   1.00
O2470  O     0.70894   0.91601   0.84187   0.00000  Uiso   1.00
O2471  O     0.88728   0.71351   0.90067   0.00000  Uiso   1.00
O2472  O     0.76698   0.95649   0.78480   0.00000  Uiso   1.00
O2473  O     0.78001   0.71378   0.76534   0.00000  Uiso   1.00
O2474  O     0.89940   0.95592   0.88202   0.00000  Uiso   1.00
O2475  O     0.89441   0.79513   0.83334   0.00000  Uiso   1.00
O2476  O     0.89441   0.87154   0.83334   0.00000  Uiso   1.00
O2477  O     0.77226   0.79513   0.83333   0.00000  Uiso   1.00
O2478  O     0.83334   0.87155   0.76178   0.00000  Uiso   1.00
O2479  O     0.83333   0.79512   0.90489   0.00000  Uiso   1.00
O2480  O     0.83333   0.87155   0.90489   0.00000  Uiso   1.00
O2481  O     0.83334   0.79512   0.76178   0.00000  Uiso   1.00
O2482  O     0.70340   0.75559   0.81176   0.00000  Uiso   1.00
Zn2483 Zn    0.83333   0.88437   0.83333   0.00000  Uiso   1.00
Zn2484 Zn    0.83333   0.78229   0.83333   0.00000  Uiso   1.00
loop_
_geom_bond_atom_site_label_1
_geom_bond_atom_site_label_2
_geom_bond_distance
_geom_bond_site_symmetry_2
_ccdc_geom_bond_type
C1     O85     1.305   .     A
C1     O75     1.292   .     A
C1     C4      1.445   .     S
C2     C4      1.413   .     A
C2     O78     1.383   .     S
C2     C215    1.389   1_455 S
C3     C12     1.447   .     S
C3     C31     1.414   .     A
C3     C32     1.398   .     A
C4     C30     1.396   .     A
C5     N74     1.374   .     A
C5     O79     1.382   .     S
C5     C560    1.434   1_545 S
C6     O80     1.388   .     S
C6     N73     1.382   .     A
C6     C283    1.434   .     S
C7     N74     1.372   .     A
C7     O81     1.382   .     S
C7     C558    1.434   1_545 S
C8     O82     1.387   .     S
C8     N73     1.380   .     A
C8     C281    1.434   .     S
C9     C10     1.512   .     S
C9     H33     1.102   .     S
C9     O90     1.418   .     S
C9     H228    1.119   1_455 S
C10    H66     1.111   .     S
C10    H68     1.105   .     S
C10    H239    1.105   1_455 S
C11    H70     1.107   .     S
C11    O76     1.414   .     S
C11    H69     1.117   .     S
C11    C13     1.524   .     S
C12    O84     1.293   .     A
C12    O83     1.305   .     A
C13    H71     1.109   .     S
C13    H72     1.108   .     S
C13    H34     1.108   .     S
C14    O77     1.419   .     S
C14    H35     1.102   .     S
C14    C15     1.512   .     S
C14    H128    1.118   .     S
C15    H39     1.102   .     S
C15    H129    1.106   .     S
C15    H130    1.110   .     S
C16    C17     1.525   .     S
C16    H40     1.117   .     S
C16    O78     1.413   .     S
C16    H41     1.107   .     S
C17    H45     1.108   .     S
C17    H42     1.109   .     S
C17    H43     1.108   .     S
C18    H47     1.106   .     S
C18    C19     1.525   .     S
C18    H46     1.103   .     S
C18    O79     1.417   .     S
C19    H48     1.110   .     S
C19    H50     1.109   .     S
C19    H877    1.107   .     S
C20    H51     1.103   .     S
C20    O80     1.412   .     S
C20    H52     1.114   .     S
C20    C21     1.519   .     S
C21    H53     1.105   .     S
C21    H54     1.107   .     S
C21    H56     1.107   .     S
C22    H57     1.103   .     S
C22    O81     1.417   .     S
C22    C24     1.524   .     S
C22    H58     1.107   .     S
C23    O86     1.286   .     A
C23    O89     1.287   .     A
C23    C28     1.368   .     S
C24    H61     1.109   .     S
C24    H59     1.109   .     S
C24    H1716   1.106   1_554 S
C25    H63     1.114   .     S
C25    C26     1.520   .     S
C25    O82     1.412   .     S
C25    H62     1.104   .     S
C26    H67     1.107   .     S
C26    H64     1.105   .     S
C26    H65     1.107   .     S
C27    C29     1.368   .     S
C27    O88     1.286   .     A
C27    O87     1.287   .     A
C28    C1685   1.166   1_554 S
C29    C856    1.166   .     S
C30    O90     1.379   .     S
C30    C216    1.382   1_455 S
C31    O76     1.383   .     S
C31    C94     1.389   .     S
C32    O77     1.380   .     S
C32    C122    1.382   .     S
H36    C198    1.118   1_455 S
H37    C199    1.106   1_455 S
H38    C199    1.110   1_455 S
H44    C101    1.119   .     S
H49    C1675   1.107   1_554 S
H55    C102    1.105   .     S
H60    C852    1.106   .     S
N73    Zn91    2.035   .     S
N74    Zn92    2.035   .     S
O75    Zn91    2.031   .     S
O83    Zn92    2.031   .     S
O84    Zn91    2.031   .     S
O85    Zn92    2.031   .     S
O86    Zn91    1.951   .     S
O87    Zn92    1.951   .     S
O88    Zn91    1.950   .     S
O89    Zn92    1.950   .     S
C93    O177    1.305   .     A
C93    O167    1.292   .     A
C93    C96     1.445   .     S
C94    C96     1.413   .     A
C94    O170    1.383   .     S
C95    C104    1.447   .     S
C95    C123    1.414   .     A
C95    C124    1.398   .     A
C96    C122    1.396   .     A
C97    N166    1.374   .     A
C97    O171    1.382   .     S
C97    C652    1.434   1_545 S
C98    O172    1.388   .     S
C98    N165    1.382   .     A
C98    C375    1.434   .     S
C99    N166    1.372   .     A
C99    O173    1.382   .     S
C99    C650    1.434   1_545 S
C100   O174    1.387   .     S
C100   N165    1.380   .     A
C100   C373    1.434   .     S
C101   C102    1.512   .     S
C101   H125    1.102   .     S
C101   O182    1.418   .     S
C102   H158    1.111   .     S
C102   H160    1.105   .     S
C103   H162    1.107   .     S
C103   O168    1.414   .     S
C103   H161    1.117   .     S
C103   C105    1.524   .     S
C104   O176    1.293   .     A
C104   O175    1.305   .     A
C105   H163    1.109   .     S
C105   H164    1.108   .     S
C105   H126    1.108   .     S
C106   O169    1.419   .     S
C106   H127    1.102   .     S
C106   C107    1.512   .     S
C106   H220    1.118   .     S
C107   H131    1.102   .     S
C107   H221    1.106   .     S
C107   H222    1.110   .     S
C108   C109    1.525   .     S
C108   H132    1.117   .     S
C108   O170    1.413   .     S
C108   H133    1.107   .     S
C109   H137    1.108   .     S
C109   H134    1.109   .     S
C109   H135    1.108   .     S
C110   H139    1.106   .     S
C110   C111    1.525   .     S
C110   H138    1.103   .     S
C110   O171    1.417   .     S
C111   H140    1.110   .     S
C111   H142    1.109   .     S
C111   H969    1.107   .     S
C112   H143    1.103   .     S
C112   O172    1.412   .     S
C112   H144    1.114   .     S
C112   C113    1.519   .     S
C113   H145    1.105   .     S
C113   H146    1.107   .     S
C113   H148    1.107   .     S
C114   H149    1.103   .     S
C114   O173    1.417   .     S
C114   C116    1.524   .     S
C114   H150    1.107   .     S
C115   O178    1.286   .     A
C115   O181    1.287   .     A
C115   C120    1.368   .     S
C116   H153    1.109   .     S
C116   H151    1.109   .     S
C116   H1808   1.106   1_554 S
C117   H155    1.114   .     S
C117   C118    1.520   .     S
C117   O174    1.412   .     S
C117   H154    1.104   .     S
C118   H159    1.107   .     S
C118   H156    1.105   .     S
C118   H157    1.107   .     S
C119   C121    1.368   .     S
C119   O180    1.286   .     A
C119   O179    1.287   .     A
C120   C1777   1.166   1_554 S
C121   C948    1.166   .     S
C122   O182    1.379   .     S
C123   O168    1.383   .     S
C123   C186    1.389   .     S
C124   O169    1.380   .     S
C124   C214    1.382   .     S
H136   C193    1.119   .     S
H141   C1767   1.107   1_554 S
H147   C194    1.105   .     S
H152   C944    1.106   .     S
N165   Zn183   2.035   .     S
N166   Zn184   2.035   .     S
O167   Zn183   2.031   .     S
O175   Zn184   2.031   .     S
O176   Zn183   2.031   .     S
O177   Zn184   2.031   .     S
O178   Zn183   1.951   .     S
O179   Zn184   1.951   .     S
O180   Zn183   1.950   .     S
O181   Zn184   1.950   .     S
C185   O269    1.305   .     A
C185   O259    1.292   .     A
C185   C188    1.445   .     S
C186   C188    1.413   .     A
C186   O262    1.383   .     S
C187   C196    1.447   .     S
C187   C215    1.414   .     A
C187   C216    1.398   .     A
C188   C214    1.396   .     A
C189   N258    1.374   .     A
C189   O263    1.382   .     S
C189   C744    1.434   1_545 S
C190   O264    1.388   .     S
C190   N257    1.382   .     A
C190   C467    1.434   .     S
C191   N258    1.372   .     A
C191   O265    1.382   .     S
C191   C742    1.434   1_545 S
C192   O266    1.387   .     S
C192   N257    1.380   .     A
C192   C465    1.434   .     S
C193   C194    1.512   .     S
C193   H217    1.102   .     S
C193   O274    1.418   .     S
C194   H250    1.111   .     S
C194   H252    1.105   .     S
C195   H254    1.107   .     S
C195   O260    1.414   .     S
C195   H253    1.117   .     S
C195   C197    1.524   .     S
C196   O268    1.293   .     A
C196   O267    1.305   .     A
C197   H255    1.109   .     S
C197   H256    1.108   .     S
C197   H218    1.108   .     S
C198   O261    1.419   .     S
C198   H219    1.102   .     S
C198   C199    1.512   .     S
C198   H36     1.118   1_655 S
C199   H223    1.102   .     S
C199   H37     1.106   1_655 S
C199   H38     1.110   1_655 S
C200   C201    1.525   .     S
C200   H224    1.117   .     S
C200   O262    1.413   .     S
C200   H225    1.107   .     S
C201   H229    1.108   .     S
C201   H226    1.109   .     S
C201   H227    1.108   .     S
C202   H231    1.106   .     S
C202   C203    1.525   .     S
C202   H230    1.103   .     S
C202   O263    1.417   .     S
C203   H232    1.110   .     S
C203   H234    1.109   .     S
C203   H1061   1.107   .     S
C204   H235    1.103   .     S
C204   O264    1.412   .     S
C204   H236    1.114   .     S
C204   C205    1.519   .     S
C205   H237    1.105   .     S
C205   H238    1.107   .     S
C205   H240    1.107   .     S
C206   H241    1.103   .     S
C206   O265    1.417   .     S
C206   C208    1.524   .     S
C206   H242    1.107   .     S
C207   O270    1.286   .     A
C207   O273    1.287   .     A
C207   C212    1.368   .     S
C208   H245    1.109   .     S
C208   H243    1.109   .     S
C208   H1900   1.106   1_554 S
C209   H247    1.114   .     S
C209   C210    1.520   .     S
C209   O266    1.412   .     S
C209   H246    1.104   .     S
C210   H251    1.107   .     S
C210   H248    1.105   .     S
C210   H249    1.107   .     S
C211   C213    1.368   .     S
C211   O272    1.286   .     A
C211   O271    1.287   .     A
C212   C1869   1.166   1_554 S
C213   C1040   1.166   .     S
C214   O274    1.379   .     S
C215   O260    1.383   .     S
C215   C2      1.389   1_655 S
C216   O261    1.380   .     S
C216   C30     1.382   1_655 S
H228   C9      1.119   1_655 S
H233   C1859   1.107   1_554 S
H239   C10     1.105   1_655 S
H244   C1036   1.106   .     S
N257   Zn275   2.035   .     S
N258   Zn276   2.035   .     S
O259   Zn275   2.031   .     S
O267   Zn276   2.031   .     S
O268   Zn275   2.031   .     S
O269   Zn276   2.031   .     S
O270   Zn275   1.951   .     S
O271   Zn276   1.951   .     S
O272   Zn275   1.950   .     S
O273   Zn276   1.950   .     S
C277   O361    1.305   .     A
C277   O351    1.292   .     A
C277   C280    1.445   .     S
C278   C280    1.413   .     A
C278   O354    1.383   .     S
C278   C491    1.389   1_455 S
C279   C288    1.447   .     S
C279   C307    1.414   .     A
C279   C308    1.398   .     A
C280   C306    1.396   .     A
C281   N350    1.374   .     A
C281   O355    1.382   .     S
C282   O356    1.388   .     S
C282   N349    1.382   .     A
C282   C559    1.434   .     S
C283   N350    1.372   .     A
C283   O357    1.382   .     S
C284   O358    1.387   .     S
C284   N349    1.380   .     A
C284   C557    1.434   .     S
C285   C286    1.512   .     S
C285   H309    1.102   .     S
C285   O366    1.418   .     S
C285   H504    1.119   1_455 S
C286   H342    1.111   .     S
C286   H344    1.105   .     S
C286   H515    1.105   1_455 S
C287   H346    1.107   .     S
C287   O352    1.414   .     S
C287   H345    1.117   .     S
C287   C289    1.524   .     S
C288   O360    1.293   .     A
C288   O359    1.305   .     A
C289   H347    1.109   .     S
C289   H348    1.108   .     S
C289   H310    1.108   .     S
C290   O353    1.419   .     S
C290   H311    1.102   .     S
C290   C291    1.512   .     S
C290   H404    1.118   .     S
C291   H315    1.102   .     S
C291   H405    1.106   .     S
C291   H406    1.110   .     S
C292   C293    1.525   .     S
C292   H316    1.117   .     S
C292   O354    1.413   .     S
C292   H317    1.107   .     S
C293   H321    1.108   .     S
C293   H318    1.109   .     S
C293   H319    1.108   .     S
C294   H323    1.106   .     S
C294   C295    1.525   .     S
C294   H322    1.103   .     S
C294   O355    1.417   .     S
C295   H324    1.110   .     S
C295   H326    1.109   .     S
C295   H1153   1.107   .     S
C296   H327    1.103   .     S
C296   O356    1.412   .     S
C296   H328    1.114   .     S
C296   C297    1.519   .     S
C297   H329    1.105   .     S
C297   H330    1.107   .     S
C297   H332    1.107   .     S
C298   H333    1.103   .     S
C298   O357    1.417   .     S
C298   C300    1.524   .     S
C298   H334    1.107   .     S
C299   O362    1.286   .     A
C299   O365    1.287   .     A
C299   C304    1.368   .     S
C300   H337    1.109   .     S
C300   H335    1.109   .     S
C300   H1992   1.106   1_554 S
C301   H339    1.114   .     S
C301   C302    1.520   .     S
C301   O358    1.412   .     S
C301   H338    1.104   .     S
C302   H343    1.107   .     S
C302   H340    1.105   .     S
C302   H341    1.107   .     S
C303   C305    1.368   .     S
C303   O364    1.286   .     A
C303   O363    1.287   .     A
C304   C1961   1.166   1_554 S
C305   C1132   1.166   .     S
C306   O366    1.379   .     S
C306   C492    1.382   1_455 S
C307   O352    1.383   .     S
C307   C370    1.389   .     S
C308   O353    1.380   .     S
C308   C398    1.382   .     S
H312   C474    1.118   1_455 S
H313   C475    1.106   1_455 S
H314   C475    1.110   1_455 S
H320   C377    1.119   .     S
H325   C1951   1.107   1_554 S
H331   C378    1.105   .     S
H336   C1128   1.106   .     S
N349   Zn367   2.035   .     S
N350   Zn368   2.035   .     S
O351   Zn367   2.031   .     S
O359   Zn368   2.031   .     S
O360   Zn367   2.031   .     S
O361   Zn368   2.031   .     S
O362   Zn367   1.951   .     S
O363   Zn368   1.951   .     S
O364   Zn367   1.950   .     S
O365   Zn368   1.950   .     S
C369   O453    1.305   .     A
C369   O443    1.292   .     A
C369   C372    1.445   .     S
C370   C372    1.413   .     A
C370   O446    1.383   .     S
C371   C380    1.447   .     S
C371   C399    1.414   .     A
C371   C400    1.398   .     A
C372   C398    1.396   .     A
C373   N442    1.374   .     A
C373   O447    1.382   .     S
C374   O448    1.388   .     S
C374   N441    1.382   .     A
C374   C651    1.434   .     S
C375   N442    1.372   .     A
C375   O449    1.382   .     S
C376   O450    1.387   .     S
C376   N441    1.380   .     A
C376   C649    1.434   .     S
C377   C378    1.512   .     S
C377   H401    1.102   .     S
C377   O458    1.418   .     S
C378   H434    1.111   .     S
C378   H436    1.105   .     S
C379   H438    1.107   .     S
C379   O444    1.414   .     S
C379   H437    1.117   .     S
C379   C381    1.524   .     S
C380   O452    1.293   .     A
C380   O451    1.305   .     A
C381   H439    1.109   .     S
C381   H440    1.108   .     S
C381   H402    1.108   .     S
C382   O445    1.419   .     S
C382   H403    1.102   .     S
C382   C383    1.512   .     S
C382   H496    1.118   .     S
C383   H407    1.102   .     S
C383   H497    1.106   .     S
C383   H498    1.110   .     S
C384   C385    1.525   .     S
C384   H408    1.117   .     S
C384   O446    1.413   .     S
C384   H409    1.107   .     S
C385   H413    1.108   .     S
C385   H410    1.109   .     S
C385   H411    1.108   .     S
C386   H415    1.106   .     S
C386   C387    1.525   .     S
C386   H414    1.103   .     S
C386   O447    1.417   .     S
C387   H416    1.110   .     S
C387   H418    1.109   .     S
C387   H1245   1.107   .     S
C388   H419    1.103   .     S
C388   O448    1.412   .     S
C388   H420    1.114   .     S
C388   C389    1.519   .     S
C389   H421    1.105   .     S
C389   H422    1.107   .     S
C389   H424    1.107   .     S
C390   H425    1.103   .     S
C390   O449    1.417   .     S
C390   C392    1.524   .     S
C390   H426    1.107   .     S
C391   O454    1.286   .     A
C391   O457    1.287   .     A
C391   C396    1.368   .     S
C392   H429    1.109   .     S
C392   H427    1.109   .     S
C392   H2084   1.106   1_554 S
C393   H431    1.114   .     S
C393   C394    1.520   .     S
C393   O450    1.412   .     S
C393   H430    1.104   .     S
C394   H435    1.107   .     S
C394   H432    1.105   .     S
C394   H433    1.107   .     S
C395   C397    1.368   .     S
C395   O456    1.286   .     A
C395   O455    1.287   .     A
C396   C2053   1.166   1_554 S
C397   C1224   1.166   .     S
C398   O458    1.379   .     S
C399   O444    1.383   .     S
C399   C462    1.389   .     S
C400   O445    1.380   .     S
C400   C490    1.382   .     S
H412   C469    1.119   .     S
H417   C2043   1.107   1_554 S
H423   C470    1.105   .     S
H428   C1220   1.106   .     S
N441   Zn459   2.035   .     S
N442   Zn460   2.035   .     S
O443   Zn459   2.031   .     S
O451   Zn460   2.031   .     S
O452   Zn459   2.031   .     S
O453   Zn460   2.031   .     S
O454   Zn459   1.951   .     S
O455   Zn460   1.951   .     S
O456   Zn459   1.950   .     S
O457   Zn460   1.950   .     S
C461   O545    1.305   .     A
C461   O535    1.292   .     A
C461   C464    1.445   .     S
C462   C464    1.413   .     A
C462   O538    1.383   .     S
C463   C472    1.447   .     S
C463   C491    1.414   .     A
C463   C492    1.398   .     A
C464   C490    1.396   .     A
C465   N534    1.374   .     A
C465   O539    1.382   .     S
C466   O540    1.388   .     S
C466   N533    1.382   .     A
C466   C743    1.434   .     S
C467   N534    1.372   .     A
C467   O541    1.382   .     S
C468   O542    1.387   .     S
C468   N533    1.380   .     A
C468   C741    1.434   .     S
C469   C470    1.512   .     S
C469   H493    1.102   .     S
C469   O550    1.418   .     S
C470   H526    1.111   .     S
C470   H528    1.105   .     S
C471   H530    1.107   .     S
C471   O536    1.414   .     S
C471   H529    1.117   .     S
C471   C473    1.524   .     S
C472   O544    1.293   .     A
C472   O543    1.305   .     A
C473   H531    1.109   .     S
C473   H532    1.108   .     S
C473   H494    1.108   .     S
C474   O537    1.419   .     S
C474   H495    1.102   .     S
C474   C475    1.512   .     S
C474   H312    1.118   1_655 S
C475   H499    1.102   .     S
C475   H313    1.106   1_655 S
C475   H314    1.110   1_655 S
C476   C477    1.525   .     S
C476   H500    1.117   .     S
C476   O538    1.413   .     S
C476   H501    1.107   .     S
C477   H505    1.108   .     S
C477   H502    1.109   .     S
C477   H503    1.108   .     S
C478   H507    1.106   .     S
C478   C479    1.525   .     S
C478   H506    1.103   .     S
C478   O539    1.417   .     S
C479   H508    1.110   .     S
C479   H510    1.109   .     S
C479   H1337   1.107   .     S
C480   H511    1.103   .     S
C480   O540    1.412   .     S
C480   H512    1.114   .     S
C480   C481    1.519   .     S
C481   H513    1.105   .     S
C481   H514    1.107   .     S
C481   H516    1.107   .     S
C482   H517    1.103   .     S
C482   O541    1.417   .     S
C482   C484    1.524   .     S
C482   H518    1.107   .     S
C483   O546    1.286   .     A
C483   O549    1.287   .     A
C483   C488    1.368   .     S
C484   H521    1.109   .     S
C484   H519    1.109   .     S
C484   H2176   1.106   1_554 S
C485   H523    1.114   .     S
C485   C486    1.520   .     S
C485   O542    1.412   .     S
C485   H522    1.104   .     S
C486   H527    1.107   .     S
C486   H524    1.105   .     S
C486   H525    1.107   .     S
C487   C489    1.368   .     S
C487   O548    1.286   .     A
C487   O547    1.287   .     A
C488   C2145   1.166   1_554 S
C489   C1316   1.166   .     S
C490   O550    1.379   .     S
C491   O536    1.383   .     S
C491   C278    1.389   1_655 S
C492   O537    1.380   .     S
C492   C306    1.382   1_655 S
H504   C285    1.119   1_655 S
H509   C2135   1.107   1_554 S
H515   C286    1.105   1_655 S
H520   C1312   1.106   .     S
N533   Zn551   2.035   .     S
N534   Zn552   2.035   .     S
O535   Zn551   2.031   .     S
O543   Zn552   2.031   .     S
O544   Zn551   2.031   .     S
O545   Zn552   2.031   .     S
O546   Zn551   1.951   .     S
O547   Zn552   1.951   .     S
O548   Zn551   1.950   .     S
O549   Zn552   1.950   .     S
C553   O637    1.305   .     A
C553   O627    1.292   .     A
C553   C556    1.445   .     S
C554   C556    1.413   .     A
C554   O630    1.383   .     S
C554   C767    1.389   1_455 S
C555   C564    1.447   .     S
C555   C583    1.414   .     A
C555   C584    1.398   .     A
C556   C582    1.396   .     A
C557   N626    1.374   .     A
C557   O631    1.382   .     S
C558   O632    1.388   .     S
C558   N625    1.382   .     A
C558   C7      1.434   1_565 S
C559   N626    1.372   .     A
C559   O633    1.382   .     S
C560   O634    1.387   .     S
C560   N625    1.380   .     A
C560   C5      1.434   1_565 S
C561   C562    1.512   .     S
C561   H585    1.102   .     S
C561   O642    1.418   .     S
C561   H780    1.119   1_455 S
C562   H618    1.111   .     S
C562   H620    1.105   .     S
C562   H791    1.105   1_455 S
C563   H622    1.107   .     S
C563   O628    1.414   .     S
C563   H621    1.117   .     S
C563   C565    1.524   .     S
C564   O636    1.293   .     A
C564   O635    1.305   .     A
C565   H623    1.109   .     S
C565   H624    1.108   .     S
C565   H586    1.108   .     S
C566   O629    1.419   .     S
C566   H587    1.102   .     S
C566   C567    1.512   .     S
C566   H680    1.118   .     S
C567   H591    1.102   .     S
C567   H681    1.106   .     S
C567   H682    1.110   .     S
C568   C569    1.525   .     S
C568   H592    1.117   .     S
C568   O630    1.413   .     S
C568   H593    1.107   .     S
C569   H597    1.108   .     S
C569   H594    1.109   .     S
C569   H595    1.108   .     S
C570   H599    1.106   .     S
C570   C571    1.525   .     S
C570   H598    1.103   .     S
C570   O631    1.417   .     S
C571   H600    1.110   .     S
C571   H602    1.109   .     S
C571   H1429   1.107   .     S
C572   H603    1.103   .     S
C572   O632    1.412   .     S
C572   H604    1.114   .     S
C572   C573    1.519   .     S
C573   H605    1.105   .     S
C573   H606    1.107   .     S
C573   H608    1.107   .     S
C574   H609    1.103   .     S
C574   O633    1.417   .     S
C574   C576    1.524   .     S
C574   H610    1.107   .     S
C575   O638    1.286   .     A
C575   O641    1.287   .     A
C575   C580    1.368   .     S
C576   H613    1.109   .     S
C576   H611    1.109   .     S
C576   H2268   1.106   1_554 S
C577   H615    1.114   .     S
C577   C578    1.520   .     S
C577   O634    1.412   .     S
C577   H614    1.104   .     S
C578   H619    1.107   .     S
C578   H616    1.105   .     S
C578   H617    1.107   .     S
C579   C581    1.368   .     S
C579   O640    1.286   .     A
C579   O639    1.287   .     A
C580   C2237   1.166   1_554 S
C581   C1408   1.166   .     S
C582   O642    1.379   .     S
C582   C768    1.382   1_455 S
C583   O628    1.383   .     S
C583   C646    1.389   .     S
C584   O629    1.380   .     S
C584   C674    1.382   .     S
H588   C750    1.118   1_455 S
H589   C751    1.106   1_455 S
H590   C751    1.110   1_455 S
H596   C653    1.119   .     S
H601   C2227   1.107   1_554 S
H607   C654    1.105   .     S
H612   C1404   1.106   .     S
N625   Zn643   2.035   .     S
N626   Zn644   2.035   .     S
O627   Zn643   2.031   .     S
O635   Zn644   2.031   .     S
O636   Zn643   2.031   .     S
O637   Zn644   2.031   .     S
O638   Zn643   1.951   .     S
O639   Zn644   1.951   .     S
O640   Zn643   1.950   .     S
O641   Zn644   1.950   .     S
C645   O729    1.305   .     A
C645   O719    1.292   .     A
C645   C648    1.445   .     S
C646   C648    1.413   .     A
C646   O722    1.383   .     S
C647   C656    1.447   .     S
C647   C675    1.414   .     A
C647   C676    1.398   .     A
C648   C674    1.396   .     A
C649   N718    1.374   .     A
C649   O723    1.382   .     S
C650   O724    1.388   .     S
C650   N717    1.382   .     A
C650   C99     1.434   1_565 S
C651   N718    1.372   .     A
C651   O725    1.382   .     S
C652   O726    1.387   .     S
C652   N717    1.380   .     A
C652   C97     1.434   1_565 S
C653   C654    1.512   .     S
C653   H677    1.102   .     S
C653   O734    1.418   .     S
C654   H710    1.111   .     S
C654   H712    1.105   .     S
C655   H714    1.107   .     S
C655   O720    1.414   .     S
C655   H713    1.117   .     S
C655   C657    1.524   .     S
C656   O728    1.293   .     A
C656   O727    1.305   .     A
C657   H715    1.109   .     S
C657   H716    1.108   .     S
C657   H678    1.108   .     S
C658   O721    1.419   .     S
C658   H679    1.102   .     S
C658   C659    1.512   .     S
C658   H772    1.118   .     S
C659   H683    1.102   .     S
C659   H773    1.106   .     S
C659   H774    1.110   .     S
C660   C661    1.525   .     S
C660   H684    1.117   .     S
C660   O722    1.413   .     S
C660   H685    1.107   .     S
C661   H689    1.108   .     S
C661   H686    1.109   .     S
C661   H687    1.108   .     S
C662   H691    1.106   .     S
C662   C663    1.525   .     S
C662   H690    1.103   .     S
C662   O723    1.417   .     S
C663   H692    1.110   .     S
C663   H694    1.109   .     S
C663   H1521   1.107   .     S
C664   H695    1.103   .     S
C664   O724    1.412   .     S
C664   H696    1.114   .     S
C664   C665    1.519   .     S
C665   H697    1.105   .     S
C665   H698    1.107   .     S
C665   H700    1.107   .     S
C666   H701    1.103   .     S
C666   O725    1.417   .     S
C666   C668    1.524   .     S
C666   H702    1.107   .     S
C667   O730    1.286   .     A
C667   O733    1.287   .     A
C667   C672    1.368   .     S
C668   H705    1.109   .     S
C668   H703    1.109   .     S
C668   H2360   1.106   1_554 S
C669   H707    1.114   .     S
C669   C670    1.520   .     S
C669   O726    1.412   .     S
C669   H706    1.104   .     S
C670   H711    1.107   .     S
C670   H708    1.105   .     S
C670   H709    1.107   .     S
C671   C673    1.368   .     S
C671   O732    1.286   .     A
C671   O731    1.287   .     A
C672   C2329   1.166   1_554 S
C673   C1500   1.166   .     S
C674   O734    1.379   .     S
C675   O720    1.383   .     S
C675   C738    1.389   .     S
C676   O721    1.380   .     S
C676   C766    1.382   .     S
H688   C745    1.119   .     S
H693   C2319   1.107   1_554 S
H699   C746    1.105   .     S
H704   C1496   1.106   .     S
N717   Zn735   2.035   .     S
N718   Zn736   2.035   .     S
O719   Zn735   2.031   .     S
O727   Zn736   2.031   .     S
O728   Zn735   2.031   .     S
O729   Zn736   2.031   .     S
O730   Zn735   1.951   .     S
O731   Zn736   1.951   .     S
O732   Zn735   1.950   .     S
O733   Zn736   1.950   .     S
C737   O821    1.305   .     A
C737   O811    1.292   .     A
C737   C740    1.445   .     S
C738   C740    1.413   .     A
C738   O814    1.383   .     S
C739   C748    1.447   .     S
C739   C767    1.414   .     A
C739   C768    1.398   .     A
C740   C766    1.396   .     A
C741   N810    1.374   .     A
C741   O815    1.382   .     S
C742   O816    1.388   .     S
C742   N809    1.382   .     A
C742   C191    1.434   1_565 S
C743   N810    1.372   .     A
C743   O817    1.382   .     S
C744   O818    1.387   .     S
C744   N809    1.380   .     A
C744   C189    1.434   1_565 S
C745   C746    1.512   .     S
C745   H769    1.102   .     S
C745   O826    1.418   .     S
C746   H802    1.111   .     S
C746   H804    1.105   .     S
C747   H806    1.107   .     S
C747   O812    1.414   .     S
C747   H805    1.117   .     S
C747   C749    1.524   .     S
C748   O820    1.293   .     A
C748   O819    1.305   .     A
C749   H807    1.109   .     S
C749   H808    1.108   .     S
C749   H770    1.108   .     S
C750   O813    1.419   .     S
C750   H771    1.102   .     S
C750   C751    1.512   .     S
C750   H588    1.118   1_655 S
C751   H775    1.102   .     S
C751   H589    1.106   1_655 S
C751   H590    1.110   1_655 S
C752   C753    1.525   .     S
C752   H776    1.117   .     S
C752   O814    1.413   .     S
C752   H777    1.107   .     S
C753   H781    1.108   .     S
C753   H778    1.109   .     S
C753   H779    1.108   .     S
C754   H783    1.106   .     S
C754   C755    1.525   .     S
C754   H782    1.103   .     S
C754   O815    1.417   .     S
C755   H784    1.110   .     S
C755   H786    1.109   .     S
C755   H1613   1.107   .     S
C756   H787    1.103   .     S
C756   O816    1.412   .     S
C756   H788    1.114   .     S
C756   C757    1.519   .     S
C757   H789    1.105   .     S
C757   H790    1.107   .     S
C757   H792    1.107   .     S
C758   H793    1.103   .     S
C758   O817    1.417   .     S
C758   C760    1.524   .     S
C758   H794    1.107   .     S
C759   O822    1.286   .     A
C759   O825    1.287   .     A
C759   C764    1.368   .     S
C760   H797    1.109   .     S
C760   H795    1.109   .     S
C760   H2452   1.106   1_554 S
C761   H799    1.114   .     S
C761   C762    1.520   .     S
C761   O818    1.412   .     S
C761   H798    1.104   .     S
C762   H803    1.107   .     S
C762   H800    1.105   .     S
C762   H801    1.107   .     S
C763   C765    1.368   .     S
C763   O824    1.286   .     A
C763   O823    1.287   .     A
C764   C2421   1.166   1_554 S
C765   C1592   1.166   .     S
C766   O826    1.379   .     S
C767   O812    1.383   .     S
C767   C554    1.389   1_655 S
C768   O813    1.380   .     S
C768   C582    1.382   1_655 S
H780   C561    1.119   1_655 S
H785   C2411   1.107   1_554 S
H791   C562    1.105   1_655 S
H796   C1588   1.106   .     S
N809   Zn827   2.035   .     S
N810   Zn828   2.035   .     S
O811   Zn827   2.031   .     S
O819   Zn828   2.031   .     S
O820   Zn827   2.031   .     S
O821   Zn828   2.031   .     S
O822   Zn827   1.951   .     S
O823   Zn828   1.951   .     S
O824   Zn827   1.950   .     S
O825   Zn828   1.950   .     S
C829   O913    1.305   .     A
C829   O903    1.292   .     A
C829   C832    1.445   .     S
C830   C832    1.413   .     A
C830   O906    1.383   .     S
C830   C1043   1.389   1_455 S
C831   C840    1.447   .     S
C831   C859    1.414   .     A
C831   C860    1.398   .     A
C832   C858    1.396   .     A
C833   N902    1.374   .     A
C833   O907    1.382   .     S
C833   C1388   1.434   1_545 S
C834   O908    1.388   .     S
C834   N901    1.382   .     A
C834   C1111   1.434   .     S
C835   N902    1.372   .     A
C835   O909    1.382   .     S
C835   C1386   1.434   1_545 S
C836   O910    1.387   .     S
C836   N901    1.380   .     A
C836   C1109   1.434   .     S
C837   C838    1.512   .     S
C837   H861    1.102   .     S
C837   O918    1.418   .     S
C837   H1056   1.119   1_455 S
C838   H894    1.111   .     S
C838   H896    1.105   .     S
C838   H1067   1.105   1_455 S
C839   H898    1.107   .     S
C839   O904    1.414   .     S
C839   H897    1.117   .     S
C839   C841    1.524   .     S
C840   O912    1.293   .     A
C840   O911    1.305   .     A
C841   H899    1.109   .     S
C841   H900    1.108   .     S
C841   H862    1.108   .     S
C842   O905    1.419   .     S
C842   H863    1.102   .     S
C842   C843    1.512   .     S
C842   H956    1.118   .     S
C843   H867    1.102   .     S
C843   H957    1.106   .     S
C843   H958    1.110   .     S
C844   C845    1.525   .     S
C844   H868    1.117   .     S
C844   O906    1.413   .     S
C844   H869    1.107   .     S
C845   H873    1.108   .     S
C845   H870    1.109   .     S
C845   H871    1.108   .     S
C846   H875    1.106   .     S
C846   C847    1.525   .     S
C846   H874    1.103   .     S
C846   O907    1.417   .     S
C847   H876    1.110   .     S
C847   H878    1.109   .     S
C847   H1705   1.107   .     S
C848   H879    1.103   .     S
C848   O908    1.412   .     S
C848   H880    1.114   .     S
C848   C849    1.519   .     S
C849   H881    1.105   .     S
C849   H882    1.107   .     S
C849   H884    1.107   .     S
C850   H885    1.103   .     S
C850   O909    1.417   .     S
C850   C852    1.524   .     S
C850   H886    1.107   .     S
C851   O914    1.286   .     A
C851   O917    1.287   .     A
C851   C856    1.368   .     S
C852   H889    1.109   .     S
C852   H887    1.109   .     S
C853   H891    1.114   .     S
C853   C854    1.520   .     S
C853   O910    1.412   .     S
C853   H890    1.104   .     S
C854   H895    1.107   .     S
C854   H892    1.105   .     S
C854   H893    1.107   .     S
C855   C857    1.368   .     S
C855   O916    1.286   .     A
C855   O915    1.287   .     A
C857   C1684   1.166   .     S
C858   O918    1.379   .     S
C858   C1044   1.382   1_455 S
C859   O904    1.383   .     S
C859   C922    1.389   .     S
C860   O905    1.380   .     S
C860   C950    1.382   .     S
H864   C1026   1.118   1_455 S
H865   C1027   1.106   1_455 S
H866   C1027   1.110   1_455 S
H872   C929    1.119   .     S
H883   C930    1.105   .     S
H888   C1680   1.106   .     S
N901   Zn919   2.035   .     S
N902   Zn920   2.035   .     S
O903   Zn919   2.031   .     S
O911   Zn920   2.031   .     S
O912   Zn919   2.031   .     S
O913   Zn920   2.031   .     S
O914   Zn919   1.951   .     S
O915   Zn920   1.951   .     S
O916   Zn919   1.950   .     S
O917   Zn920   1.950   .     S
C921   O1005   1.305   .     A
C921   O995    1.292   .     A
C921   C924    1.445   .     S
C922   C924    1.413   .     A
C922   O998    1.383   .     S
C923   C932    1.447   .     S
C923   C951    1.414   .     A
C923   C952    1.398   .     A
C924   C950    1.396   .     A
C925   N994    1.374   .     A
C925   O999    1.382   .     S
C925   C1480   1.434   1_545 S
C926   O1000   1.388   .     S
C926   N993    1.382   .     A
C926   C1203   1.434   .     S
C927   N994    1.372   .     A
C927   O1001   1.382   .     S
C927   C1478   1.434   1_545 S
C928   O1002   1.387   .     S
C928   N993    1.380   .     A
C928   C1201   1.434   .     S
C929   C930    1.512   .     S
C929   H953    1.102   .     S
C929   O1010   1.418   .     S
C930   H986    1.111   .     S
C930   H988    1.105   .     S
C931   H990    1.107   .     S
C931   O996    1.414   .     S
C931   H989    1.117   .     S
C931   C933    1.524   .     S
C932   O1004   1.293   .     A
C932   O1003   1.305   .     A
C933   H991    1.109   .     S
C933   H992    1.108   .     S
C933   H954    1.108   .     S
C934   O997    1.419   .     S
C934   H955    1.102   .     S
C934   C935    1.512   .     S
C934   H1048   1.118   .     S
C935   H959    1.102   .     S
C935   H1049   1.106   .     S
C935   H1050   1.110   .     S
C936   C937    1.525   .     S
C936   H960    1.117   .     S
C936   O998    1.413   .     S
C936   H961    1.107   .     S
C937   H965    1.108   .     S
C937   H962    1.109   .     S
C937   H963    1.108   .     S
C938   H967    1.106   .     S
C938   C939    1.525   .     S
C938   H966    1.103   .     S
C938   O999    1.417   .     S
C939   H968    1.110   .     S
C939   H970    1.109   .     S
C939   H1797   1.107   .     S
C940   H971    1.103   .     S
C940   O1000   1.412   .     S
C940   H972    1.114   .     S
C940   C941    1.519   .     S
C941   H973    1.105   .     S
C941   H974    1.107   .     S
C941   H976    1.107   .     S
C942   H977    1.103   .     S
C942   O1001   1.417   .     S
C942   C944    1.524   .     S
C942   H978    1.107   .     S
C943   O1006   1.286   .     A
C943   O1009   1.287   .     A
C943   C948    1.368   .     S
C944   H981    1.109   .     S
C944   H979    1.109   .     S
C945   H983    1.114   .     S
C945   C946    1.520   .     S
C945   O1002   1.412   .     S
C945   H982    1.104   .     S
C946   H987    1.107   .     S
C946   H984    1.105   .     S
C946   H985    1.107   .     S
C947   C949    1.368   .     S
C947   O1008   1.286   .     A
C947   O1007   1.287   .     A
C949   C1776   1.166   .     S
C950   O1010   1.379   .     S
C951   O996    1.383   .     S
C951   C1014   1.389   .     S
C952   O997    1.380   .     S
C952   C1042   1.382   .     S
H964   C1021   1.119   .     S
H975   C1022   1.105   .     S
H980   C1772   1.106   .     S
N993   Zn1011  2.035   .     S
N994   Zn1012  2.035   .     S
O995   Zn1011  2.031   .     S
O1003  Zn1012  2.031   .     S
O1004  Zn1011  2.031   .     S
O1005  Zn1012  2.031   .     S
O1006  Zn1011  1.951   .     S
O1007  Zn1012  1.951   .     S
O1008  Zn1011  1.950   .     S
O1009  Zn1012  1.950   .     S
C1013  O1097   1.305   .     A
C1013  O1087   1.292   .     A
C1013  C1016   1.445   .     S
C1014  C1016   1.413   .     A
C1014  O1090   1.383   .     S
C1015  C1024   1.447   .     S
C1015  C1043   1.414   .     A
C1015  C1044   1.398   .     A
C1016  C1042   1.396   .     A
C1017  N1086   1.374   .     A
C1017  O1091   1.382   .     S
C1017  C1572   1.434   1_545 S
C1018  O1092   1.388   .     S
C1018  N1085   1.382   .     A
C1018  C1295   1.434   .     S
C1019  N1086   1.372   .     A
C1019  O1093   1.382   .     S
C1019  C1570   1.434   1_545 S
C1020  O1094   1.387   .     S
C1020  N1085   1.380   .     A
C1020  C1293   1.434   .     S
C1021  C1022   1.512   .     S
C1021  H1045   1.102   .     S
C1021  O1102   1.418   .     S
C1022  H1078   1.111   .     S
C1022  H1080   1.105   .     S
C1023  H1082   1.107   .     S
C1023  O1088   1.414   .     S
C1023  H1081   1.117   .     S
C1023  C1025   1.524   .     S
C1024  O1096   1.293   .     A
C1024  O1095   1.305   .     A
C1025  H1083   1.109   .     S
C1025  H1084   1.108   .     S
C1025  H1046   1.108   .     S
C1026  O1089   1.419   .     S
C1026  H1047   1.102   .     S
C1026  C1027   1.512   .     S
C1026  H864    1.118   1_655 S
C1027  H1051   1.102   .     S
C1027  H865    1.106   1_655 S
C1027  H866    1.110   1_655 S
C1028  C1029   1.525   .     S
C1028  H1052   1.117   .     S
C1028  O1090   1.413   .     S
C1028  H1053   1.107   .     S
C1029  H1057   1.108   .     S
C1029  H1054   1.109   .     S
C1029  H1055   1.108   .     S
C1030  H1059   1.106   .     S
C1030  C1031   1.525   .     S
C1030  H1058   1.103   .     S
C1030  O1091   1.417   .     S
C1031  H1060   1.110   .     S
C1031  H1062   1.109   .     S
C1031  H1889   1.107   .     S
C1032  H1063   1.103   .     S
C1032  O1092   1.412   .     S
C1032  H1064   1.114   .     S
C1032  C1033   1.519   .     S
C1033  H1065   1.105   .     S
C1033  H1066   1.107   .     S
C1033  H1068   1.107   .     S
C1034  H1069   1.103   .     S
C1034  O1093   1.417   .     S
C1034  C1036   1.524   .     S
C1034  H1070   1.107   .     S
C1035  O1098   1.286   .     A
C1035  O1101   1.287   .     A
C1035  C1040   1.368   .     S
C1036  H1073   1.109   .     S
C1036  H1071   1.109   .     S
C1037  H1075   1.114   .     S
C1037  C1038   1.520   .     S
C1037  O1094   1.412   .     S
C1037  H1074   1.104   .     S
C1038  H1079   1.107   .     S
C1038  H1076   1.105   .     S
C1038  H1077   1.107   .     S
C1039  C1041   1.368   .     S
C1039  O1100   1.286   .     A
C1039  O1099   1.287   .     A
C1041  C1868   1.166   .     S
C1042  O1102   1.379   .     S
C1043  O1088   1.383   .     S
C1043  C830    1.389   1_655 S
C1044  O1089   1.380   .     S
C1044  C858    1.382   1_655 S
H1056  C837    1.119   1_655 S
H1067  C838    1.105   1_655 S
H1072  C1864   1.106   .     S
N1085  Zn1103  2.035   .     S
N1086  Zn1104  2.035   .     S
O1087  Zn1103  2.031   .     S
O1095  Zn1104  2.031   .     S
O1096  Zn1103  2.031   .     S
O1097  Zn1104  2.031   .     S
O1098  Zn1103  1.951   .     S
O1099  Zn1104  1.951   .     S
O1100  Zn1103  1.950   .     S
O1101  Zn1104  1.950   .     S
C1105  O1189   1.305   .     A
C1105  O1179   1.292   .     A
C1105  C1108   1.445   .     S
C1106  C1108   1.413   .     A
C1106  O1182   1.383   .     S
C1106  C1319   1.389   1_455 S
C1107  C1116   1.447   .     S
C1107  C1135   1.414   .     A
C1107  C1136   1.398   .     A
C1108  C1134   1.396   .     A
C1109  N1178   1.374   .     A
C1109  O1183   1.382   .     S
C1110  O1184   1.388   .     S
C1110  N1177   1.382   .     A
C1110  C1387   1.434   .     S
C1111  N1178   1.372   .     A
C1111  O1185   1.382   .     S
C1112  O1186   1.387   .     S
C1112  N1177   1.380   .     A
C1112  C1385   1.434   .     S
C1113  C1114   1.512   .     S
C1113  H1137   1.102   .     S
C1113  O1194   1.418   .     S
C1113  H1332   1.119   1_455 S
C1114  H1170   1.111   .     S
C1114  H1172   1.105   .     S
C1114  H1343   1.105   1_455 S
C1115  H1174   1.107   .     S
C1115  O1180   1.414   .     S
C1115  H1173   1.117   .     S
C1115  C1117   1.524   .     S
C1116  O1188   1.293   .     A
C1116  O1187   1.305   .     A
C1117  H1175   1.109   .     S
C1117  H1176   1.108   .     S
C1117  H1138   1.108   .     S
C1118  O1181   1.419   .     S
C1118  H1139   1.102   .     S
C1118  C1119   1.512   .     S
C1118  H1232   1.118   .     S
C1119  H1143   1.102   .     S
C1119  H1233   1.106   .     S
C1119  H1234   1.110   .     S
C1120  C1121   1.525   .     S
C1120  H1144   1.117   .     S
C1120  O1182   1.413   .     S
C1120  H1145   1.107   .     S
C1121  H1149   1.108   .     S
C1121  H1146   1.109   .     S
C1121  H1147   1.108   .     S
C1122  H1151   1.106   .     S
C1122  C1123   1.525   .     S
C1122  H1150   1.103   .     S
C1122  O1183   1.417   .     S
C1123  H1152   1.110   .     S
C1123  H1154   1.109   .     S
C1123  H1981   1.107   .     S
C1124  H1155   1.103   .     S
C1124  O1184   1.412   .     S
C1124  H1156   1.114   .     S
C1124  C1125   1.519   .     S
C1125  H1157   1.105   .     S
C1125  H1158   1.107   .     S
C1125  H1160   1.107   .     S
C1126  H1161   1.103   .     S
C1126  O1185   1.417   .     S
C1126  C1128   1.524   .     S
C1126  H1162   1.107   .     S
C1127  O1190   1.286   .     A
C1127  O1193   1.287   .     A
C1127  C1132   1.368   .     S
C1128  H1165   1.109   .     S
C1128  H1163   1.109   .     S
C1129  H1167   1.114   .     S
C1129  C1130   1.520   .     S
C1129  O1186   1.412   .     S
C1129  H1166   1.104   .     S
C1130  H1171   1.107   .     S
C1130  H1168   1.105   .     S
C1130  H1169   1.107   .     S
C1131  C1133   1.368   .     S
C1131  O1192   1.286   .     A
C1131  O1191   1.287   .     A
C1133  C1960   1.166   .     S
C1134  O1194   1.379   .     S
C1134  C1320   1.382   1_455 S
C1135  O1180   1.383   .     S
C1135  C1198   1.389   .     S
C1136  O1181   1.380   .     S
C1136  C1226   1.382   .     S
H1140  C1302   1.118   1_455 S
H1141  C1303   1.106   1_455 S
H1142  C1303   1.110   1_455 S
H1148  C1205   1.119   .     S
H1159  C1206   1.105   .     S
H1164  C1956   1.106   .     S
N1177  Zn1195  2.035   .     S
N1178  Zn1196  2.035   .     S
O1179  Zn1195  2.031   .     S
O1187  Zn1196  2.031   .     S
O1188  Zn1195  2.031   .     S
O1189  Zn1196  2.031   .     S
O1190  Zn1195  1.951   .     S
O1191  Zn1196  1.951   .     S
O1192  Zn1195  1.950   .     S
O1193  Zn1196  1.950   .     S
C1197  O1281   1.305   .     A
C1197  O1271   1.292   .     A
C1197  C1200   1.445   .     S
C1198  C1200   1.413   .     A
C1198  O1274   1.383   .     S
C1199  C1208   1.447   .     S
C1199  C1227   1.414   .     A
C1199  C1228   1.398   .     A
C1200  C1226   1.396   .     A
C1201  N1270   1.374   .     A
C1201  O1275   1.382   .     S
C1202  O1276   1.388   .     S
C1202  N1269   1.382   .     A
C1202  C1479   1.434   .     S
C1203  N1270   1.372   .     A
C1203  O1277   1.382   .     S
C1204  O1278   1.387   .     S
C1204  N1269   1.380   .     A
C1204  C1477   1.434   .     S
C1205  C1206   1.512   .     S
C1205  H1229   1.102   .     S
C1205  O1286   1.418   .     S
C1206  H1262   1.111   .     S
C1206  H1264   1.105   .     S
C1207  H1266   1.107   .     S
C1207  O1272   1.414   .     S
C1207  H1265   1.117   .     S
C1207  C1209   1.524   .     S
C1208  O1280   1.293   .     A
C1208  O1279   1.305   .     A
C1209  H1267   1.109   .     S
C1209  H1268   1.108   .     S
C1209  H1230   1.108   .     S
C1210  O1273   1.419   .     S
C1210  H1231   1.102   .     S
C1210  C1211   1.512   .     S
C1210  H1324   1.118   .     S
C1211  H1235   1.102   .     S
C1211  H1325   1.106   .     S
C1211  H1326   1.110   .     S
C1212  C1213   1.525   .     S
C1212  H1236   1.117   .     S
C1212  O1274   1.413   .     S
C1212  H1237   1.107   .     S
C1213  H1241   1.108   .     S
C1213  H1238   1.109   .     S
C1213  H1239   1.108   .     S
C1214  H1243   1.106   .     S
C1214  C1215   1.525   .     S
C1214  H1242   1.103   .     S
C1214  O1275   1.417   .     S
C1215  H1244   1.110   .     S
C1215  H1246   1.109   .     S
C1215  H2073   1.107   .     S
C1216  H1247   1.103   .     S
C1216  O1276   1.412   .     S
C1216  H1248   1.114   .     S
C1216  C1217   1.519   .     S
C1217  H1249   1.105   .     S
C1217  H1250   1.107   .     S
C1217  H1252   1.107   .     S
C1218  H1253   1.103   .     S
C1218  O1277   1.417   .     S
C1218  C1220   1.524   .     S
C1218  H1254   1.107   .     S
C1219  O1282   1.286   .     A
C1219  O1285   1.287   .     A
C1219  C1224   1.368   .     S
C1220  H1257   1.109   .     S
C1220  H1255   1.109   .     S
C1221  H1259   1.114   .     S
C1221  C1222   1.520   .     S
C1221  O1278   1.412   .     S
C1221  H1258   1.104   .     S
C1222  H1263   1.107   .     S
C1222  H1260   1.105   .     S
C1222  H1261   1.107   .     S
C1223  C1225   1.368   .     S
C1223  O1284   1.286   .     A
C1223  O1283   1.287   .     A
C1225  C2052   1.166   .     S
C1226  O1286   1.379   .     S
C1227  O1272   1.383   .     S
C1227  C1290   1.389   .     S
C1228  O1273   1.380   .     S
C1228  C1318   1.382   .     S
H1240  C1297   1.119   .     S
H1251  C1298   1.105   .     S
H1256  C2048   1.106   .     S
N1269  Zn1287  2.035   .     S
N1270  Zn1288  2.035   .     S
O1271  Zn1287  2.031   .     S
O1279  Zn1288  2.031   .     S
O1280  Zn1287  2.031   .     S
O1281  Zn1288  2.031   .     S
O1282  Zn1287  1.951   .     S
O1283  Zn1288  1.951   .     S
O1284  Zn1287  1.950   .     S
O1285  Zn1288  1.950   .     S
C1289  O1373   1.305   .     A
C1289  O1363   1.292   .     A
C1289  C1292   1.445   .     S
C1290  C1292   1.413   .     A
C1290  O1366   1.383   .     S
C1291  C1300   1.447   .     S
C1291  C1319   1.414   .     A
C1291  C1320   1.398   .     A
C1292  C1318   1.396   .     A
C1293  N1362   1.374   .     A
C1293  O1367   1.382   .     S
C1294  O1368   1.388   .     S
C1294  N1361   1.382   .     A
C1294  C1571   1.434   .     S
C1295  N1362   1.372   .     A
C1295  O1369   1.382   .     S
C1296  O1370   1.387   .     S
C1296  N1361   1.380   .     A
C1296  C1569   1.434   .     S
C1297  C1298   1.512   .     S
C1297  H1321   1.102   .     S
C1297  O1378   1.418   .     S
C1298  H1354   1.111   .     S
C1298  H1356   1.105   .     S
C1299  H1358   1.107   .     S
C1299  O1364   1.414   .     S
C1299  H1357   1.117   .     S
C1299  C1301   1.524   .     S
C1300  O1372   1.293   .     A
C1300  O1371   1.305   .     A
C1301  H1359   1.109   .     S
C1301  H1360   1.108   .     S
C1301  H1322   1.108   .     S
C1302  O1365   1.419   .     S
C1302  H1323   1.102   .     S
C1302  C1303   1.512   .     S
C1302  H1140   1.118   1_655 S
C1303  H1327   1.102   .     S
C1303  H1141   1.106   1_655 S
C1303  H1142   1.110   1_655 S
C1304  C1305   1.525   .     S
C1304  H1328   1.117   .     S
C1304  O1366   1.413   .     S
C1304  H1329   1.107   .     S
C1305  H1333   1.108   .     S
C1305  H1330   1.109   .     S
C1305  H1331   1.108   .     S
C1306  H1335   1.106   .     S
C1306  C1307   1.525   .     S
C1306  H1334   1.103   .     S
C1306  O1367   1.417   .     S
C1307  H1336   1.110   .     S
C1307  H1338   1.109   .     S
C1307  H2165   1.107   .     S
C1308  H1339   1.103   .     S
C1308  O1368   1.412   .     S
C1308  H1340   1.114   .     S
C1308  C1309   1.519   .     S
C1309  H1341   1.105   .     S
C1309  H1342   1.107   .     S
C1309  H1344   1.107   .     S
C1310  H1345   1.103   .     S
C1310  O1369   1.417   .     S
C1310  C1312   1.524   .     S
C1310  H1346   1.107   .     S
C1311  O1374   1.286   .     A
C1311  O1377   1.287   .     A
C1311  C1316   1.368   .     S
C1312  H1349   1.109   .     S
C1312  H1347   1.109   .     S
C1313  H1351   1.114   .     S
C1313  C1314   1.520   .     S
C1313  O1370   1.412   .     S
C1313  H1350   1.104   .     S
C1314  H1355   1.107   .     S
C1314  H1352   1.105   .     S
C1314  H1353   1.107   .     S
C1315  C1317   1.368   .     S
C1315  O1376   1.286   .     A
C1315  O1375   1.287   .     A
C1317  C2144   1.166   .     S
C1318  O1378   1.379   .     S
C1319  O1364   1.383   .     S
C1319  C1106   1.389   1_655 S
C1320  O1365   1.380   .     S
C1320  C1134   1.382   1_655 S
H1332  C1113   1.119   1_655 S
H1343  C1114   1.105   1_655 S
H1348  C2140   1.106   .     S
N1361  Zn1379  2.035   .     S
N1362  Zn1380  2.035   .     S
O1363  Zn1379  2.031   .     S
O1371  Zn1380  2.031   .     S
O1372  Zn1379  2.031   .     S
O1373  Zn1380  2.031   .     S
O1374  Zn1379  1.951   .     S
O1375  Zn1380  1.951   .     S
O1376  Zn1379  1.950   .     S
O1377  Zn1380  1.950   .     S
C1381  O1465   1.305   .     A
C1381  O1455   1.292   .     A
C1381  C1384   1.445   .     S
C1382  C1384   1.413   .     A
C1382  O1458   1.383   .     S
C1382  C1595   1.389   1_455 S
C1383  C1392   1.447   .     S
C1383  C1411   1.414   .     A
C1383  C1412   1.398   .     A
C1384  C1410   1.396   .     A
C1385  N1454   1.374   .     A
C1385  O1459   1.382   .     S
C1386  O1460   1.388   .     S
C1386  N1453   1.382   .     A
C1386  C835    1.434   1_565 S
C1387  N1454   1.372   .     A
C1387  O1461   1.382   .     S
C1388  O1462   1.387   .     S
C1388  N1453   1.380   .     A
C1388  C833    1.434   1_565 S
C1389  C1390   1.512   .     S
C1389  H1413   1.102   .     S
C1389  O1470   1.418   .     S
C1389  H1608   1.119   1_455 S
C1390  H1446   1.111   .     S
C1390  H1448   1.105   .     S
C1390  H1619   1.105   1_455 S
C1391  H1450   1.107   .     S
C1391  O1456   1.414   .     S
C1391  H1449   1.117   .     S
C1391  C1393   1.524   .     S
C1392  O1464   1.293   .     A
C1392  O1463   1.305   .     A
C1393  H1451   1.109   .     S
C1393  H1452   1.108   .     S
C1393  H1414   1.108   .     S
C1394  O1457   1.419   .     S
C1394  H1415   1.102   .     S
C1394  C1395   1.512   .     S
C1394  H1508   1.118   .     S
C1395  H1419   1.102   .     S
C1395  H1509   1.106   .     S
C1395  H1510   1.110   .     S
C1396  C1397   1.525   .     S
C1396  H1420   1.117   .     S
C1396  O1458   1.413   .     S
C1396  H1421   1.107   .     S
C1397  H1425   1.108   .     S
C1397  H1422   1.109   .     S
C1397  H1423   1.108   .     S
C1398  H1427   1.106   .     S
C1398  C1399   1.525   .     S
C1398  H1426   1.103   .     S
C1398  O1459   1.417   .     S
C1399  H1428   1.110   .     S
C1399  H1430   1.109   .     S
C1399  H2257   1.107   .     S
C1400  H1431   1.103   .     S
C1400  O1460   1.412   .     S
C1400  H1432   1.114   .     S
C1400  C1401   1.519   .     S
C1401  H1433   1.105   .     S
C1401  H1434   1.107   .     S
C1401  H1436   1.107   .     S
C1402  H1437   1.103   .     S
C1402  O1461   1.417   .     S
C1402  C1404   1.524   .     S
C1402  H1438   1.107   .     S
C1403  O1466   1.286   .     A
C1403  O1469   1.287   .     A
C1403  C1408   1.368   .     S
C1404  H1441   1.109   .     S
C1404  H1439   1.109   .     S
C1405  H1443   1.114   .     S
C1405  C1406   1.520   .     S
C1405  O1462   1.412   .     S
C1405  H1442   1.104   .     S
C1406  H1447   1.107   .     S
C1406  H1444   1.105   .     S
C1406  H1445   1.107   .     S
C1407  C1409   1.368   .     S
C1407  O1468   1.286   .     A
C1407  O1467   1.287   .     A
C1409  C2236   1.166   .     S
C1410  O1470   1.379   .     S
C1410  C1596   1.382   1_455 S
C1411  O1456   1.383   .     S
C1411  C1474   1.389   .     S
C1412  O1457   1.380   .     S
C1412  C1502   1.382   .     S
H1416  C1578   1.118   1_455 S
H1417  C1579   1.106   1_455 S
H1418  C1579   1.110   1_455 S
H1424  C1481   1.119   .     S
H1435  C1482   1.105   .     S
H1440  C2232   1.106   .     S
N1453  Zn1471  2.035   .     S
N1454  Zn1472  2.035   .     S
O1455  Zn1471  2.031   .     S
O1463  Zn1472  2.031   .     S
O1464  Zn1471  2.031   .     S
O1465  Zn1472  2.031   .     S
O1466  Zn1471  1.951   .     S
O1467  Zn1472  1.951   .     S
O1468  Zn1471  1.950   .     S
O1469  Zn1472  1.950   .     S
C1473  O1557   1.305   .     A
C1473  O1547   1.292   .     A
C1473  C1476   1.445   .     S
C1474  C1476   1.413   .     A
C1474  O1550   1.383   .     S
C1475  C1484   1.447   .     S
C1475  C1503   1.414   .     A
C1475  C1504   1.398   .     A
C1476  C1502   1.396   .     A
C1477  N1546   1.374   .     A
C1477  O1551   1.382   .     S
C1478  O1552   1.388   .     S
C1478  N1545   1.382   .     A
C1478  C927    1.434   1_565 S
C1479  N1546   1.372   .     A
C1479  O1553   1.382   .     S
C1480  O1554   1.387   .     S
C1480  N1545   1.380   .     A
C1480  C925    1.434   1_565 S
C1481  C1482   1.512   .     S
C1481  H1505   1.102   .     S
C1481  O1562   1.418   .     S
C1482  H1538   1.111   .     S
C1482  H1540   1.105   .     S
C1483  H1542   1.107   .     S
C1483  O1548   1.414   .     S
C1483  H1541   1.117   .     S
C1483  C1485   1.524   .     S
C1484  O1556   1.293   .     A
C1484  O1555   1.305   .     A
C1485  H1543   1.109   .     S
C1485  H1544   1.108   .     S
C1485  H1506   1.108   .     S
C1486  O1549   1.419   .     S
C1486  H1507   1.102   .     S
C1486  C1487   1.512   .     S
C1486  H1600   1.118   .     S
C1487  H1511   1.102   .     S
C1487  H1601   1.106   .     S
C1487  H1602   1.110   .     S
C1488  C1489   1.525   .     S
C1488  H1512   1.117   .     S
C1488  O1550   1.413   .     S
C1488  H1513   1.107   .     S
C1489  H1517   1.108   .     S
C1489  H1514   1.109   .     S
C1489  H1515   1.108   .     S
C1490  H1519   1.106   .     S
C1490  C1491   1.525   .     S
C1490  H1518   1.103   .     S
C1490  O1551   1.417   .     S
C1491  H1520   1.110   .     S
C1491  H1522   1.109   .     S
C1491  H2349   1.107   .     S
C1492  H1523   1.103   .     S
C1492  O1552   1.412   .     S
C1492  H1524   1.114   .     S
C1492  C1493   1.519   .     S
C1493  H1525   1.105   .     S
C1493  H1526   1.107   .     S
C1493  H1528   1.107   .     S
C1494  H1529   1.103   .     S
C1494  O1553   1.417   .     S
C1494  C1496   1.524   .     S
C1494  H1530   1.107   .     S
C1495  O1558   1.286   .     A
C1495  O1561   1.287   .     A
C1495  C1500   1.368   .     S
C1496  H1533   1.109   .     S
C1496  H1531   1.109   .     S
C1497  H1535   1.114   .     S
C1497  C1498   1.520   .     S
C1497  O1554   1.412   .     S
C1497  H1534   1.104   .     S
C1498  H1539   1.107   .     S
C1498  H1536   1.105   .     S
C1498  H1537   1.107   .     S
C1499  C1501   1.368   .     S
C1499  O1560   1.286   .     A
C1499  O1559   1.287   .     A
C1501  C2328   1.166   .     S
C1502  O1562   1.379   .     S
C1503  O1548   1.383   .     S
C1503  C1566   1.389   .     S
C1504  O1549   1.380   .     S
C1504  C1594   1.382   .     S
H1516  C1573   1.119   .     S
H1527  C1574   1.105   .     S
H1532  C2324   1.106   .     S
N1545  Zn1563  2.035   .     S
N1546  Zn1564  2.035   .     S
O1547  Zn1563  2.031   .     S
O1555  Zn1564  2.031   .     S
O1556  Zn1563  2.031   .     S
O1557  Zn1564  2.031   .     S
O1558  Zn1563  1.951   .     S
O1559  Zn1564  1.951   .     S
O1560  Zn1563  1.950   .     S
O1561  Zn1564  1.950   .     S
C1565  O1649   1.305   .     A
C1565  O1639   1.292   .     A
C1565  C1568   1.445   .     S
C1566  C1568   1.413   .     A
C1566  O1642   1.383   .     S
C1567  C1576   1.447   .     S
C1567  C1595   1.414   .     A
C1567  C1596   1.398   .     A
C1568  C1594   1.396   .     A
C1569  N1638   1.374   .     A
C1569  O1643   1.382   .     S
C1570  O1644   1.388   .     S
C1570  N1637   1.382   .     A
C1570  C1019   1.434   1_565 S
C1571  N1638   1.372   .     A
C1571  O1645   1.382   .     S
C1572  O1646   1.387   .     S
C1572  N1637   1.380   .     A
C1572  C1017   1.434   1_565 S
C1573  C1574   1.512   .     S
C1573  H1597   1.102   .     S
C1573  O1654   1.418   .     S
C1574  H1630   1.111   .     S
C1574  H1632   1.105   .     S
C1575  H1634   1.107   .     S
C1575  O1640   1.414   .     S
C1575  H1633   1.117   .     S
C1575  C1577   1.524   .     S
C1576  O1648   1.293   .     A
C1576  O1647   1.305   .     A
C1577  H1635   1.109   .     S
C1577  H1636   1.108   .     S
C1577  H1598   1.108   .     S
C1578  O1641   1.419   .     S
C1578  H1599   1.102   .     S
C1578  C1579   1.512   .     S
C1578  H1416   1.118   1_655 S
C1579  H1603   1.102   .     S
C1579  H1417   1.106   1_655 S
C1579  H1418   1.110   1_655 S
C1580  C1581   1.525   .     S
C1580  H1604   1.117   .     S
C1580  O1642   1.413   .     S
C1580  H1605   1.107   .     S
C1581  H1609   1.108   .     S
C1581  H1606   1.109   .     S
C1581  H1607   1.108   .     S
C1582  H1611   1.106   .     S
C1582  C1583   1.525   .     S
C1582  H1610   1.103   .     S
C1582  O1643   1.417   .     S
C1583  H1612   1.110   .     S
C1583  H1614   1.109   .     S
C1583  H2441   1.107   .     S
C1584  H1615   1.103   .     S
C1584  O1644   1.412   .     S
C1584  H1616   1.114   .     S
C1584  C1585   1.519   .     S
C1585  H1617   1.105   .     S
C1585  H1618   1.107   .     S
C1585  H1620   1.107   .     S
C1586  H1621   1.103   .     S
C1586  O1645   1.417   .     S
C1586  C1588   1.524   .     S
C1586  H1622   1.107   .     S
C1587  O1650   1.286   .     A
C1587  O1653   1.287   .     A
C1587  C1592   1.368   .     S
C1588  H1625   1.109   .     S
C1588  H1623   1.109   .     S
C1589  H1627   1.114   .     S
C1589  C1590   1.520   .     S
C1589  O1646   1.412   .     S
C1589  H1626   1.104   .     S
C1590  H1631   1.107   .     S
C1590  H1628   1.105   .     S
C1590  H1629   1.107   .     S
C1591  C1593   1.368   .     S
C1591  O1652   1.286   .     A
C1591  O1651   1.287   .     A
C1593  C2420   1.166   .     S
C1594  O1654   1.379   .     S
C1595  O1640   1.383   .     S
C1595  C1382   1.389   1_655 S
C1596  O1641   1.380   .     S
C1596  C1410   1.382   1_655 S
H1608  C1389   1.119   1_655 S
H1619  C1390   1.105   1_655 S
H1624  C2416   1.106   .     S
N1637  Zn1655  2.035   .     S
N1638  Zn1656  2.035   .     S
O1639  Zn1655  2.031   .     S
O1647  Zn1656  2.031   .     S
O1648  Zn1655  2.031   .     S
O1649  Zn1656  2.031   .     S
O1650  Zn1655  1.951   .     S
O1651  Zn1656  1.951   .     S
O1652  Zn1655  1.950   .     S
O1653  Zn1656  1.950   .     S
C1657  O1741   1.305   .     A
C1657  O1731   1.292   .     A
C1657  C1660   1.445   .     S
C1658  C1660   1.413   .     A
C1658  O1734   1.383   .     S
C1658  C1871   1.389   1_455 S
C1659  C1668   1.447   .     S
C1659  C1687   1.414   .     A
C1659  C1688   1.398   .     A
C1660  C1686   1.396   .     A
C1661  N1730   1.374   .     A
C1661  O1735   1.382   .     S
C1661  C2216   1.434   1_545 S
C1662  O1736   1.388   .     S
C1662  N1729   1.382   .     A
C1662  C1939   1.434   .     S
C1663  N1730   1.372   .     A
C1663  O1737   1.382   .     S
C1663  C2214   1.434   1_545 S
C1664  O1738   1.387   .     S
C1664  N1729   1.380   .     A
C1664  C1937   1.434   .     S
C1665  C1666   1.512   .     S
C1665  H1689   1.102   .     S
C1665  O1746   1.418   .     S
C1665  H1884   1.119   1_455 S
C1666  H1722   1.111   .     S
C1666  H1724   1.105   .     S
C1666  H1895   1.105   1_455 S
C1667  H1726   1.107   .     S
C1667  O1732   1.414   .     S
C1667  H1725   1.117   .     S
C1667  C1669   1.524   .     S
C1668  O1740   1.293   .     A
C1668  O1739   1.305   .     A
C1669  H1727   1.109   .     S
C1669  H1728   1.108   .     S
C1669  H1690   1.108   .     S
C1670  O1733   1.419   .     S
C1670  H1691   1.102   .     S
C1670  C1671   1.512   .     S
C1670  H1784   1.118   .     S
C1671  H1695   1.102   .     S
C1671  H1785   1.106   .     S
C1671  H1786   1.110   .     S
C1672  C1673   1.525   .     S
C1672  H1696   1.117   .     S
C1672  O1734   1.413   .     S
C1672  H1697   1.107   .     S
C1673  H1701   1.108   .     S
C1673  H1698   1.109   .     S
C1673  H1699   1.108   .     S
C1674  H1703   1.106   .     S
C1674  C1675   1.525   .     S
C1674  H1702   1.103   .     S
C1674  O1735   1.417   .     S
C1675  H1704   1.110   .     S
C1675  H1706   1.109   .     S
C1675  H49     1.107   1_556 S
C1676  H1707   1.103   .     S
C1676  O1736   1.412   .     S
C1676  H1708   1.114   .     S
C1676  C1677   1.519   .     S
C1677  H1709   1.105   .     S
C1677  H1710   1.107   .     S
C1677  H1712   1.107   .     S
C1678  H1713   1.103   .     S
C1678  O1737   1.417   .     S
C1678  C1680   1.524   .     S
C1678  H1714   1.107   .     S
C1679  O1742   1.286   .     A
C1679  O1745   1.287   .     A
C1679  C1684   1.368   .     S
C1680  H1717   1.109   .     S
C1680  H1715   1.109   .     S
C1681  H1719   1.114   .     S
C1681  C1682   1.520   .     S
C1681  O1738   1.412   .     S
C1681  H1718   1.104   .     S
C1682  H1723   1.107   .     S
C1682  H1720   1.105   .     S
C1682  H1721   1.107   .     S
C1683  C1685   1.368   .     S
C1683  O1744   1.286   .     A
C1683  O1743   1.287   .     A
C1685  C28     1.166   1_556 S
C1686  O1746   1.379   .     S
C1686  C1872   1.382   1_455 S
C1687  O1732   1.383   .     S
C1687  C1750   1.389   .     S
C1688  O1733   1.380   .     S
C1688  C1778   1.382   .     S
H1692  C1854   1.118   1_455 S
H1693  C1855   1.106   1_455 S
H1694  C1855   1.110   1_455 S
H1700  C1757   1.119   .     S
H1711  C1758   1.105   .     S
H1716  C24     1.106   1_556 S
N1729  Zn1747  2.035   .     S
N1730  Zn1748  2.035   .     S
O1731  Zn1747  2.031   .     S
O1739  Zn1748  2.031   .     S
O1740  Zn1747  2.031   .     S
O1741  Zn1748  2.031   .     S
O1742  Zn1747  1.951   .     S
O1743  Zn1748  1.951   .     S
O1744  Zn1747  1.950   .     S
O1745  Zn1748  1.950   .     S
C1749  O1833   1.305   .     A
C1749  O1823   1.292   .     A
C1749  C1752   1.445   .     S
C1750  C1752   1.413   .     A
C1750  O1826   1.383   .     S
C1751  C1760   1.447   .     S
C1751  C1779   1.414   .     A
C1751  C1780   1.398   .     A
C1752  C1778   1.396   .     A
C1753  N1822   1.374   .     A
C1753  O1827   1.382   .     S
C1753  C2308   1.434   1_545 S
C1754  O1828   1.388   .     S
C1754  N1821   1.382   .     A
C1754  C2031   1.434   .     S
C1755  N1822   1.372   .     A
C1755  O1829   1.382   .     S
C1755  C2306   1.434   1_545 S
C1756  O1830   1.387   .     S
C1756  N1821   1.380   .     A
C1756  C2029   1.434   .     S
C1757  C1758   1.512   .     S
C1757  H1781   1.102   .     S
C1757  O1838   1.418   .     S
C1758  H1814   1.111   .     S
C1758  H1816   1.105   .     S
C1759  H1818   1.107   .     S
C1759  O1824   1.414   .     S
C1759  H1817   1.117   .     S
C1759  C1761   1.524   .     S
C1760  O1832   1.293   .     A
C1760  O1831   1.305   .     A
C1761  H1819   1.109   .     S
C1761  H1820   1.108   .     S
C1761  H1782   1.108   .     S
C1762  O1825   1.419   .     S
C1762  H1783   1.102   .     S
C1762  C1763   1.512   .     S
C1762  H1876   1.118   .     S
C1763  H1787   1.102   .     S
C1763  H1877   1.106   .     S
C1763  H1878   1.110   .     S
C1764  C1765   1.525   .     S
C1764  H1788   1.117   .     S
C1764  O1826   1.413   .     S
C1764  H1789   1.107   .     S
C1765  H1793   1.108   .     S
C1765  H1790   1.109   .     S
C1765  H1791   1.108   .     S
C1766  H1795   1.106   .     S
C1766  C1767   1.525   .     S
C1766  H1794   1.103   .     S
C1766  O1827   1.417   .     S
C1767  H1796   1.110   .     S
C1767  H1798   1.109   .     S
C1767  H141    1.107   1_556 S
C1768  H1799   1.103   .     S
C1768  O1828   1.412   .     S
C1768  H1800   1.114   .     S
C1768  C1769   1.519   .     S
C1769  H1801   1.105   .     S
C1769  H1802   1.107   .     S
C1769  H1804   1.107   .     S
C1770  H1805   1.103   .     S
C1770  O1829   1.417   .     S
C1770  C1772   1.524   .     S
C1770  H1806   1.107   .     S
C1771  O1834   1.286   .     A
C1771  O1837   1.287   .     A
C1771  C1776   1.368   .     S
C1772  H1809   1.109   .     S
C1772  H1807   1.109   .     S
C1773  H1811   1.114   .     S
C1773  C1774   1.520   .     S
C1773  O1830   1.412   .     S
C1773  H1810   1.104   .     S
C1774  H1815   1.107   .     S
C1774  H1812   1.105   .     S
C1774  H1813   1.107   .     S
C1775  C1777   1.368   .     S
C1775  O1836   1.286   .     A
C1775  O1835   1.287   .     A
C1777  C120    1.166   1_556 S
C1778  O1838   1.379   .     S
C1779  O1824   1.383   .     S
C1779  C1842   1.389   .     S
C1780  O1825   1.380   .     S
C1780  C1870   1.382   .     S
H1792  C1849   1.119   .     S
H1803  C1850   1.105   .     S
H1808  C116    1.106   1_556 S
N1821  Zn1839  2.035   .     S
N1822  Zn1840  2.035   .     S
O1823  Zn1839  2.031   .     S
O1831  Zn1840  2.031   .     S
O1832  Zn1839  2.031   .     S
O1833  Zn1840  2.031   .     S
O1834  Zn1839  1.951   .     S
O1835  Zn1840  1.951   .     S
O1836  Zn1839  1.950   .     S
O1837  Zn1840  1.950   .     S
C1841  O1925   1.305   .     A
C1841  O1915   1.292   .     A
C1841  C1844   1.445   .     S
C1842  C1844   1.413   .     A
C1842  O1918   1.383   .     S
C1843  C1852   1.447   .     S
C1843  C1871   1.414   .     A
C1843  C1872   1.398   .     A
C1844  C1870   1.396   .     A
C1845  N1914   1.374   .     A
C1845  O1919   1.382   .     S
C1845  C2400   1.434   1_545 S
C1846  O1920   1.388   .     S
C1846  N1913   1.382   .     A
C1846  C2123   1.434   .     S
C1847  N1914   1.372   .     A
C1847  O1921   1.382   .     S
C1847  C2398   1.434   1_545 S
C1848  O1922   1.387   .     S
C1848  N1913   1.380   .     A
C1848  C2121   1.434   .     S
C1849  C1850   1.512   .     S
C1849  H1873   1.102   .     S
C1849  O1930   1.418   .     S
C1850  H1906   1.111   .     S
C1850  H1908   1.105   .     S
C1851  H1910   1.107   .     S
C1851  O1916   1.414   .     S
C1851  H1909   1.117   .     S
C1851  C1853   1.524   .     S
C1852  O1924   1.293   .     A
C1852  O1923   1.305   .     A
C1853  H1911   1.109   .     S
C1853  H1912   1.108   .     S
C1853  H1874   1.108   .     S
C1854  O1917   1.419   .     S
C1854  H1875   1.102   .     S
C1854  C1855   1.512   .     S
C1854  H1692   1.118   1_655 S
C1855  H1879   1.102   .     S
C1855  H1693   1.106   1_655 S
C1855  H1694   1.110   1_655 S
C1856  C1857   1.525   .     S
C1856  H1880   1.117   .     S
C1856  O1918   1.413   .     S
C1856  H1881   1.107   .     S
C1857  H1885   1.108   .     S
C1857  H1882   1.109   .     S
C1857  H1883   1.108   .     S
C1858  H1887   1.106   .     S
C1858  C1859   1.525   .     S
C1858  H1886   1.103   .     S
C1858  O1919   1.417   .     S
C1859  H1888   1.110   .     S
C1859  H1890   1.109   .     S
C1859  H233    1.107   1_556 S
C1860  H1891   1.103   .     S
C1860  O1920   1.412   .     S
C1860  H1892   1.114   .     S
C1860  C1861   1.519   .     S
C1861  H1893   1.105   .     S
C1861  H1894   1.107   .     S
C1861  H1896   1.107   .     S
C1862  H1897   1.103   .     S
C1862  O1921   1.417   .     S
C1862  C1864   1.524   .     S
C1862  H1898   1.107   .     S
C1863  O1926   1.286   .     A
C1863  O1929   1.287   .     A
C1863  C1868   1.368   .     S
C1864  H1901   1.109   .     S
C1864  H1899   1.109   .     S
C1865  H1903   1.114   .     S
C1865  C1866   1.520   .     S
C1865  O1922   1.412   .     S
C1865  H1902   1.104   .     S
C1866  H1907   1.107   .     S
C1866  H1904   1.105   .     S
C1866  H1905   1.107   .     S
C1867  C1869   1.368   .     S
C1867  O1928   1.286   .     A
C1867  O1927   1.287   .     A
C1869  C212    1.166   1_556 S
C1870  O1930   1.379   .     S
C1871  O1916   1.383   .     S
C1871  C1658   1.389   1_655 S
C1872  O1917   1.380   .     S
C1872  C1686   1.382   1_655 S
H1884  C1665   1.119   1_655 S
H1895  C1666   1.105   1_655 S
H1900  C208    1.106   1_556 S
N1913  Zn1931  2.035   .     S
N1914  Zn1932  2.035   .     S
O1915  Zn1931  2.031   .     S
O1923  Zn1932  2.031   .     S
O1924  Zn1931  2.031   .     S
O1925  Zn1932  2.031   .     S
O1926  Zn1931  1.951   .     S
O1927  Zn1932  1.951   .     S
O1928  Zn1931  1.950   .     S
O1929  Zn1932  1.950   .     S
C1933  O2017   1.305   .     A
C1933  O2007   1.292   .     A
C1933  C1936   1.445   .     S
C1934  C1936   1.413   .     A
C1934  O2010   1.383   .     S
C1934  C2147   1.389   1_455 S
C1935  C1944   1.447   .     S
C1935  C1963   1.414   .     A
C1935  C1964   1.398   .     A
C1936  C1962   1.396   .     A
C1937  N2006   1.374   .     A
C1937  O2011   1.382   .     S
C1938  O2012   1.388   .     S
C1938  N2005   1.382   .     A
C1938  C2215   1.434   .     S
C1939  N2006   1.372   .     A
C1939  O2013   1.382   .     S
C1940  O2014   1.387   .     S
C1940  N2005   1.380   .     A
C1940  C2213   1.434   .     S
C1941  C1942   1.512   .     S
C1941  H1965   1.102   .     S
C1941  O2022   1.418   .     S
C1941  H2160   1.119   1_455 S
C1942  H1998   1.111   .     S
C1942  H2000   1.105   .     S
C1942  H2171   1.105   1_455 S
C1943  H2002   1.107   .     S
C1943  O2008   1.414   .     S
C1943  H2001   1.117   .     S
C1943  C1945   1.524   .     S
C1944  O2016   1.293   .     A
C1944  O2015   1.305   .     A
C1945  H2003   1.109   .     S
C1945  H2004   1.108   .     S
C1945  H1966   1.108   .     S
C1946  O2009   1.419   .     S
C1946  H1967   1.102   .     S
C1946  C1947   1.512   .     S
C1946  H2060   1.118   .     S
C1947  H1971   1.102   .     S
C1947  H2061   1.106   .     S
C1947  H2062   1.110   .     S
C1948  C1949   1.525   .     S
C1948  H1972   1.117   .     S
C1948  O2010   1.413   .     S
C1948  H1973   1.107   .     S
C1949  H1977   1.108   .     S
C1949  H1974   1.109   .     S
C1949  H1975   1.108   .     S
C1950  H1979   1.106   .     S
C1950  C1951   1.525   .     S
C1950  H1978   1.103   .     S
C1950  O2011   1.417   .     S
C1951  H1980   1.110   .     S
C1951  H1982   1.109   .     S
C1951  H325    1.107   1_556 S
C1952  H1983   1.103   .     S
C1952  O2012   1.412   .     S
C1952  H1984   1.114   .     S
C1952  C1953   1.519   .     S
C1953  H1985   1.105   .     S
C1953  H1986   1.107   .     S
C1953  H1988   1.107   .     S
C1954  H1989   1.103   .     S
C1954  O2013   1.417   .     S
C1954  C1956   1.524   .     S
C1954  H1990   1.107   .     S
C1955  O2018   1.286   .     A
C1955  O2021   1.287   .     A
C1955  C1960   1.368   .     S
C1956  H1993   1.109   .     S
C1956  H1991   1.109   .     S
C1957  H1995   1.114   .     S
C1957  C1958   1.520   .     S
C1957  O2014   1.412   .     S
C1957  H1994   1.104   .     S
C1958  H1999   1.107   .     S
C1958  H1996   1.105   .     S
C1958  H1997   1.107   .     S
C1959  C1961   1.368   .     S
C1959  O2020   1.286   .     A
C1959  O2019   1.287   .     A
C1961  C304    1.166   1_556 S
C1962  O2022   1.379   .     S
C1962  C2148   1.382   1_455 S
C1963  O2008   1.383   .     S
C1963  C2026   1.389   .     S
C1964  O2009   1.380   .     S
C1964  C2054   1.382   .     S
H1968  C2130   1.118   1_455 S
H1969  C2131   1.106   1_455 S
H1970  C2131   1.110   1_455 S
H1976  C2033   1.119   .     S
H1987  C2034   1.105   .     S
H1992  C300    1.106   1_556 S
N2005  Zn2023  2.035   .     S
N2006  Zn2024  2.035   .     S
O2007  Zn2023  2.031   .     S
O2015  Zn2024  2.031   .     S
O2016  Zn2023  2.031   .     S
O2017  Zn2024  2.031   .     S
O2018  Zn2023  1.951   .     S
O2019  Zn2024  1.951   .     S
O2020  Zn2023  1.950   .     S
O2021  Zn2024  1.950   .     S
C2025  O2109   1.305   .     A
C2025  O2099   1.292   .     A
C2025  C2028   1.445   .     S
C2026  C2028   1.413   .     A
C2026  O2102   1.383   .     S
C2027  C2036   1.447   .     S
C2027  C2055   1.414   .     A
C2027  C2056   1.398   .     A
C2028  C2054   1.396   .     A
C2029  N2098   1.374   .     A
C2029  O2103   1.382   .     S
C2030  O2104   1.388   .     S
C2030  N2097   1.382   .     A
C2030  C2307   1.434   .     S
C2031  N2098   1.372   .     A
C2031  O2105   1.382   .     S
C2032  O2106   1.387   .     S
C2032  N2097   1.380   .     A
C2032  C2305   1.434   .     S
C2033  C2034   1.512   .     S
C2033  H2057   1.102   .     S
C2033  O2114   1.418   .     S
C2034  H2090   1.111   .     S
C2034  H2092   1.105   .     S
C2035  H2094   1.107   .     S
C2035  O2100   1.414   .     S
C2035  H2093   1.117   .     S
C2035  C2037   1.524   .     S
C2036  O2108   1.293   .     A
C2036  O2107   1.305   .     A
C2037  H2095   1.109   .     S
C2037  H2096   1.108   .     S
C2037  H2058   1.108   .     S
C2038  O2101   1.419   .     S
C2038  H2059   1.102   .     S
C2038  C2039   1.512   .     S
C2038  H2152   1.118   .     S
C2039  H2063   1.102   .     S
C2039  H2153   1.106   .     S
C2039  H2154   1.110   .     S
C2040  C2041   1.525   .     S
C2040  H2064   1.117   .     S
C2040  O2102   1.413   .     S
C2040  H2065   1.107   .     S
C2041  H2069   1.108   .     S
C2041  H2066   1.109   .     S
C2041  H2067   1.108   .     S
C2042  H2071   1.106   .     S
C2042  C2043   1.525   .     S
C2042  H2070   1.103   .     S
C2042  O2103   1.417   .     S
C2043  H2072   1.110   .     S
C2043  H2074   1.109   .     S
C2043  H417    1.107   1_556 S
C2044  H2075   1.103   .     S
C2044  O2104   1.412   .     S
C2044  H2076   1.114   .     S
C2044  C2045   1.519   .     S
C2045  H2077   1.105   .     S
C2045  H2078   1.107   .     S
C2045  H2080   1.107   .     S
C2046  H2081   1.103   .     S
C2046  O2105   1.417   .     S
C2046  C2048   1.524   .     S
C2046  H2082   1.107   .     S
C2047  O2110   1.286   .     A
C2047  O2113   1.287   .     A
C2047  C2052   1.368   .     S
C2048  H2085   1.109   .     S
C2048  H2083   1.109   .     S
C2049  H2087   1.114   .     S
C2049  C2050   1.520   .     S
C2049  O2106   1.412   .     S
C2049  H2086   1.104   .     S
C2050  H2091   1.107   .     S
C2050  H2088   1.105   .     S
C2050  H2089   1.107   .     S
C2051  C2053   1.368   .     S
C2051  O2112   1.286   .     A
C2051  O2111   1.287   .     A
C2053  C396    1.166   1_556 S
C2054  O2114   1.379   .     S
C2055  O2100   1.383   .     S
C2055  C2118   1.389   .     S
C2056  O2101   1.380   .     S
C2056  C2146   1.382   .     S
H2068  C2125   1.119   .     S
H2079  C2126   1.105   .     S
H2084  C392    1.106   1_556 S
N2097  Zn2115  2.035   .     S
N2098  Zn2116  2.035   .     S
O2099  Zn2115  2.031   .     S
O2107  Zn2116  2.031   .     S
O2108  Zn2115  2.031   .     S
O2109  Zn2116  2.031   .     S
O2110  Zn2115  1.951   .     S
O2111  Zn2116  1.951   .     S
O2112  Zn2115  1.950   .     S
O2113  Zn2116  1.950   .     S
C2117  O2201   1.305   .     A
C2117  O2191   1.292   .     A
C2117  C2120   1.445   .     S
C2118  C2120   1.413   .     A
C2118  O2194   1.383   .     S
C2119  C2128   1.447   .     S
C2119  C2147   1.414   .     A
C2119  C2148   1.398   .     A
C2120  C2146   1.396   .     A
C2121  N2190   1.374   .     A
C2121  O2195   1.382   .     S
C2122  O2196   1.388   .     S
C2122  N2189   1.382   .     A
C2122  C2399   1.434   .     S
C2123  N2190   1.372   .     A
C2123  O2197   1.382   .     S
C2124  O2198   1.387   .     S
C2124  N2189   1.380   .     A
C2124  C2397   1.434   .     S
C2125  C2126   1.512   .     S
C2125  H2149   1.102   .     S
C2125  O2206   1.418   .     S
C2126  H2182   1.111   .     S
C2126  H2184   1.105   .     S
C2127  H2186   1.107   .     S
C2127  O2192   1.414   .     S
C2127  H2185   1.117   .     S
C2127  C2129   1.524   .     S
C2128  O2200   1.293   .     A
C2128  O2199   1.305   .     A
C2129  H2187   1.109   .     S
C2129  H2188   1.108   .     S
C2129  H2150   1.108   .     S
C2130  O2193   1.419   .     S
C2130  H2151   1.102   .     S
C2130  C2131   1.512   .     S
C2130  H1968   1.118   1_655 S
C2131  H2155   1.102   .     S
C2131  H1969   1.106   1_655 S
C2131  H1970   1.110   1_655 S
C2132  C2133   1.525   .     S
C2132  H2156   1.117   .     S
C2132  O2194   1.413   .     S
C2132  H2157   1.107   .     S
C2133  H2161   1.108   .     S
C2133  H2158   1.109   .     S
C2133  H2159   1.108   .     S
C2134  H2163   1.106   .     S
C2134  C2135   1.525   .     S
C2134  H2162   1.103   .     S
C2134  O2195   1.417   .     S
C2135  H2164   1.110   .     S
C2135  H2166   1.109   .     S
C2135  H509    1.107   1_556 S
C2136  H2167   1.103   .     S
C2136  O2196   1.412   .     S
C2136  H2168   1.114   .     S
C2136  C2137   1.519   .     S
C2137  H2169   1.105   .     S
C2137  H2170   1.107   .     S
C2137  H2172   1.107   .     S
C2138  H2173   1.103   .     S
C2138  O2197   1.417   .     S
C2138  C2140   1.524   .     S
C2138  H2174   1.107   .     S
C2139  O2202   1.286   .     A
C2139  O2205   1.287   .     A
C2139  C2144   1.368   .     S
C2140  H2177   1.109   .     S
C2140  H2175   1.109   .     S
C2141  H2179   1.114   .     S
C2141  C2142   1.520   .     S
C2141  O2198   1.412   .     S
C2141  H2178   1.104   .     S
C2142  H2183   1.107   .     S
C2142  H2180   1.105   .     S
C2142  H2181   1.107   .     S
C2143  C2145   1.368   .     S
C2143  O2204   1.286   .     A
C2143  O2203   1.287   .     A
C2145  C488    1.166   1_556 S
C2146  O2206   1.379   .     S
C2147  O2192   1.383   .     S
C2147  C1934   1.389   1_655 S
C2148  O2193   1.380   .     S
C2148  C1962   1.382   1_655 S
H2160  C1941   1.119   1_655 S
H2171  C1942   1.105   1_655 S
H2176  C484    1.106   1_556 S
N2189  Zn2207  2.035   .     S
N2190  Zn2208  2.035   .     S
O2191  Zn2207  2.031   .     S
O2199  Zn2208  2.031   .     S
O2200  Zn2207  2.031   .     S
O2201  Zn2208  2.031   .     S
O2202  Zn2207  1.951   .     S
O2203  Zn2208  1.951   .     S
O2204  Zn2207  1.950   .     S
O2205  Zn2208  1.950   .     S
C2209  O2293   1.305   .     A
C2209  O2283   1.292   .     A
C2209  C2212   1.445   .     S
C2210  C2212   1.413   .     A
C2210  O2286   1.383   .     S
C2210  C2423   1.389   1_455 S
C2211  C2220   1.447   .     S
C2211  C2239   1.414   .     A
C2211  C2240   1.398   .     A
C2212  C2238   1.396   .     A
C2213  N2282   1.374   .     A
C2213  O2287   1.382   .     S
C2214  O2288   1.388   .     S
C2214  N2281   1.382   .     A
C2214  C1663   1.434   1_565 S
C2215  N2282   1.372   .     A
C2215  O2289   1.382   .     S
C2216  O2290   1.387   .     S
C2216  N2281   1.380   .     A
C2216  C1661   1.434   1_565 S
C2217  C2218   1.512   .     S
C2217  H2241   1.102   .     S
C2217  O2298   1.418   .     S
C2217  H2436   1.119   1_455 S
C2218  H2274   1.111   .     S
C2218  H2276   1.105   .     S
C2218  H2447   1.105   1_455 S
C2219  H2278   1.107   .     S
C2219  O2284   1.414   .     S
C2219  H2277   1.117   .     S
C2219  C2221   1.524   .     S
C2220  O2292   1.293   .     A
C2220  O2291   1.305   .     A
C2221  H2279   1.109   .     S
C2221  H2280   1.108   .     S
C2221  H2242   1.108   .     S
C2222  O2285   1.419   .     S
C2222  H2243   1.102   .     S
C2222  C2223   1.512   .     S
C2222  H2336   1.118   .     S
C2223  H2247   1.102   .     S
C2223  H2337   1.106   .     S
C2223  H2338   1.110   .     S
C2224  C2225   1.525   .     S
C2224  H2248   1.117   .     S
C2224  O2286   1.413   .     S
C2224  H2249   1.107   .     S
C2225  H2253   1.108   .     S
C2225  H2250   1.109   .     S
C2225  H2251   1.108   .     S
C2226  H2255   1.106   .     S
C2226  C2227   1.525   .     S
C2226  H2254   1.103   .     S
C2226  O2287   1.417   .     S
C2227  H2256   1.110   .     S
C2227  H2258   1.109   .     S
C2227  H601    1.107   1_556 S
C2228  H2259   1.103   .     S
C2228  O2288   1.412   .     S
C2228  H2260   1.114   .     S
C2228  C2229   1.519   .     S
C2229  H2261   1.105   .     S
C2229  H2262   1.107   .     S
C2229  H2264   1.107   .     S
C2230  H2265   1.103   .     S
C2230  O2289   1.417   .     S
C2230  C2232   1.524   .     S
C2230  H2266   1.107   .     S
C2231  O2294   1.286   .     A
C2231  O2297   1.287   .     A
C2231  C2236   1.368   .     S
C2232  H2269   1.109   .     S
C2232  H2267   1.109   .     S
C2233  H2271   1.114   .     S
C2233  C2234   1.520   .     S
C2233  O2290   1.412   .     S
C2233  H2270   1.104   .     S
C2234  H2275   1.107   .     S
C2234  H2272   1.105   .     S
C2234  H2273   1.107   .     S
C2235  C2237   1.368   .     S
C2235  O2296   1.286   .     A
C2235  O2295   1.287   .     A
C2237  C580    1.166   1_556 S
C2238  O2298   1.379   .     S
C2238  C2424   1.382   1_455 S
C2239  O2284   1.383   .     S
C2239  C2302   1.389   .     S
C2240  O2285   1.380   .     S
C2240  C2330   1.382   .     S
H2244  C2406   1.118   1_455 S
H2245  C2407   1.106   1_455 S
H2246  C2407   1.110   1_455 S
H2252  C2309   1.119   .     S
H2263  C2310   1.105   .     S
H2268  C576    1.106   1_556 S
N2281  Zn2299  2.035   .     S
N2282  Zn2300  2.035   .     S
O2283  Zn2299  2.031   .     S
O2291  Zn2300  2.031   .     S
O2292  Zn2299  2.031   .     S
O2293  Zn2300  2.031   .     S
O2294  Zn2299  1.951   .     S
O2295  Zn2300  1.951   .     S
O2296  Zn2299  1.950   .     S
O2297  Zn2300  1.950   .     S
C2301  O2385   1.305   .     A
C2301  O2375   1.292   .     A
C2301  C2304   1.445   .     S
C2302  C2304   1.413   .     A
C2302  O2378   1.383   .     S
C2303  C2312   1.447   .     S
C2303  C2331   1.414   .     A
C2303  C2332   1.398   .     A
C2304  C2330   1.396   .     A
C2305  N2374   1.374   .     A
C2305  O2379   1.382   .     S
C2306  O2380   1.388   .     S
C2306  N2373   1.382   .     A
C2306  C1755   1.434   1_565 S
C2307  N2374   1.372   .     A
C2307  O2381   1.382   .     S
C2308  O2382   1.387   .     S
C2308  N2373   1.380   .     A
C2308  C1753   1.434   1_565 S
C2309  C2310   1.512   .     S
C2309  H2333   1.102   .     S
C2309  O2390   1.418   .     S
C2310  H2366   1.111   .     S
C2310  H2368   1.105   .     S
C2311  H2370   1.107   .     S
C2311  O2376   1.414   .     S
C2311  H2369   1.117   .     S
C2311  C2313   1.524   .     S
C2312  O2384   1.293   .     A
C2312  O2383   1.305   .     A
C2313  H2371   1.109   .     S
C2313  H2372   1.108   .     S
C2313  H2334   1.108   .     S
C2314  O2377   1.419   .     S
C2314  H2335   1.102   .     S
C2314  C2315   1.512   .     S
C2314  H2428   1.118   .     S
C2315  H2339   1.102   .     S
C2315  H2429   1.106   .     S
C2315  H2430   1.110   .     S
C2316  C2317   1.525   .     S
C2316  H2340   1.117   .     S
C2316  O2378   1.413   .     S
C2316  H2341   1.107   .     S
C2317  H2345   1.108   .     S
C2317  H2342   1.109   .     S
C2317  H2343   1.108   .     S
C2318  H2347   1.106   .     S
C2318  C2319   1.525   .     S
C2318  H2346   1.103   .     S
C2318  O2379   1.417   .     S
C2319  H2348   1.110   .     S
C2319  H2350   1.109   .     S
C2319  H693    1.107   1_556 S
C2320  H2351   1.103   .     S
C2320  O2380   1.412   .     S
C2320  H2352   1.114   .     S
C2320  C2321   1.519   .     S
C2321  H2353   1.105   .     S
C2321  H2354   1.107   .     S
C2321  H2356   1.107   .     S
C2322  H2357   1.103   .     S
C2322  O2381   1.417   .     S
C2322  C2324   1.524   .     S
C2322  H2358   1.107   .     S
C2323  O2386   1.286   .     A
C2323  O2389   1.287   .     A
C2323  C2328   1.368   .     S
C2324  H2361   1.109   .     S
C2324  H2359   1.109   .     S
C2325  H2363   1.114   .     S
C2325  C2326   1.520   .     S
C2325  O2382   1.412   .     S
C2325  H2362   1.104   .     S
C2326  H2367   1.107   .     S
C2326  H2364   1.105   .     S
C2326  H2365   1.107   .     S
C2327  C2329   1.368   .     S
C2327  O2388   1.286   .     A
C2327  O2387   1.287   .     A
C2329  C672    1.166   1_556 S
C2330  O2390   1.379   .     S
C2331  O2376   1.383   .     S
C2331  C2394   1.389   .     S
C2332  O2377   1.380   .     S
C2332  C2422   1.382   .     S
H2344  C2401   1.119   .     S
H2355  C2402   1.105   .     S
H2360  C668    1.106   1_556 S
N2373  Zn2391  2.035   .     S
N2374  Zn2392  2.035   .     S
O2375  Zn2391  2.031   .     S
O2383  Zn2392  2.031   .     S
O2384  Zn2391  2.031   .     S
O2385  Zn2392  2.031   .     S
O2386  Zn2391  1.951   .     S
O2387  Zn2392  1.951   .     S
O2388  Zn2391  1.950   .     S
O2389  Zn2392  1.950   .     S
C2393  O2477   1.305   .     A
C2393  O2467   1.292   .     A
C2393  C2396   1.445   .     S
C2394  C2396   1.413   .     A
C2394  O2470   1.383   .     S
C2395  C2404   1.447   .     S
C2395  C2423   1.414   .     A
C2395  C2424   1.398   .     A
C2396  C2422   1.396   .     A
C2397  N2466   1.374   .     A
C2397  O2471   1.382   .     S
C2398  O2472   1.388   .     S
C2398  N2465   1.382   .     A
C2398  C1847   1.434   1_565 S
C2399  N2466   1.372   .     A
C2399  O2473   1.382   .     S
C2400  O2474   1.387   .     S
C2400  N2465   1.380   .     A
C2400  C1845   1.434   1_565 S
C2401  C2402   1.512   .     S
C2401  H2425   1.102   .     S
C2401  O2482   1.418   .     S
C2402  H2458   1.111   .     S
C2402  H2460   1.105   .     S
C2403  H2462   1.107   .     S
C2403  O2468   1.414   .     S
C2403  H2461   1.117   .     S
C2403  C2405   1.524   .     S
C2404  O2476   1.293   .     A
C2404  O2475   1.305   .     A
C2405  H2463   1.109   .     S
C2405  H2464   1.108   .     S
C2405  H2426   1.108   .     S
C2406  O2469   1.419   .     S
C2406  H2427   1.102   .     S
C2406  C2407   1.512   .     S
C2406  H2244   1.118   1_655 S
C2407  H2431   1.102   .     S
C2407  H2245   1.106   1_655 S
C2407  H2246   1.110   1_655 S
C2408  C2409   1.525   .     S
C2408  H2432   1.117   .     S
C2408  O2470   1.413   .     S
C2408  H2433   1.107   .     S
C2409  H2437   1.108   .     S
C2409  H2434   1.109   .     S
C2409  H2435   1.108   .     S
C2410  H2439   1.106   .     S
C2410  C2411   1.525   .     S
C2410  H2438   1.103   .     S
C2410  O2471   1.417   .     S
C2411  H2440   1.110   .     S
C2411  H2442   1.109   .     S
C2411  H785    1.107   1_556 S
C2412  H2443   1.103   .     S
C2412  O2472   1.412   .     S
C2412  H2444   1.114   .     S
C2412  C2413   1.519   .     S
C2413  H2445   1.105   .     S
C2413  H2446   1.107   .     S
C2413  H2448   1.107   .     S
C2414  H2449   1.103   .     S
C2414  O2473   1.417   .     S
C2414  C2416   1.524   .     S
C2414  H2450   1.107   .     S
C2415  O2478   1.286   .     A
C2415  O2481   1.287   .     A
C2415  C2420   1.368   .     S
C2416  H2453   1.109   .     S
C2416  H2451   1.109   .     S
C2417  H2455   1.114   .     S
C2417  C2418   1.520   .     S
C2417  O2474   1.412   .     S
C2417  H2454   1.104   .     S
C2418  H2459   1.107   .     S
C2418  H2456   1.105   .     S
C2418  H2457   1.107   .     S
C2419  C2421   1.368   .     S
C2419  O2480   1.286   .     A
C2419  O2479   1.287   .     A
C2421  C764    1.166   1_556 S
C2422  O2482   1.379   .     S
C2423  O2468   1.383   .     S
C2423  C2210   1.389   1_655 S
C2424  O2469   1.380   .     S
C2424  C2238   1.382   1_655 S
H2436  C2217   1.119   1_655 S
H2447  C2218   1.105   1_655 S
H2452  C760    1.106   1_556 S
N2465  Zn2483  2.035   .     S
N2466  Zn2484  2.035   .     S
O2467  Zn2483  2.031   .     S
O2475  Zn2484  2.031   .     S
O2476  Zn2483  2.031   .     S
O2477  Zn2484  2.031   .     S
O2478  Zn2483  1.951   .     S
O2479  Zn2484  1.951   .     S
O2480  Zn2483  1.950   .     S
O2481  Zn2484  1.950   .     S
