data_str_m2_o1_o17_pcu_sym.137
_audit_creation_date              2020-01-03
_audit_creation_method            'Materials Studio'
_symmetry_space_group_name_H-M    'P1'
_symmetry_Int_Tables_number       1
_symmetry_cell_setting            triclinic
loop_
_symmetry_equiv_pos_as_xyz
  x,y,z
_cell_length_a                    32.6693
_cell_length_b                    28.5764
_cell_length_c                    30.0463
_cell_angle_alpha                 90.2842
_cell_angle_beta                  89.9431
_cell_angle_gamma                 90.7612
loop_
_atom_site_label
_atom_site_type_symbol
_atom_site_fract_x
_atom_site_fract_y
_atom_site_fract_z
_atom_site_U_iso_or_equiv
_atom_site_adp_type
_atom_site_occupancy
O1     O     0.10655   0.20625   0.25000   0.00000  Uiso   1.00
O2     O     0.22679   0.12709   0.25001   0.00000  Uiso   1.00
O3     O     0.22679   0.20625   0.25001   0.00000  Uiso   1.00
O4     O     0.10655   0.12709   0.25000   0.00000  Uiso   1.00
C5     C     0.08747   0.16631   0.25049   0.00000  Uiso   1.00
C6     C     0.24588   0.16702   0.24959   0.00000  Uiso   1.00
O7     O     0.16666   0.20627   0.18513   0.00000  Uiso   1.00
O8     O     0.16668   0.12707   0.31487   0.00000  Uiso   1.00
O9     O     0.16668   0.20627   0.31487   0.00000  Uiso   1.00
O10    O     0.16666   0.12707   0.18513   0.00000  Uiso   1.00
C11    C     0.16666   0.16661   0.16446   0.00000  Uiso   1.00
C12    C     0.16655   0.16672   0.33553   0.00000  Uiso   1.00
Cu13   Cu    0.16667   0.21355   0.25000   0.00000  Uiso   1.00
Cu14   Cu    0.16667   0.11978   0.25000   0.00000  Uiso   1.00
C15    C     0.20327   0.16461   0.40645   0.00000  Uiso   1.00
C16    C     0.12992   0.17119   0.09358   0.00000  Uiso   1.00
C17    C     0.16645   0.16670   0.38368   0.00000  Uiso   1.00
C18    C     0.16661   0.16658   0.11628   0.00000  Uiso   1.00
C19    C     0.12955   0.16781   0.40655   0.00000  Uiso   1.00
C20    C     0.20330   0.16268   0.09334   0.00000  Uiso   1.00
C21    C     0.12876   0.16674   0.45324   0.00000  Uiso   1.00
C22    C     0.20402   0.16260   0.04665   0.00000  Uiso   1.00
C23    C     0.16643   0.16644   0.47663   0.00000  Uiso   1.00
C24    C     0.16648   0.16657   0.02334   0.00000  Uiso   1.00
C25    C     0.20407   0.16589   0.45310   0.00000  Uiso   1.00
C26    C     0.12902   0.17075   0.04688   0.00000  Uiso   1.00
C27    C     0.09125   0.16660   0.47683   0.00000  Uiso   1.00
C28    C     0.24141   0.15934   0.02304   0.00000  Uiso   1.00
C29    C     0.09152   0.17358   0.02348   0.00000  Uiso   1.00
C30    C     0.24161   0.16599   0.47645   0.00000  Uiso   1.00
H31    H     0.23103   0.16097   0.38727   0.00000  Uiso   1.00
H32    H     0.10225   0.17426   0.11298   0.00000  Uiso   1.00
H33    H     0.10174   0.16991   0.38733   0.00000  Uiso   1.00
H34    H     0.23119   0.16119   0.11249   0.00000  Uiso   1.00
C35    C     0.02143   0.14045   0.21738   0.00000  Uiso   1.00
C36    C     0.31195   0.19296   0.28270   0.00000  Uiso   1.00
C37    C     0.31171   0.14248   0.21571   0.00000  Uiso   1.00
C38    C     0.02167   0.19080   0.28447   0.00000  Uiso   1.00
C39    C     0.29061   0.16789   0.24897   0.00000  Uiso   1.00
C40    C     0.04275   0.16544   0.25117   0.00000  Uiso   1.00
C41    C     0.14380   0.02429   0.21989   0.00000  Uiso   1.00
C42    C     0.18954   0.30904   0.28011   0.00000  Uiso   1.00
C43    C     0.18959   0.02530   0.28007   0.00000  Uiso   1.00
C44    C     0.14374   0.30804   0.21993   0.00000  Uiso   1.00
H45    H     0.12559   0.04252   0.19565   0.00000  Uiso   1.00
H46    H     0.20775   0.29081   0.30434   0.00000  Uiso   1.00
H47    H     0.20801   0.04435   0.30414   0.00000  Uiso   1.00
H48    H     0.12532   0.28898   0.19586   0.00000  Uiso   1.00
N49    N     0.16667   0.28402   0.25000   0.00000  Uiso   1.00
N50    N     0.16667   0.04931   0.25000   0.00000  Uiso   1.00
C51    C     0.05147   0.15605   0.45274   0.00000  Uiso   1.00
H52    H     0.05579   0.12953   0.42610   0.00000  Uiso   1.00
H53    H     0.02876   0.13942   0.47521   0.00000  Uiso   1.00
H54    H     0.03917   0.18865   0.43834   0.00000  Uiso   1.00
C55    C     0.28039   0.14675   0.04731   0.00000  Uiso   1.00
H56    H     0.27443   0.11655   0.06960   0.00000  Uiso   1.00
H57    H     0.30478   0.13473   0.02458   0.00000  Uiso   1.00
H58    H     0.29172   0.17717   0.06707   0.00000  Uiso   1.00
C59    C     0.05239   0.18534   0.04816   0.00000  Uiso   1.00
H60    H     0.02776   0.19696   0.02571   0.00000  Uiso   1.00
H61    H     0.04157   0.15463   0.06760   0.00000  Uiso   1.00
H62    H     0.05783   0.21555   0.07087   0.00000  Uiso   1.00
C63    C     0.28132   0.17654   0.45222   0.00000  Uiso   1.00
H64    H     0.30428   0.19268   0.47482   0.00000  Uiso   1.00
H65    H     0.29337   0.14409   0.43689   0.00000  Uiso   1.00
H66    H     0.27687   0.20341   0.42617   0.00000  Uiso   1.00
C67    C     0.04531   0.11180   0.18350   0.00000  Uiso   1.00
H68    H     0.05873   0.08115   0.20031   0.00000  Uiso   1.00
H69    H     0.02722   0.09786   0.15524   0.00000  Uiso   1.00
H70    H     0.07012   0.13349   0.16880   0.00000  Uiso   1.00
C71    C     0.28811   0.22190   0.31637   0.00000  Uiso   1.00
H72    H     0.27482   0.25251   0.29936   0.00000  Uiso   1.00
H73    H     0.26320   0.20041   0.33110   0.00000  Uiso   1.00
H74    H     0.30622   0.23594   0.34458   0.00000  Uiso   1.00
C75    C     0.28899   0.11909   0.17730   0.00000  Uiso   1.00
H76    H     0.25575   0.12535   0.17671   0.00000  Uiso   1.00
H77    H     0.30073   0.13326   0.14537   0.00000  Uiso   1.00
H78    H     0.29335   0.08063   0.17840   0.00000  Uiso   1.00
C79    C     0.04443   0.21415   0.32291   0.00000  Uiso   1.00
H80    H     0.07765   0.20768   0.32354   0.00000  Uiso   1.00
H81    H     0.04027   0.25263   0.32169   0.00000  Uiso   1.00
H82    H     0.03264   0.20020   0.35494   0.00000  Uiso   1.00
O83    O     0.43988   0.20625   0.25000   0.00000  Uiso   1.00
O84    O     0.56012   0.12709   0.25001   0.00000  Uiso   1.00
O85    O     0.56012   0.20625   0.25001   0.00000  Uiso   1.00
O86    O     0.43988   0.12709   0.25000   0.00000  Uiso   1.00
C87    C     0.42080   0.16631   0.25049   0.00000  Uiso   1.00
C88    C     0.57921   0.16702   0.24959   0.00000  Uiso   1.00
O89    O     0.49999   0.20627   0.18513   0.00000  Uiso   1.00
O90    O     0.50001   0.12707   0.31487   0.00000  Uiso   1.00
O91    O     0.50001   0.20627   0.31487   0.00000  Uiso   1.00
O92    O     0.49999   0.12707   0.18513   0.00000  Uiso   1.00
C93    C     0.49999   0.16661   0.16446   0.00000  Uiso   1.00
C94    C     0.49988   0.16672   0.33553   0.00000  Uiso   1.00
Cu95   Cu    0.50000   0.21355   0.25000   0.00000  Uiso   1.00
Cu96   Cu    0.50000   0.11978   0.25000   0.00000  Uiso   1.00
C97    C     0.53660   0.16461   0.40645   0.00000  Uiso   1.00
C98    C     0.46325   0.17119   0.09358   0.00000  Uiso   1.00
C99    C     0.49979   0.16670   0.38368   0.00000  Uiso   1.00
C100   C     0.49994   0.16658   0.11628   0.00000  Uiso   1.00
C101   C     0.46289   0.16781   0.40655   0.00000  Uiso   1.00
C102   C     0.53664   0.16268   0.09334   0.00000  Uiso   1.00
C103   C     0.46209   0.16674   0.45324   0.00000  Uiso   1.00
C104   C     0.53735   0.16260   0.04665   0.00000  Uiso   1.00
C105   C     0.49976   0.16644   0.47663   0.00000  Uiso   1.00
C106   C     0.49981   0.16657   0.02334   0.00000  Uiso   1.00
C107   C     0.53740   0.16589   0.45310   0.00000  Uiso   1.00
C108   C     0.46235   0.17075   0.04688   0.00000  Uiso   1.00
C109   C     0.42459   0.16660   0.47683   0.00000  Uiso   1.00
C110   C     0.57475   0.15934   0.02304   0.00000  Uiso   1.00
C111   C     0.42485   0.17358   0.02348   0.00000  Uiso   1.00
C112   C     0.57494   0.16599   0.47645   0.00000  Uiso   1.00
H113   H     0.56436   0.16097   0.38727   0.00000  Uiso   1.00
H114   H     0.43558   0.17426   0.11298   0.00000  Uiso   1.00
H115   H     0.43508   0.16991   0.38733   0.00000  Uiso   1.00
H116   H     0.56452   0.16119   0.11249   0.00000  Uiso   1.00
C117   C     0.35476   0.14045   0.21738   0.00000  Uiso   1.00
C118   C     0.64528   0.19296   0.28270   0.00000  Uiso   1.00
C119   C     0.64505   0.14248   0.21571   0.00000  Uiso   1.00
C120   C     0.35500   0.19080   0.28447   0.00000  Uiso   1.00
C121   C     0.62394   0.16789   0.24897   0.00000  Uiso   1.00
C122   C     0.37609   0.16544   0.25117   0.00000  Uiso   1.00
C123   C     0.47713   0.02429   0.21989   0.00000  Uiso   1.00
C124   C     0.52287   0.30904   0.28011   0.00000  Uiso   1.00
C125   C     0.52293   0.02530   0.28007   0.00000  Uiso   1.00
C126   C     0.47708   0.30804   0.21993   0.00000  Uiso   1.00
H127   H     0.45893   0.04252   0.19565   0.00000  Uiso   1.00
H128   H     0.54108   0.29081   0.30434   0.00000  Uiso   1.00
H129   H     0.54135   0.04435   0.30414   0.00000  Uiso   1.00
H130   H     0.45866   0.28898   0.19586   0.00000  Uiso   1.00
N131   N     0.50000   0.28402   0.25000   0.00000  Uiso   1.00
N132   N     0.50000   0.04931   0.25000   0.00000  Uiso   1.00
C133   C     0.38480   0.15605   0.45274   0.00000  Uiso   1.00
H134   H     0.38912   0.12953   0.42610   0.00000  Uiso   1.00
H135   H     0.36209   0.13942   0.47521   0.00000  Uiso   1.00
H136   H     0.37250   0.18865   0.43834   0.00000  Uiso   1.00
C137   C     0.61372   0.14675   0.04731   0.00000  Uiso   1.00
H138   H     0.60777   0.11655   0.06960   0.00000  Uiso   1.00
H139   H     0.63812   0.13473   0.02458   0.00000  Uiso   1.00
H140   H     0.62506   0.17717   0.06707   0.00000  Uiso   1.00
C141   C     0.38573   0.18534   0.04816   0.00000  Uiso   1.00
H142   H     0.36109   0.19696   0.02571   0.00000  Uiso   1.00
H143   H     0.37491   0.15463   0.06760   0.00000  Uiso   1.00
H144   H     0.39116   0.21555   0.07087   0.00000  Uiso   1.00
C145   C     0.61466   0.17654   0.45222   0.00000  Uiso   1.00
H146   H     0.63761   0.19268   0.47482   0.00000  Uiso   1.00
H147   H     0.62670   0.14409   0.43689   0.00000  Uiso   1.00
H148   H     0.61021   0.20341   0.42617   0.00000  Uiso   1.00
C149   C     0.37864   0.11180   0.18350   0.00000  Uiso   1.00
H150   H     0.39206   0.08115   0.20031   0.00000  Uiso   1.00
H151   H     0.36055   0.09786   0.15524   0.00000  Uiso   1.00
H152   H     0.40346   0.13349   0.16880   0.00000  Uiso   1.00
C153   C     0.62145   0.22190   0.31637   0.00000  Uiso   1.00
H154   H     0.60816   0.25251   0.29936   0.00000  Uiso   1.00
H155   H     0.59653   0.20041   0.33110   0.00000  Uiso   1.00
H156   H     0.63955   0.23594   0.34458   0.00000  Uiso   1.00
C157   C     0.62232   0.11909   0.17730   0.00000  Uiso   1.00
H158   H     0.58908   0.12535   0.17671   0.00000  Uiso   1.00
H159   H     0.63407   0.13326   0.14537   0.00000  Uiso   1.00
H160   H     0.62668   0.08063   0.17840   0.00000  Uiso   1.00
C161   C     0.37777   0.21415   0.32291   0.00000  Uiso   1.00
H162   H     0.41098   0.20768   0.32354   0.00000  Uiso   1.00
H163   H     0.37360   0.25263   0.32169   0.00000  Uiso   1.00
H164   H     0.36597   0.20020   0.35494   0.00000  Uiso   1.00
O165   O     0.77321   0.20625   0.25000   0.00000  Uiso   1.00
O166   O     0.89345   0.12709   0.25001   0.00000  Uiso   1.00
O167   O     0.89345   0.20625   0.25001   0.00000  Uiso   1.00
O168   O     0.77321   0.12709   0.25000   0.00000  Uiso   1.00
C169   C     0.75413   0.16631   0.25049   0.00000  Uiso   1.00
C170   C     0.91255   0.16702   0.24959   0.00000  Uiso   1.00
O171   O     0.83332   0.20627   0.18513   0.00000  Uiso   1.00
O172   O     0.83334   0.12707   0.31487   0.00000  Uiso   1.00
O173   O     0.83334   0.20627   0.31487   0.00000  Uiso   1.00
O174   O     0.83332   0.12707   0.18513   0.00000  Uiso   1.00
C175   C     0.83333   0.16661   0.16446   0.00000  Uiso   1.00
C176   C     0.83321   0.16672   0.33553   0.00000  Uiso   1.00
Cu177  Cu    0.83333   0.21355   0.25000   0.00000  Uiso   1.00
Cu178  Cu    0.83333   0.11978   0.25000   0.00000  Uiso   1.00
C179   C     0.86993   0.16461   0.40645   0.00000  Uiso   1.00
C180   C     0.79659   0.17119   0.09358   0.00000  Uiso   1.00
C181   C     0.83312   0.16670   0.38368   0.00000  Uiso   1.00
C182   C     0.83328   0.16658   0.11628   0.00000  Uiso   1.00
C183   C     0.79622   0.16781   0.40655   0.00000  Uiso   1.00
C184   C     0.86997   0.16268   0.09334   0.00000  Uiso   1.00
C185   C     0.79543   0.16674   0.45324   0.00000  Uiso   1.00
C186   C     0.87068   0.16260   0.04665   0.00000  Uiso   1.00
C187   C     0.83310   0.16644   0.47663   0.00000  Uiso   1.00
C188   C     0.83315   0.16657   0.02334   0.00000  Uiso   1.00
C189   C     0.87073   0.16589   0.45310   0.00000  Uiso   1.00
C190   C     0.79568   0.17075   0.04688   0.00000  Uiso   1.00
C191   C     0.75792   0.16660   0.47683   0.00000  Uiso   1.00
C192   C     0.90808   0.15934   0.02304   0.00000  Uiso   1.00
C193   C     0.75819   0.17358   0.02348   0.00000  Uiso   1.00
C194   C     0.90828   0.16599   0.47645   0.00000  Uiso   1.00
H195   H     0.89769   0.16097   0.38727   0.00000  Uiso   1.00
H196   H     0.76891   0.17426   0.11298   0.00000  Uiso   1.00
H197   H     0.76841   0.16991   0.38733   0.00000  Uiso   1.00
H198   H     0.89786   0.16119   0.11249   0.00000  Uiso   1.00
C199   C     0.68810   0.14045   0.21738   0.00000  Uiso   1.00
C200   C     0.97862   0.19296   0.28270   0.00000  Uiso   1.00
C201   C     0.97838   0.14248   0.21571   0.00000  Uiso   1.00
C202   C     0.68833   0.19080   0.28447   0.00000  Uiso   1.00
C203   C     0.95728   0.16789   0.24897   0.00000  Uiso   1.00
C204   C     0.70942   0.16544   0.25117   0.00000  Uiso   1.00
C205   C     0.81047   0.02429   0.21989   0.00000  Uiso   1.00
C206   C     0.85620   0.30904   0.28011   0.00000  Uiso   1.00
C207   C     0.85626   0.02530   0.28007   0.00000  Uiso   1.00
C208   C     0.81041   0.30804   0.21993   0.00000  Uiso   1.00
H209   H     0.79226   0.04252   0.19565   0.00000  Uiso   1.00
H210   H     0.87441   0.29081   0.30434   0.00000  Uiso   1.00
H211   H     0.87468   0.04435   0.30414   0.00000  Uiso   1.00
H212   H     0.79199   0.28898   0.19586   0.00000  Uiso   1.00
N213   N     0.83333   0.28402   0.25000   0.00000  Uiso   1.00
N214   N     0.83333   0.04931   0.25000   0.00000  Uiso   1.00
C215   C     0.71814   0.15605   0.45274   0.00000  Uiso   1.00
H216   H     0.72246   0.12953   0.42610   0.00000  Uiso   1.00
H217   H     0.69543   0.13942   0.47521   0.00000  Uiso   1.00
H218   H     0.70584   0.18865   0.43834   0.00000  Uiso   1.00
C219   C     0.94706   0.14675   0.04731   0.00000  Uiso   1.00
H220   H     0.94110   0.11655   0.06960   0.00000  Uiso   1.00
H221   H     0.97145   0.13473   0.02458   0.00000  Uiso   1.00
H222   H     0.95839   0.17717   0.06707   0.00000  Uiso   1.00
C223   C     0.71906   0.18534   0.04816   0.00000  Uiso   1.00
H224   H     0.69442   0.19696   0.02571   0.00000  Uiso   1.00
H225   H     0.70824   0.15463   0.06760   0.00000  Uiso   1.00
H226   H     0.72449   0.21555   0.07087   0.00000  Uiso   1.00
C227   C     0.94799   0.17654   0.45222   0.00000  Uiso   1.00
H228   H     0.97094   0.19268   0.47482   0.00000  Uiso   1.00
H229   H     0.96004   0.14409   0.43689   0.00000  Uiso   1.00
H230   H     0.94354   0.20341   0.42617   0.00000  Uiso   1.00
C231   C     0.71197   0.11180   0.18350   0.00000  Uiso   1.00
H232   H     0.72539   0.08115   0.20031   0.00000  Uiso   1.00
H233   H     0.69388   0.09786   0.15524   0.00000  Uiso   1.00
H234   H     0.73679   0.13349   0.16880   0.00000  Uiso   1.00
C235   C     0.95478   0.22190   0.31637   0.00000  Uiso   1.00
H236   H     0.94149   0.25251   0.29936   0.00000  Uiso   1.00
H237   H     0.92986   0.20041   0.33110   0.00000  Uiso   1.00
H238   H     0.97288   0.23594   0.34458   0.00000  Uiso   1.00
C239   C     0.95565   0.11909   0.17730   0.00000  Uiso   1.00
H240   H     0.92241   0.12535   0.17671   0.00000  Uiso   1.00
H241   H     0.96740   0.13326   0.14537   0.00000  Uiso   1.00
H242   H     0.96002   0.08063   0.17840   0.00000  Uiso   1.00
C243   C     0.71110   0.21415   0.32291   0.00000  Uiso   1.00
H244   H     0.74431   0.20768   0.32354   0.00000  Uiso   1.00
H245   H     0.70693   0.25263   0.32169   0.00000  Uiso   1.00
H246   H     0.69930   0.20020   0.35494   0.00000  Uiso   1.00
O247   O     0.10655   0.53958   0.25000   0.00000  Uiso   1.00
O248   O     0.22679   0.46042   0.25001   0.00000  Uiso   1.00
O249   O     0.22679   0.53958   0.25001   0.00000  Uiso   1.00
O250   O     0.10655   0.46042   0.25000   0.00000  Uiso   1.00
C251   C     0.08747   0.49965   0.25049   0.00000  Uiso   1.00
C252   C     0.24588   0.50036   0.24959   0.00000  Uiso   1.00
O253   O     0.16666   0.53960   0.18513   0.00000  Uiso   1.00
O254   O     0.16668   0.46040   0.31487   0.00000  Uiso   1.00
O255   O     0.16668   0.53960   0.31487   0.00000  Uiso   1.00
O256   O     0.16666   0.46040   0.18513   0.00000  Uiso   1.00
C257   C     0.16666   0.49994   0.16446   0.00000  Uiso   1.00
C258   C     0.16655   0.50005   0.33553   0.00000  Uiso   1.00
Cu259  Cu    0.16667   0.54689   0.25000   0.00000  Uiso   1.00
Cu260  Cu    0.16667   0.45311   0.25000   0.00000  Uiso   1.00
C261   C     0.20327   0.49794   0.40645   0.00000  Uiso   1.00
C262   C     0.12992   0.50453   0.09358   0.00000  Uiso   1.00
C263   C     0.16645   0.50003   0.38368   0.00000  Uiso   1.00
C264   C     0.16661   0.49992   0.11628   0.00000  Uiso   1.00
C265   C     0.12955   0.50114   0.40655   0.00000  Uiso   1.00
C266   C     0.20330   0.49601   0.09334   0.00000  Uiso   1.00
C267   C     0.12876   0.50007   0.45324   0.00000  Uiso   1.00
C268   C     0.20402   0.49593   0.04665   0.00000  Uiso   1.00
C269   C     0.16643   0.49977   0.47663   0.00000  Uiso   1.00
C270   C     0.16648   0.49990   0.02334   0.00000  Uiso   1.00
C271   C     0.20407   0.49922   0.45310   0.00000  Uiso   1.00
C272   C     0.12902   0.50408   0.04688   0.00000  Uiso   1.00
C273   C     0.09125   0.49994   0.47683   0.00000  Uiso   1.00
C274   C     0.24141   0.49267   0.02304   0.00000  Uiso   1.00
C275   C     0.09152   0.50691   0.02348   0.00000  Uiso   1.00
C276   C     0.24161   0.49932   0.47645   0.00000  Uiso   1.00
H277   H     0.23103   0.49430   0.38727   0.00000  Uiso   1.00
H278   H     0.10225   0.50760   0.11298   0.00000  Uiso   1.00
H279   H     0.10174   0.50324   0.38733   0.00000  Uiso   1.00
H280   H     0.23119   0.49452   0.11249   0.00000  Uiso   1.00
C281   C     0.02143   0.47378   0.21738   0.00000  Uiso   1.00
C282   C     0.31195   0.52630   0.28270   0.00000  Uiso   1.00
C283   C     0.31171   0.47582   0.21571   0.00000  Uiso   1.00
C284   C     0.02167   0.52414   0.28447   0.00000  Uiso   1.00
C285   C     0.29061   0.50122   0.24897   0.00000  Uiso   1.00
C286   C     0.04275   0.49878   0.25117   0.00000  Uiso   1.00
C287   C     0.14380   0.35762   0.21989   0.00000  Uiso   1.00
C288   C     0.18954   0.64238   0.28011   0.00000  Uiso   1.00
C289   C     0.18959   0.35863   0.28007   0.00000  Uiso   1.00
C290   C     0.14374   0.64137   0.21993   0.00000  Uiso   1.00
H291   H     0.12559   0.37586   0.19565   0.00000  Uiso   1.00
H292   H     0.20775   0.62414   0.30434   0.00000  Uiso   1.00
H293   H     0.20801   0.37768   0.30414   0.00000  Uiso   1.00
H294   H     0.12532   0.62231   0.19586   0.00000  Uiso   1.00
N295   N     0.16667   0.61736   0.25000   0.00000  Uiso   1.00
N296   N     0.16667   0.38264   0.25000   0.00000  Uiso   1.00
C297   C     0.05147   0.48938   0.45274   0.00000  Uiso   1.00
H298   H     0.05579   0.46286   0.42610   0.00000  Uiso   1.00
H299   H     0.02876   0.47275   0.47521   0.00000  Uiso   1.00
H300   H     0.03917   0.52198   0.43834   0.00000  Uiso   1.00
C301   C     0.28039   0.48008   0.04731   0.00000  Uiso   1.00
H302   H     0.27443   0.44988   0.06960   0.00000  Uiso   1.00
H303   H     0.30478   0.46806   0.02458   0.00000  Uiso   1.00
H304   H     0.29172   0.51051   0.06707   0.00000  Uiso   1.00
C305   C     0.05239   0.51868   0.04816   0.00000  Uiso   1.00
H306   H     0.02776   0.53030   0.02571   0.00000  Uiso   1.00
H307   H     0.04157   0.48796   0.06760   0.00000  Uiso   1.00
H308   H     0.05783   0.54888   0.07087   0.00000  Uiso   1.00
C309   C     0.28132   0.50987   0.45222   0.00000  Uiso   1.00
H310   H     0.30428   0.52602   0.47482   0.00000  Uiso   1.00
H311   H     0.29337   0.47743   0.43689   0.00000  Uiso   1.00
H312   H     0.27687   0.53674   0.42617   0.00000  Uiso   1.00
C313   C     0.04531   0.44513   0.18350   0.00000  Uiso   1.00
H314   H     0.05873   0.41448   0.20031   0.00000  Uiso   1.00
H315   H     0.02722   0.43119   0.15524   0.00000  Uiso   1.00
H316   H     0.07012   0.46682   0.16880   0.00000  Uiso   1.00
C317   C     0.28811   0.55524   0.31637   0.00000  Uiso   1.00
H318   H     0.27482   0.58584   0.29936   0.00000  Uiso   1.00
H319   H     0.26320   0.53375   0.33110   0.00000  Uiso   1.00
H320   H     0.30622   0.56927   0.34458   0.00000  Uiso   1.00
C321   C     0.28899   0.45242   0.17730   0.00000  Uiso   1.00
H322   H     0.25575   0.45868   0.17671   0.00000  Uiso   1.00
H323   H     0.30073   0.46660   0.14537   0.00000  Uiso   1.00
H324   H     0.29335   0.41397   0.17840   0.00000  Uiso   1.00
C325   C     0.04443   0.54749   0.32291   0.00000  Uiso   1.00
H326   H     0.07765   0.54101   0.32354   0.00000  Uiso   1.00
H327   H     0.04027   0.58597   0.32169   0.00000  Uiso   1.00
H328   H     0.03264   0.53354   0.35494   0.00000  Uiso   1.00
O329   O     0.43988   0.53958   0.25000   0.00000  Uiso   1.00
O330   O     0.56012   0.46042   0.25001   0.00000  Uiso   1.00
O331   O     0.56012   0.53958   0.25001   0.00000  Uiso   1.00
O332   O     0.43988   0.46042   0.25000   0.00000  Uiso   1.00
C333   C     0.42080   0.49965   0.25049   0.00000  Uiso   1.00
C334   C     0.57921   0.50036   0.24959   0.00000  Uiso   1.00
O335   O     0.49999   0.53960   0.18513   0.00000  Uiso   1.00
O336   O     0.50001   0.46040   0.31487   0.00000  Uiso   1.00
O337   O     0.50001   0.53960   0.31487   0.00000  Uiso   1.00
O338   O     0.49999   0.46040   0.18513   0.00000  Uiso   1.00
C339   C     0.49999   0.49994   0.16446   0.00000  Uiso   1.00
C340   C     0.49988   0.50005   0.33553   0.00000  Uiso   1.00
Cu341  Cu    0.50000   0.54689   0.25000   0.00000  Uiso   1.00
Cu342  Cu    0.50000   0.45311   0.25000   0.00000  Uiso   1.00
C343   C     0.53660   0.49794   0.40645   0.00000  Uiso   1.00
C344   C     0.46325   0.50453   0.09358   0.00000  Uiso   1.00
C345   C     0.49979   0.50003   0.38368   0.00000  Uiso   1.00
C346   C     0.49994   0.49992   0.11628   0.00000  Uiso   1.00
C347   C     0.46289   0.50114   0.40655   0.00000  Uiso   1.00
C348   C     0.53664   0.49601   0.09334   0.00000  Uiso   1.00
C349   C     0.46209   0.50007   0.45324   0.00000  Uiso   1.00
C350   C     0.53735   0.49593   0.04665   0.00000  Uiso   1.00
C351   C     0.49976   0.49977   0.47663   0.00000  Uiso   1.00
C352   C     0.49981   0.49990   0.02334   0.00000  Uiso   1.00
C353   C     0.53740   0.49922   0.45310   0.00000  Uiso   1.00
C354   C     0.46235   0.50408   0.04688   0.00000  Uiso   1.00
C355   C     0.42459   0.49994   0.47683   0.00000  Uiso   1.00
C356   C     0.57475   0.49267   0.02304   0.00000  Uiso   1.00
C357   C     0.42485   0.50691   0.02348   0.00000  Uiso   1.00
C358   C     0.57494   0.49932   0.47645   0.00000  Uiso   1.00
H359   H     0.56436   0.49430   0.38727   0.00000  Uiso   1.00
H360   H     0.43558   0.50760   0.11298   0.00000  Uiso   1.00
H361   H     0.43508   0.50324   0.38733   0.00000  Uiso   1.00
H362   H     0.56452   0.49452   0.11249   0.00000  Uiso   1.00
C363   C     0.35476   0.47378   0.21738   0.00000  Uiso   1.00
C364   C     0.64528   0.52630   0.28270   0.00000  Uiso   1.00
C365   C     0.64505   0.47582   0.21571   0.00000  Uiso   1.00
C366   C     0.35500   0.52414   0.28447   0.00000  Uiso   1.00
C367   C     0.62394   0.50122   0.24897   0.00000  Uiso   1.00
C368   C     0.37609   0.49878   0.25117   0.00000  Uiso   1.00
C369   C     0.47713   0.35762   0.21989   0.00000  Uiso   1.00
C370   C     0.52287   0.64238   0.28011   0.00000  Uiso   1.00
C371   C     0.52293   0.35863   0.28007   0.00000  Uiso   1.00
C372   C     0.47708   0.64137   0.21993   0.00000  Uiso   1.00
H373   H     0.45893   0.37586   0.19565   0.00000  Uiso   1.00
H374   H     0.54108   0.62414   0.30434   0.00000  Uiso   1.00
H375   H     0.54135   0.37768   0.30414   0.00000  Uiso   1.00
H376   H     0.45866   0.62231   0.19586   0.00000  Uiso   1.00
N377   N     0.50000   0.61736   0.25000   0.00000  Uiso   1.00
N378   N     0.50000   0.38264   0.25000   0.00000  Uiso   1.00
C379   C     0.38480   0.48938   0.45274   0.00000  Uiso   1.00
H380   H     0.38912   0.46286   0.42610   0.00000  Uiso   1.00
H381   H     0.36209   0.47275   0.47521   0.00000  Uiso   1.00
H382   H     0.37250   0.52198   0.43834   0.00000  Uiso   1.00
C383   C     0.61372   0.48008   0.04731   0.00000  Uiso   1.00
H384   H     0.60777   0.44988   0.06960   0.00000  Uiso   1.00
H385   H     0.63812   0.46806   0.02458   0.00000  Uiso   1.00
H386   H     0.62506   0.51051   0.06707   0.00000  Uiso   1.00
C387   C     0.38573   0.51868   0.04816   0.00000  Uiso   1.00
H388   H     0.36109   0.53030   0.02571   0.00000  Uiso   1.00
H389   H     0.37491   0.48796   0.06760   0.00000  Uiso   1.00
H390   H     0.39116   0.54888   0.07087   0.00000  Uiso   1.00
C391   C     0.61466   0.50987   0.45222   0.00000  Uiso   1.00
H392   H     0.63761   0.52602   0.47482   0.00000  Uiso   1.00
H393   H     0.62670   0.47743   0.43689   0.00000  Uiso   1.00
H394   H     0.61021   0.53674   0.42617   0.00000  Uiso   1.00
C395   C     0.37864   0.44513   0.18350   0.00000  Uiso   1.00
H396   H     0.39206   0.41448   0.20031   0.00000  Uiso   1.00
H397   H     0.36055   0.43119   0.15524   0.00000  Uiso   1.00
H398   H     0.40346   0.46682   0.16880   0.00000  Uiso   1.00
C399   C     0.62145   0.55524   0.31637   0.00000  Uiso   1.00
H400   H     0.60816   0.58584   0.29936   0.00000  Uiso   1.00
H401   H     0.59653   0.53375   0.33110   0.00000  Uiso   1.00
H402   H     0.63955   0.56927   0.34458   0.00000  Uiso   1.00
C403   C     0.62232   0.45242   0.17730   0.00000  Uiso   1.00
H404   H     0.58908   0.45868   0.17671   0.00000  Uiso   1.00
H405   H     0.63407   0.46660   0.14537   0.00000  Uiso   1.00
H406   H     0.62668   0.41397   0.17840   0.00000  Uiso   1.00
C407   C     0.37777   0.54749   0.32291   0.00000  Uiso   1.00
H408   H     0.41098   0.54101   0.32354   0.00000  Uiso   1.00
H409   H     0.37360   0.58597   0.32169   0.00000  Uiso   1.00
H410   H     0.36597   0.53354   0.35494   0.00000  Uiso   1.00
O411   O     0.77321   0.53958   0.25000   0.00000  Uiso   1.00
O412   O     0.89345   0.46042   0.25001   0.00000  Uiso   1.00
O413   O     0.89345   0.53958   0.25001   0.00000  Uiso   1.00
O414   O     0.77321   0.46042   0.25000   0.00000  Uiso   1.00
C415   C     0.75413   0.49965   0.25049   0.00000  Uiso   1.00
C416   C     0.91255   0.50036   0.24959   0.00000  Uiso   1.00
O417   O     0.83332   0.53960   0.18513   0.00000  Uiso   1.00
O418   O     0.83334   0.46040   0.31487   0.00000  Uiso   1.00
O419   O     0.83334   0.53960   0.31487   0.00000  Uiso   1.00
O420   O     0.83332   0.46040   0.18513   0.00000  Uiso   1.00
C421   C     0.83333   0.49994   0.16446   0.00000  Uiso   1.00
C422   C     0.83321   0.50005   0.33553   0.00000  Uiso   1.00
Cu423  Cu    0.83333   0.54689   0.25000   0.00000  Uiso   1.00
Cu424  Cu    0.83333   0.45311   0.25000   0.00000  Uiso   1.00
C425   C     0.86993   0.49794   0.40645   0.00000  Uiso   1.00
C426   C     0.79659   0.50453   0.09358   0.00000  Uiso   1.00
C427   C     0.83312   0.50003   0.38368   0.00000  Uiso   1.00
C428   C     0.83328   0.49992   0.11628   0.00000  Uiso   1.00
C429   C     0.79622   0.50114   0.40655   0.00000  Uiso   1.00
C430   C     0.86997   0.49601   0.09334   0.00000  Uiso   1.00
C431   C     0.79543   0.50007   0.45324   0.00000  Uiso   1.00
C432   C     0.87068   0.49593   0.04665   0.00000  Uiso   1.00
C433   C     0.83310   0.49977   0.47663   0.00000  Uiso   1.00
C434   C     0.83315   0.49990   0.02334   0.00000  Uiso   1.00
C435   C     0.87073   0.49922   0.45310   0.00000  Uiso   1.00
C436   C     0.79568   0.50408   0.04688   0.00000  Uiso   1.00
C437   C     0.75792   0.49994   0.47683   0.00000  Uiso   1.00
C438   C     0.90808   0.49267   0.02304   0.00000  Uiso   1.00
C439   C     0.75819   0.50691   0.02348   0.00000  Uiso   1.00
C440   C     0.90828   0.49932   0.47645   0.00000  Uiso   1.00
H441   H     0.89769   0.49430   0.38727   0.00000  Uiso   1.00
H442   H     0.76891   0.50760   0.11298   0.00000  Uiso   1.00
H443   H     0.76841   0.50324   0.38733   0.00000  Uiso   1.00
H444   H     0.89786   0.49452   0.11249   0.00000  Uiso   1.00
C445   C     0.68810   0.47378   0.21738   0.00000  Uiso   1.00
C446   C     0.97862   0.52630   0.28270   0.00000  Uiso   1.00
C447   C     0.97838   0.47582   0.21571   0.00000  Uiso   1.00
C448   C     0.68833   0.52414   0.28447   0.00000  Uiso   1.00
C449   C     0.95728   0.50122   0.24897   0.00000  Uiso   1.00
C450   C     0.70942   0.49878   0.25117   0.00000  Uiso   1.00
C451   C     0.81047   0.35762   0.21989   0.00000  Uiso   1.00
C452   C     0.85620   0.64238   0.28011   0.00000  Uiso   1.00
C453   C     0.85626   0.35863   0.28007   0.00000  Uiso   1.00
C454   C     0.81041   0.64137   0.21993   0.00000  Uiso   1.00
H455   H     0.79226   0.37586   0.19565   0.00000  Uiso   1.00
H456   H     0.87441   0.62414   0.30434   0.00000  Uiso   1.00
H457   H     0.87468   0.37768   0.30414   0.00000  Uiso   1.00
H458   H     0.79199   0.62231   0.19586   0.00000  Uiso   1.00
N459   N     0.83333   0.61736   0.25000   0.00000  Uiso   1.00
N460   N     0.83333   0.38264   0.25000   0.00000  Uiso   1.00
C461   C     0.71814   0.48938   0.45274   0.00000  Uiso   1.00
H462   H     0.72246   0.46286   0.42610   0.00000  Uiso   1.00
H463   H     0.69543   0.47275   0.47521   0.00000  Uiso   1.00
H464   H     0.70584   0.52198   0.43834   0.00000  Uiso   1.00
C465   C     0.94706   0.48008   0.04731   0.00000  Uiso   1.00
H466   H     0.94110   0.44988   0.06960   0.00000  Uiso   1.00
H467   H     0.97145   0.46806   0.02458   0.00000  Uiso   1.00
H468   H     0.95839   0.51051   0.06707   0.00000  Uiso   1.00
C469   C     0.71906   0.51868   0.04816   0.00000  Uiso   1.00
H470   H     0.69442   0.53030   0.02571   0.00000  Uiso   1.00
H471   H     0.70824   0.48796   0.06760   0.00000  Uiso   1.00
H472   H     0.72449   0.54888   0.07087   0.00000  Uiso   1.00
C473   C     0.94799   0.50987   0.45222   0.00000  Uiso   1.00
H474   H     0.97094   0.52602   0.47482   0.00000  Uiso   1.00
H475   H     0.96004   0.47743   0.43689   0.00000  Uiso   1.00
H476   H     0.94354   0.53674   0.42617   0.00000  Uiso   1.00
C477   C     0.71197   0.44513   0.18350   0.00000  Uiso   1.00
H478   H     0.72539   0.41448   0.20031   0.00000  Uiso   1.00
H479   H     0.69388   0.43119   0.15524   0.00000  Uiso   1.00
H480   H     0.73679   0.46682   0.16880   0.00000  Uiso   1.00
C481   C     0.95478   0.55524   0.31637   0.00000  Uiso   1.00
H482   H     0.94149   0.58584   0.29936   0.00000  Uiso   1.00
H483   H     0.92986   0.53375   0.33110   0.00000  Uiso   1.00
H484   H     0.97288   0.56927   0.34458   0.00000  Uiso   1.00
C485   C     0.95565   0.45242   0.17730   0.00000  Uiso   1.00
H486   H     0.92241   0.45868   0.17671   0.00000  Uiso   1.00
H487   H     0.96740   0.46660   0.14537   0.00000  Uiso   1.00
H488   H     0.96002   0.41397   0.17840   0.00000  Uiso   1.00
C489   C     0.71110   0.54749   0.32291   0.00000  Uiso   1.00
H490   H     0.74431   0.54101   0.32354   0.00000  Uiso   1.00
H491   H     0.70693   0.58597   0.32169   0.00000  Uiso   1.00
H492   H     0.69930   0.53354   0.35494   0.00000  Uiso   1.00
O493   O     0.10655   0.87291   0.25000   0.00000  Uiso   1.00
O494   O     0.22679   0.79375   0.25001   0.00000  Uiso   1.00
O495   O     0.22679   0.87291   0.25001   0.00000  Uiso   1.00
O496   O     0.10655   0.79375   0.25000   0.00000  Uiso   1.00
C497   C     0.08747   0.83298   0.25049   0.00000  Uiso   1.00
C498   C     0.24588   0.83369   0.24959   0.00000  Uiso   1.00
O499   O     0.16666   0.87293   0.18513   0.00000  Uiso   1.00
O500   O     0.16668   0.79373   0.31487   0.00000  Uiso   1.00
O501   O     0.16668   0.87293   0.31487   0.00000  Uiso   1.00
O502   O     0.16666   0.79373   0.18513   0.00000  Uiso   1.00
C503   C     0.16666   0.83327   0.16446   0.00000  Uiso   1.00
C504   C     0.16655   0.83339   0.33553   0.00000  Uiso   1.00
Cu505  Cu    0.16667   0.88022   0.25000   0.00000  Uiso   1.00
Cu506  Cu    0.16667   0.78645   0.25000   0.00000  Uiso   1.00
C507   C     0.20327   0.83127   0.40645   0.00000  Uiso   1.00
C508   C     0.12992   0.83786   0.09358   0.00000  Uiso   1.00
C509   C     0.16645   0.83337   0.38368   0.00000  Uiso   1.00
C510   C     0.16661   0.83325   0.11628   0.00000  Uiso   1.00
C511   C     0.12955   0.83447   0.40655   0.00000  Uiso   1.00
C512   C     0.20330   0.82935   0.09334   0.00000  Uiso   1.00
C513   C     0.12876   0.83341   0.45324   0.00000  Uiso   1.00
C514   C     0.20402   0.82926   0.04665   0.00000  Uiso   1.00
C515   C     0.16643   0.83310   0.47663   0.00000  Uiso   1.00
C516   C     0.16648   0.83323   0.02334   0.00000  Uiso   1.00
C517   C     0.20407   0.83255   0.45310   0.00000  Uiso   1.00
C518   C     0.12902   0.83742   0.04688   0.00000  Uiso   1.00
C519   C     0.09125   0.83327   0.47683   0.00000  Uiso   1.00
C520   C     0.24141   0.82601   0.02304   0.00000  Uiso   1.00
C521   C     0.09152   0.84024   0.02348   0.00000  Uiso   1.00
C522   C     0.24161   0.83265   0.47645   0.00000  Uiso   1.00
H523   H     0.23103   0.82764   0.38727   0.00000  Uiso   1.00
H524   H     0.10225   0.84093   0.11298   0.00000  Uiso   1.00
H525   H     0.10174   0.83658   0.38733   0.00000  Uiso   1.00
H526   H     0.23119   0.82786   0.11249   0.00000  Uiso   1.00
C527   C     0.02143   0.80712   0.21738   0.00000  Uiso   1.00
C528   C     0.31195   0.85963   0.28270   0.00000  Uiso   1.00
C529   C     0.31171   0.80915   0.21571   0.00000  Uiso   1.00
C530   C     0.02167   0.85747   0.28447   0.00000  Uiso   1.00
C531   C     0.29061   0.83455   0.24897   0.00000  Uiso   1.00
C532   C     0.04275   0.83211   0.25117   0.00000  Uiso   1.00
C533   C     0.14380   0.69095   0.21989   0.00000  Uiso   1.00
C534   C     0.18954   0.97571   0.28011   0.00000  Uiso   1.00
C535   C     0.18959   0.69196   0.28007   0.00000  Uiso   1.00
C536   C     0.14374   0.97470   0.21993   0.00000  Uiso   1.00
H537   H     0.12559   0.70919   0.19565   0.00000  Uiso   1.00
H538   H     0.20775   0.95747   0.30434   0.00000  Uiso   1.00
H539   H     0.20801   0.71102   0.30414   0.00000  Uiso   1.00
H540   H     0.12532   0.95565   0.19586   0.00000  Uiso   1.00
N541   N     0.16667   0.95069   0.25000   0.00000  Uiso   1.00
N542   N     0.16667   0.71598   0.25000   0.00000  Uiso   1.00
C543   C     0.05147   0.82271   0.45274   0.00000  Uiso   1.00
H544   H     0.05579   0.79620   0.42610   0.00000  Uiso   1.00
H545   H     0.02876   0.80609   0.47521   0.00000  Uiso   1.00
H546   H     0.03917   0.85531   0.43834   0.00000  Uiso   1.00
C547   C     0.28039   0.81341   0.04731   0.00000  Uiso   1.00
H548   H     0.27443   0.78321   0.06960   0.00000  Uiso   1.00
H549   H     0.30478   0.80139   0.02458   0.00000  Uiso   1.00
H550   H     0.29172   0.84384   0.06707   0.00000  Uiso   1.00
C551   C     0.05239   0.85201   0.04816   0.00000  Uiso   1.00
H552   H     0.02776   0.86363   0.02571   0.00000  Uiso   1.00
H553   H     0.04157   0.82130   0.06760   0.00000  Uiso   1.00
H554   H     0.05783   0.88221   0.07087   0.00000  Uiso   1.00
C555   C     0.28132   0.84321   0.45222   0.00000  Uiso   1.00
H556   H     0.30428   0.85935   0.47482   0.00000  Uiso   1.00
H557   H     0.29337   0.81076   0.43689   0.00000  Uiso   1.00
H558   H     0.27687   0.87007   0.42617   0.00000  Uiso   1.00
C559   C     0.04531   0.77847   0.18350   0.00000  Uiso   1.00
H560   H     0.05873   0.74781   0.20031   0.00000  Uiso   1.00
H561   H     0.02722   0.76452   0.15524   0.00000  Uiso   1.00
H562   H     0.07012   0.80016   0.16880   0.00000  Uiso   1.00
C563   C     0.28811   0.88857   0.31637   0.00000  Uiso   1.00
H564   H     0.27482   0.91918   0.29936   0.00000  Uiso   1.00
H565   H     0.26320   0.86708   0.33110   0.00000  Uiso   1.00
H566   H     0.30622   0.90260   0.34458   0.00000  Uiso   1.00
C567   C     0.28899   0.78575   0.17730   0.00000  Uiso   1.00
H568   H     0.25575   0.79202   0.17671   0.00000  Uiso   1.00
H569   H     0.30073   0.79993   0.14537   0.00000  Uiso   1.00
H570   H     0.29335   0.74730   0.17840   0.00000  Uiso   1.00
C571   C     0.04443   0.88082   0.32291   0.00000  Uiso   1.00
H572   H     0.07765   0.87434   0.32354   0.00000  Uiso   1.00
H573   H     0.04027   0.91930   0.32169   0.00000  Uiso   1.00
H574   H     0.03264   0.86687   0.35494   0.00000  Uiso   1.00
O575   O     0.43988   0.87291   0.25000   0.00000  Uiso   1.00
O576   O     0.56012   0.79375   0.25001   0.00000  Uiso   1.00
O577   O     0.56012   0.87291   0.25001   0.00000  Uiso   1.00
O578   O     0.43988   0.79375   0.25000   0.00000  Uiso   1.00
C579   C     0.42080   0.83298   0.25049   0.00000  Uiso   1.00
C580   C     0.57921   0.83369   0.24959   0.00000  Uiso   1.00
O581   O     0.49999   0.87293   0.18513   0.00000  Uiso   1.00
O582   O     0.50001   0.79373   0.31487   0.00000  Uiso   1.00
O583   O     0.50001   0.87293   0.31487   0.00000  Uiso   1.00
O584   O     0.49999   0.79373   0.18513   0.00000  Uiso   1.00
C585   C     0.49999   0.83327   0.16446   0.00000  Uiso   1.00
C586   C     0.49988   0.83339   0.33553   0.00000  Uiso   1.00
Cu587  Cu    0.50000   0.88022   0.25000   0.00000  Uiso   1.00
Cu588  Cu    0.50000   0.78645   0.25000   0.00000  Uiso   1.00
C589   C     0.53660   0.83127   0.40645   0.00000  Uiso   1.00
C590   C     0.46325   0.83786   0.09358   0.00000  Uiso   1.00
C591   C     0.49979   0.83337   0.38368   0.00000  Uiso   1.00
C592   C     0.49994   0.83325   0.11628   0.00000  Uiso   1.00
C593   C     0.46289   0.83447   0.40655   0.00000  Uiso   1.00
C594   C     0.53664   0.82935   0.09334   0.00000  Uiso   1.00
C595   C     0.46209   0.83341   0.45324   0.00000  Uiso   1.00
C596   C     0.53735   0.82926   0.04665   0.00000  Uiso   1.00
C597   C     0.49976   0.83310   0.47663   0.00000  Uiso   1.00
C598   C     0.49981   0.83323   0.02334   0.00000  Uiso   1.00
C599   C     0.53740   0.83255   0.45310   0.00000  Uiso   1.00
C600   C     0.46235   0.83742   0.04688   0.00000  Uiso   1.00
C601   C     0.42459   0.83327   0.47683   0.00000  Uiso   1.00
C602   C     0.57475   0.82601   0.02304   0.00000  Uiso   1.00
C603   C     0.42485   0.84024   0.02348   0.00000  Uiso   1.00
C604   C     0.57494   0.83265   0.47645   0.00000  Uiso   1.00
H605   H     0.56436   0.82764   0.38727   0.00000  Uiso   1.00
H606   H     0.43558   0.84093   0.11298   0.00000  Uiso   1.00
H607   H     0.43508   0.83658   0.38733   0.00000  Uiso   1.00
H608   H     0.56452   0.82786   0.11249   0.00000  Uiso   1.00
C609   C     0.35476   0.80712   0.21738   0.00000  Uiso   1.00
C610   C     0.64528   0.85963   0.28270   0.00000  Uiso   1.00
C611   C     0.64505   0.80915   0.21571   0.00000  Uiso   1.00
C612   C     0.35500   0.85747   0.28447   0.00000  Uiso   1.00
C613   C     0.62394   0.83455   0.24897   0.00000  Uiso   1.00
C614   C     0.37609   0.83211   0.25117   0.00000  Uiso   1.00
C615   C     0.47713   0.69095   0.21989   0.00000  Uiso   1.00
C616   C     0.52287   0.97571   0.28011   0.00000  Uiso   1.00
C617   C     0.52293   0.69196   0.28007   0.00000  Uiso   1.00
C618   C     0.47708   0.97470   0.21993   0.00000  Uiso   1.00
H619   H     0.45893   0.70919   0.19565   0.00000  Uiso   1.00
H620   H     0.54108   0.95747   0.30434   0.00000  Uiso   1.00
H621   H     0.54135   0.71102   0.30414   0.00000  Uiso   1.00
H622   H     0.45866   0.95565   0.19586   0.00000  Uiso   1.00
N623   N     0.50000   0.95069   0.25000   0.00000  Uiso   1.00
N624   N     0.50000   0.71598   0.25000   0.00000  Uiso   1.00
C625   C     0.38480   0.82271   0.45274   0.00000  Uiso   1.00
H626   H     0.38912   0.79620   0.42610   0.00000  Uiso   1.00
H627   H     0.36209   0.80609   0.47521   0.00000  Uiso   1.00
H628   H     0.37250   0.85531   0.43834   0.00000  Uiso   1.00
C629   C     0.61372   0.81341   0.04731   0.00000  Uiso   1.00
H630   H     0.60777   0.78321   0.06960   0.00000  Uiso   1.00
H631   H     0.63812   0.80139   0.02458   0.00000  Uiso   1.00
H632   H     0.62506   0.84384   0.06707   0.00000  Uiso   1.00
C633   C     0.38573   0.85201   0.04816   0.00000  Uiso   1.00
H634   H     0.36109   0.86363   0.02571   0.00000  Uiso   1.00
H635   H     0.37491   0.82130   0.06760   0.00000  Uiso   1.00
H636   H     0.39116   0.88221   0.07087   0.00000  Uiso   1.00
C637   C     0.61466   0.84321   0.45222   0.00000  Uiso   1.00
H638   H     0.63761   0.85935   0.47482   0.00000  Uiso   1.00
H639   H     0.62670   0.81076   0.43689   0.00000  Uiso   1.00
H640   H     0.61021   0.87007   0.42617   0.00000  Uiso   1.00
C641   C     0.37864   0.77847   0.18350   0.00000  Uiso   1.00
H642   H     0.39206   0.74781   0.20031   0.00000  Uiso   1.00
H643   H     0.36055   0.76452   0.15524   0.00000  Uiso   1.00
H644   H     0.40346   0.80016   0.16880   0.00000  Uiso   1.00
C645   C     0.62145   0.88857   0.31637   0.00000  Uiso   1.00
H646   H     0.60816   0.91918   0.29936   0.00000  Uiso   1.00
H647   H     0.59653   0.86708   0.33110   0.00000  Uiso   1.00
H648   H     0.63955   0.90260   0.34458   0.00000  Uiso   1.00
C649   C     0.62232   0.78575   0.17730   0.00000  Uiso   1.00
H650   H     0.58908   0.79202   0.17671   0.00000  Uiso   1.00
H651   H     0.63407   0.79993   0.14537   0.00000  Uiso   1.00
H652   H     0.62668   0.74730   0.17840   0.00000  Uiso   1.00
C653   C     0.37777   0.88082   0.32291   0.00000  Uiso   1.00
H654   H     0.41098   0.87434   0.32354   0.00000  Uiso   1.00
H655   H     0.37360   0.91930   0.32169   0.00000  Uiso   1.00
H656   H     0.36597   0.86687   0.35494   0.00000  Uiso   1.00
O657   O     0.77321   0.87291   0.25000   0.00000  Uiso   1.00
O658   O     0.89345   0.79375   0.25001   0.00000  Uiso   1.00
O659   O     0.89345   0.87291   0.25001   0.00000  Uiso   1.00
O660   O     0.77321   0.79375   0.25000   0.00000  Uiso   1.00
C661   C     0.75413   0.83298   0.25049   0.00000  Uiso   1.00
C662   C     0.91255   0.83369   0.24959   0.00000  Uiso   1.00
O663   O     0.83332   0.87293   0.18513   0.00000  Uiso   1.00
O664   O     0.83334   0.79373   0.31487   0.00000  Uiso   1.00
O665   O     0.83334   0.87293   0.31487   0.00000  Uiso   1.00
O666   O     0.83332   0.79373   0.18513   0.00000  Uiso   1.00
C667   C     0.83333   0.83327   0.16446   0.00000  Uiso   1.00
C668   C     0.83321   0.83339   0.33553   0.00000  Uiso   1.00
Cu669  Cu    0.83333   0.88022   0.25000   0.00000  Uiso   1.00
Cu670  Cu    0.83333   0.78645   0.25000   0.00000  Uiso   1.00
C671   C     0.86993   0.83127   0.40645   0.00000  Uiso   1.00
C672   C     0.79659   0.83786   0.09358   0.00000  Uiso   1.00
C673   C     0.83312   0.83337   0.38368   0.00000  Uiso   1.00
C674   C     0.83328   0.83325   0.11628   0.00000  Uiso   1.00
C675   C     0.79622   0.83447   0.40655   0.00000  Uiso   1.00
C676   C     0.86997   0.82935   0.09334   0.00000  Uiso   1.00
C677   C     0.79543   0.83341   0.45324   0.00000  Uiso   1.00
C678   C     0.87068   0.82926   0.04665   0.00000  Uiso   1.00
C679   C     0.83310   0.83310   0.47663   0.00000  Uiso   1.00
C680   C     0.83315   0.83323   0.02334   0.00000  Uiso   1.00
C681   C     0.87073   0.83255   0.45310   0.00000  Uiso   1.00
C682   C     0.79568   0.83742   0.04688   0.00000  Uiso   1.00
C683   C     0.75792   0.83327   0.47683   0.00000  Uiso   1.00
C684   C     0.90808   0.82601   0.02304   0.00000  Uiso   1.00
C685   C     0.75819   0.84024   0.02348   0.00000  Uiso   1.00
C686   C     0.90828   0.83265   0.47645   0.00000  Uiso   1.00
H687   H     0.89769   0.82764   0.38727   0.00000  Uiso   1.00
H688   H     0.76891   0.84093   0.11298   0.00000  Uiso   1.00
H689   H     0.76841   0.83658   0.38733   0.00000  Uiso   1.00
H690   H     0.89786   0.82786   0.11249   0.00000  Uiso   1.00
C691   C     0.68810   0.80712   0.21738   0.00000  Uiso   1.00
C692   C     0.97862   0.85963   0.28270   0.00000  Uiso   1.00
C693   C     0.97838   0.80915   0.21571   0.00000  Uiso   1.00
C694   C     0.68833   0.85747   0.28447   0.00000  Uiso   1.00
C695   C     0.95728   0.83455   0.24897   0.00000  Uiso   1.00
C696   C     0.70942   0.83211   0.25117   0.00000  Uiso   1.00
C697   C     0.81047   0.69095   0.21989   0.00000  Uiso   1.00
C698   C     0.85620   0.97571   0.28011   0.00000  Uiso   1.00
C699   C     0.85626   0.69196   0.28007   0.00000  Uiso   1.00
C700   C     0.81041   0.97470   0.21993   0.00000  Uiso   1.00
H701   H     0.79226   0.70919   0.19565   0.00000  Uiso   1.00
H702   H     0.87441   0.95747   0.30434   0.00000  Uiso   1.00
H703   H     0.87468   0.71102   0.30414   0.00000  Uiso   1.00
H704   H     0.79199   0.95565   0.19586   0.00000  Uiso   1.00
N705   N     0.83333   0.95069   0.25000   0.00000  Uiso   1.00
N706   N     0.83333   0.71598   0.25000   0.00000  Uiso   1.00
C707   C     0.71814   0.82271   0.45274   0.00000  Uiso   1.00
H708   H     0.72246   0.79620   0.42610   0.00000  Uiso   1.00
H709   H     0.69543   0.80609   0.47521   0.00000  Uiso   1.00
H710   H     0.70584   0.85531   0.43834   0.00000  Uiso   1.00
C711   C     0.94706   0.81341   0.04731   0.00000  Uiso   1.00
H712   H     0.94110   0.78321   0.06960   0.00000  Uiso   1.00
H713   H     0.97145   0.80139   0.02458   0.00000  Uiso   1.00
H714   H     0.95839   0.84384   0.06707   0.00000  Uiso   1.00
C715   C     0.71906   0.85201   0.04816   0.00000  Uiso   1.00
H716   H     0.69442   0.86363   0.02571   0.00000  Uiso   1.00
H717   H     0.70824   0.82130   0.06760   0.00000  Uiso   1.00
H718   H     0.72449   0.88221   0.07087   0.00000  Uiso   1.00
C719   C     0.94799   0.84321   0.45222   0.00000  Uiso   1.00
H720   H     0.97094   0.85935   0.47482   0.00000  Uiso   1.00
H721   H     0.96004   0.81076   0.43689   0.00000  Uiso   1.00
H722   H     0.94354   0.87007   0.42617   0.00000  Uiso   1.00
C723   C     0.71197   0.77847   0.18350   0.00000  Uiso   1.00
H724   H     0.72539   0.74781   0.20031   0.00000  Uiso   1.00
H725   H     0.69388   0.76452   0.15524   0.00000  Uiso   1.00
H726   H     0.73679   0.80016   0.16880   0.00000  Uiso   1.00
C727   C     0.95478   0.88857   0.31637   0.00000  Uiso   1.00
H728   H     0.94149   0.91918   0.29936   0.00000  Uiso   1.00
H729   H     0.92986   0.86708   0.33110   0.00000  Uiso   1.00
H730   H     0.97288   0.90260   0.34458   0.00000  Uiso   1.00
C731   C     0.95565   0.78575   0.17730   0.00000  Uiso   1.00
H732   H     0.92241   0.79202   0.17671   0.00000  Uiso   1.00
H733   H     0.96740   0.79993   0.14537   0.00000  Uiso   1.00
H734   H     0.96002   0.74730   0.17840   0.00000  Uiso   1.00
C735   C     0.71110   0.88082   0.32291   0.00000  Uiso   1.00
H736   H     0.74431   0.87434   0.32354   0.00000  Uiso   1.00
H737   H     0.70693   0.91930   0.32169   0.00000  Uiso   1.00
H738   H     0.69930   0.86687   0.35494   0.00000  Uiso   1.00
O739   O     0.10655   0.20625   0.75000   0.00000  Uiso   1.00
O740   O     0.22679   0.12709   0.75001   0.00000  Uiso   1.00
O741   O     0.22679   0.20625   0.75001   0.00000  Uiso   1.00
O742   O     0.10655   0.12709   0.75000   0.00000  Uiso   1.00
C743   C     0.08747   0.16631   0.75049   0.00000  Uiso   1.00
C744   C     0.24588   0.16702   0.74959   0.00000  Uiso   1.00
O745   O     0.16666   0.20627   0.68513   0.00000  Uiso   1.00
O746   O     0.16668   0.12707   0.81487   0.00000  Uiso   1.00
O747   O     0.16668   0.20627   0.81487   0.00000  Uiso   1.00
O748   O     0.16666   0.12707   0.68513   0.00000  Uiso   1.00
C749   C     0.16666   0.16661   0.66446   0.00000  Uiso   1.00
C750   C     0.16655   0.16672   0.83553   0.00000  Uiso   1.00
Cu751  Cu    0.16667   0.21355   0.75000   0.00000  Uiso   1.00
Cu752  Cu    0.16667   0.11978   0.75000   0.00000  Uiso   1.00
C753   C     0.20327   0.16461   0.90645   0.00000  Uiso   1.00
C754   C     0.12992   0.17119   0.59358   0.00000  Uiso   1.00
C755   C     0.16645   0.16670   0.88368   0.00000  Uiso   1.00
C756   C     0.16661   0.16658   0.61628   0.00000  Uiso   1.00
C757   C     0.12955   0.16781   0.90655   0.00000  Uiso   1.00
C758   C     0.20330   0.16268   0.59334   0.00000  Uiso   1.00
C759   C     0.12876   0.16674   0.95324   0.00000  Uiso   1.00
C760   C     0.20402   0.16260   0.54665   0.00000  Uiso   1.00
C761   C     0.16643   0.16644   0.97663   0.00000  Uiso   1.00
C762   C     0.16648   0.16657   0.52334   0.00000  Uiso   1.00
C763   C     0.20407   0.16589   0.95310   0.00000  Uiso   1.00
C764   C     0.12902   0.17075   0.54688   0.00000  Uiso   1.00
C765   C     0.09125   0.16660   0.97683   0.00000  Uiso   1.00
C766   C     0.24141   0.15934   0.52304   0.00000  Uiso   1.00
C767   C     0.09152   0.17358   0.52348   0.00000  Uiso   1.00
C768   C     0.24161   0.16599   0.97645   0.00000  Uiso   1.00
H769   H     0.23103   0.16097   0.88727   0.00000  Uiso   1.00
H770   H     0.10225   0.17426   0.61298   0.00000  Uiso   1.00
H771   H     0.10174   0.16991   0.88733   0.00000  Uiso   1.00
H772   H     0.23119   0.16119   0.61249   0.00000  Uiso   1.00
C773   C     0.02143   0.14045   0.71738   0.00000  Uiso   1.00
C774   C     0.31195   0.19296   0.78270   0.00000  Uiso   1.00
C775   C     0.31171   0.14248   0.71571   0.00000  Uiso   1.00
C776   C     0.02167   0.19080   0.78447   0.00000  Uiso   1.00
C777   C     0.29061   0.16789   0.74897   0.00000  Uiso   1.00
C778   C     0.04275   0.16544   0.75117   0.00000  Uiso   1.00
C779   C     0.14380   0.02429   0.71989   0.00000  Uiso   1.00
C780   C     0.18954   0.30904   0.78011   0.00000  Uiso   1.00
C781   C     0.18959   0.02530   0.78007   0.00000  Uiso   1.00
C782   C     0.14374   0.30804   0.71993   0.00000  Uiso   1.00
H783   H     0.12559   0.04252   0.69565   0.00000  Uiso   1.00
H784   H     0.20775   0.29081   0.80434   0.00000  Uiso   1.00
H785   H     0.20801   0.04435   0.80414   0.00000  Uiso   1.00
H786   H     0.12532   0.28898   0.69586   0.00000  Uiso   1.00
N787   N     0.16667   0.28402   0.75000   0.00000  Uiso   1.00
N788   N     0.16667   0.04931   0.75000   0.00000  Uiso   1.00
C789   C     0.05147   0.15605   0.95274   0.00000  Uiso   1.00
H790   H     0.05579   0.12953   0.92610   0.00000  Uiso   1.00
H791   H     0.02876   0.13942   0.97521   0.00000  Uiso   1.00
H792   H     0.03917   0.18865   0.93834   0.00000  Uiso   1.00
C793   C     0.28039   0.14675   0.54731   0.00000  Uiso   1.00
H794   H     0.27443   0.11655   0.56960   0.00000  Uiso   1.00
H795   H     0.30478   0.13473   0.52458   0.00000  Uiso   1.00
H796   H     0.29172   0.17717   0.56707   0.00000  Uiso   1.00
C797   C     0.05239   0.18534   0.54816   0.00000  Uiso   1.00
H798   H     0.02776   0.19696   0.52571   0.00000  Uiso   1.00
H799   H     0.04157   0.15463   0.56760   0.00000  Uiso   1.00
H800   H     0.05783   0.21555   0.57087   0.00000  Uiso   1.00
C801   C     0.28132   0.17654   0.95222   0.00000  Uiso   1.00
H802   H     0.30428   0.19268   0.97482   0.00000  Uiso   1.00
H803   H     0.29337   0.14409   0.93689   0.00000  Uiso   1.00
H804   H     0.27687   0.20341   0.92617   0.00000  Uiso   1.00
C805   C     0.04531   0.11180   0.68350   0.00000  Uiso   1.00
H806   H     0.05873   0.08115   0.70031   0.00000  Uiso   1.00
H807   H     0.02722   0.09786   0.65524   0.00000  Uiso   1.00
H808   H     0.07012   0.13349   0.66880   0.00000  Uiso   1.00
C809   C     0.28811   0.22190   0.81637   0.00000  Uiso   1.00
H810   H     0.27482   0.25251   0.79936   0.00000  Uiso   1.00
H811   H     0.26320   0.20041   0.83110   0.00000  Uiso   1.00
H812   H     0.30622   0.23594   0.84458   0.00000  Uiso   1.00
C813   C     0.28899   0.11909   0.67730   0.00000  Uiso   1.00
H814   H     0.25575   0.12535   0.67671   0.00000  Uiso   1.00
H815   H     0.30073   0.13326   0.64537   0.00000  Uiso   1.00
H816   H     0.29335   0.08063   0.67840   0.00000  Uiso   1.00
C817   C     0.04443   0.21415   0.82291   0.00000  Uiso   1.00
H818   H     0.07765   0.20768   0.82354   0.00000  Uiso   1.00
H819   H     0.04027   0.25263   0.82169   0.00000  Uiso   1.00
H820   H     0.03264   0.20020   0.85494   0.00000  Uiso   1.00
O821   O     0.43988   0.20625   0.75000   0.00000  Uiso   1.00
O822   O     0.56012   0.12709   0.75001   0.00000  Uiso   1.00
O823   O     0.56012   0.20625   0.75001   0.00000  Uiso   1.00
O824   O     0.43988   0.12709   0.75000   0.00000  Uiso   1.00
C825   C     0.42080   0.16631   0.75049   0.00000  Uiso   1.00
C826   C     0.57921   0.16702   0.74959   0.00000  Uiso   1.00
O827   O     0.49999   0.20627   0.68513   0.00000  Uiso   1.00
O828   O     0.50001   0.12707   0.81487   0.00000  Uiso   1.00
O829   O     0.50001   0.20627   0.81487   0.00000  Uiso   1.00
O830   O     0.49999   0.12707   0.68513   0.00000  Uiso   1.00
C831   C     0.49999   0.16661   0.66446   0.00000  Uiso   1.00
C832   C     0.49988   0.16672   0.83553   0.00000  Uiso   1.00
Cu833  Cu    0.50000   0.21355   0.75000   0.00000  Uiso   1.00
Cu834  Cu    0.50000   0.11978   0.75000   0.00000  Uiso   1.00
C835   C     0.53660   0.16461   0.90645   0.00000  Uiso   1.00
C836   C     0.46325   0.17119   0.59358   0.00000  Uiso   1.00
C837   C     0.49979   0.16670   0.88368   0.00000  Uiso   1.00
C838   C     0.49994   0.16658   0.61628   0.00000  Uiso   1.00
C839   C     0.46289   0.16781   0.90655   0.00000  Uiso   1.00
C840   C     0.53664   0.16268   0.59334   0.00000  Uiso   1.00
C841   C     0.46209   0.16674   0.95324   0.00000  Uiso   1.00
C842   C     0.53735   0.16260   0.54665   0.00000  Uiso   1.00
C843   C     0.49976   0.16644   0.97663   0.00000  Uiso   1.00
C844   C     0.49981   0.16657   0.52334   0.00000  Uiso   1.00
C845   C     0.53740   0.16589   0.95310   0.00000  Uiso   1.00
C846   C     0.46235   0.17075   0.54688   0.00000  Uiso   1.00
C847   C     0.42459   0.16660   0.97683   0.00000  Uiso   1.00
C848   C     0.57475   0.15934   0.52304   0.00000  Uiso   1.00
C849   C     0.42485   0.17358   0.52348   0.00000  Uiso   1.00
C850   C     0.57494   0.16599   0.97645   0.00000  Uiso   1.00
H851   H     0.56436   0.16097   0.88727   0.00000  Uiso   1.00
H852   H     0.43558   0.17426   0.61298   0.00000  Uiso   1.00
H853   H     0.43508   0.16991   0.88733   0.00000  Uiso   1.00
H854   H     0.56452   0.16119   0.61249   0.00000  Uiso   1.00
C855   C     0.35476   0.14045   0.71738   0.00000  Uiso   1.00
C856   C     0.64528   0.19296   0.78270   0.00000  Uiso   1.00
C857   C     0.64505   0.14248   0.71571   0.00000  Uiso   1.00
C858   C     0.35500   0.19080   0.78447   0.00000  Uiso   1.00
C859   C     0.62394   0.16789   0.74897   0.00000  Uiso   1.00
C860   C     0.37609   0.16544   0.75117   0.00000  Uiso   1.00
C861   C     0.47713   0.02429   0.71989   0.00000  Uiso   1.00
C862   C     0.52287   0.30904   0.78011   0.00000  Uiso   1.00
C863   C     0.52293   0.02530   0.78007   0.00000  Uiso   1.00
C864   C     0.47708   0.30804   0.71993   0.00000  Uiso   1.00
H865   H     0.45893   0.04252   0.69565   0.00000  Uiso   1.00
H866   H     0.54108   0.29081   0.80434   0.00000  Uiso   1.00
H867   H     0.54135   0.04435   0.80414   0.00000  Uiso   1.00
H868   H     0.45866   0.28898   0.69586   0.00000  Uiso   1.00
N869   N     0.50000   0.28402   0.75000   0.00000  Uiso   1.00
N870   N     0.50000   0.04931   0.75000   0.00000  Uiso   1.00
C871   C     0.38480   0.15605   0.95274   0.00000  Uiso   1.00
H872   H     0.38912   0.12953   0.92610   0.00000  Uiso   1.00
H873   H     0.36209   0.13942   0.97521   0.00000  Uiso   1.00
H874   H     0.37250   0.18865   0.93834   0.00000  Uiso   1.00
C875   C     0.61372   0.14675   0.54731   0.00000  Uiso   1.00
H876   H     0.60777   0.11655   0.56960   0.00000  Uiso   1.00
H877   H     0.63812   0.13473   0.52458   0.00000  Uiso   1.00
H878   H     0.62506   0.17717   0.56707   0.00000  Uiso   1.00
C879   C     0.38573   0.18534   0.54816   0.00000  Uiso   1.00
H880   H     0.36109   0.19696   0.52571   0.00000  Uiso   1.00
H881   H     0.37491   0.15463   0.56760   0.00000  Uiso   1.00
H882   H     0.39116   0.21555   0.57087   0.00000  Uiso   1.00
C883   C     0.61466   0.17654   0.95222   0.00000  Uiso   1.00
H884   H     0.63761   0.19268   0.97482   0.00000  Uiso   1.00
H885   H     0.62670   0.14409   0.93689   0.00000  Uiso   1.00
H886   H     0.61021   0.20341   0.92617   0.00000  Uiso   1.00
C887   C     0.37864   0.11180   0.68350   0.00000  Uiso   1.00
H888   H     0.39206   0.08115   0.70031   0.00000  Uiso   1.00
H889   H     0.36055   0.09786   0.65524   0.00000  Uiso   1.00
H890   H     0.40346   0.13349   0.66880   0.00000  Uiso   1.00
C891   C     0.62145   0.22190   0.81637   0.00000  Uiso   1.00
H892   H     0.60816   0.25251   0.79936   0.00000  Uiso   1.00
H893   H     0.59653   0.20041   0.83110   0.00000  Uiso   1.00
H894   H     0.63955   0.23594   0.84458   0.00000  Uiso   1.00
C895   C     0.62232   0.11909   0.67730   0.00000  Uiso   1.00
H896   H     0.58908   0.12535   0.67671   0.00000  Uiso   1.00
H897   H     0.63407   0.13326   0.64537   0.00000  Uiso   1.00
H898   H     0.62668   0.08063   0.67840   0.00000  Uiso   1.00
C899   C     0.37777   0.21415   0.82291   0.00000  Uiso   1.00
H900   H     0.41098   0.20768   0.82354   0.00000  Uiso   1.00
H901   H     0.37360   0.25263   0.82169   0.00000  Uiso   1.00
H902   H     0.36597   0.20020   0.85494   0.00000  Uiso   1.00
O903   O     0.77321   0.20625   0.75000   0.00000  Uiso   1.00
O904   O     0.89345   0.12709   0.75001   0.00000  Uiso   1.00
O905   O     0.89345   0.20625   0.75001   0.00000  Uiso   1.00
O906   O     0.77321   0.12709   0.75000   0.00000  Uiso   1.00
C907   C     0.75413   0.16631   0.75049   0.00000  Uiso   1.00
C908   C     0.91255   0.16702   0.74959   0.00000  Uiso   1.00
O909   O     0.83332   0.20627   0.68513   0.00000  Uiso   1.00
O910   O     0.83334   0.12707   0.81487   0.00000  Uiso   1.00
O911   O     0.83334   0.20627   0.81487   0.00000  Uiso   1.00
O912   O     0.83332   0.12707   0.68513   0.00000  Uiso   1.00
C913   C     0.83333   0.16661   0.66446   0.00000  Uiso   1.00
C914   C     0.83321   0.16672   0.83553   0.00000  Uiso   1.00
Cu915  Cu    0.83333   0.21355   0.75000   0.00000  Uiso   1.00
Cu916  Cu    0.83333   0.11978   0.75000   0.00000  Uiso   1.00
C917   C     0.86993   0.16461   0.90645   0.00000  Uiso   1.00
C918   C     0.79659   0.17119   0.59358   0.00000  Uiso   1.00
C919   C     0.83312   0.16670   0.88368   0.00000  Uiso   1.00
C920   C     0.83328   0.16658   0.61628   0.00000  Uiso   1.00
C921   C     0.79622   0.16781   0.90655   0.00000  Uiso   1.00
C922   C     0.86997   0.16268   0.59334   0.00000  Uiso   1.00
C923   C     0.79543   0.16674   0.95324   0.00000  Uiso   1.00
C924   C     0.87068   0.16260   0.54665   0.00000  Uiso   1.00
C925   C     0.83310   0.16644   0.97663   0.00000  Uiso   1.00
C926   C     0.83315   0.16657   0.52334   0.00000  Uiso   1.00
C927   C     0.87073   0.16589   0.95310   0.00000  Uiso   1.00
C928   C     0.79568   0.17075   0.54688   0.00000  Uiso   1.00
C929   C     0.75792   0.16660   0.97683   0.00000  Uiso   1.00
C930   C     0.90808   0.15934   0.52304   0.00000  Uiso   1.00
C931   C     0.75819   0.17358   0.52348   0.00000  Uiso   1.00
C932   C     0.90828   0.16599   0.97645   0.00000  Uiso   1.00
H933   H     0.89769   0.16097   0.88727   0.00000  Uiso   1.00
H934   H     0.76891   0.17426   0.61298   0.00000  Uiso   1.00
H935   H     0.76841   0.16991   0.88733   0.00000  Uiso   1.00
H936   H     0.89786   0.16119   0.61249   0.00000  Uiso   1.00
C937   C     0.68810   0.14045   0.71738   0.00000  Uiso   1.00
C938   C     0.97862   0.19296   0.78270   0.00000  Uiso   1.00
C939   C     0.97838   0.14248   0.71571   0.00000  Uiso   1.00
C940   C     0.68833   0.19080   0.78447   0.00000  Uiso   1.00
C941   C     0.95728   0.16789   0.74897   0.00000  Uiso   1.00
C942   C     0.70942   0.16544   0.75117   0.00000  Uiso   1.00
C943   C     0.81047   0.02429   0.71989   0.00000  Uiso   1.00
C944   C     0.85620   0.30904   0.78011   0.00000  Uiso   1.00
C945   C     0.85626   0.02530   0.78007   0.00000  Uiso   1.00
C946   C     0.81041   0.30804   0.71993   0.00000  Uiso   1.00
H947   H     0.79226   0.04252   0.69565   0.00000  Uiso   1.00
H948   H     0.87441   0.29081   0.80434   0.00000  Uiso   1.00
H949   H     0.87468   0.04435   0.80414   0.00000  Uiso   1.00
H950   H     0.79199   0.28898   0.69586   0.00000  Uiso   1.00
N951   N     0.83333   0.28402   0.75000   0.00000  Uiso   1.00
N952   N     0.83333   0.04931   0.75000   0.00000  Uiso   1.00
C953   C     0.71814   0.15605   0.95274   0.00000  Uiso   1.00
H954   H     0.72246   0.12953   0.92610   0.00000  Uiso   1.00
H955   H     0.69543   0.13942   0.97521   0.00000  Uiso   1.00
H956   H     0.70584   0.18865   0.93834   0.00000  Uiso   1.00
C957   C     0.94706   0.14675   0.54731   0.00000  Uiso   1.00
H958   H     0.94110   0.11655   0.56960   0.00000  Uiso   1.00
H959   H     0.97145   0.13473   0.52458   0.00000  Uiso   1.00
H960   H     0.95839   0.17717   0.56707   0.00000  Uiso   1.00
C961   C     0.71906   0.18534   0.54816   0.00000  Uiso   1.00
H962   H     0.69442   0.19696   0.52571   0.00000  Uiso   1.00
H963   H     0.70824   0.15463   0.56760   0.00000  Uiso   1.00
H964   H     0.72449   0.21555   0.57087   0.00000  Uiso   1.00
C965   C     0.94799   0.17654   0.95222   0.00000  Uiso   1.00
H966   H     0.97094   0.19268   0.97482   0.00000  Uiso   1.00
H967   H     0.96004   0.14409   0.93689   0.00000  Uiso   1.00
H968   H     0.94354   0.20341   0.92617   0.00000  Uiso   1.00
C969   C     0.71197   0.11180   0.68350   0.00000  Uiso   1.00
H970   H     0.72539   0.08115   0.70031   0.00000  Uiso   1.00
H971   H     0.69388   0.09786   0.65524   0.00000  Uiso   1.00
H972   H     0.73679   0.13349   0.66880   0.00000  Uiso   1.00
C973   C     0.95478   0.22190   0.81637   0.00000  Uiso   1.00
H974   H     0.94149   0.25251   0.79936   0.00000  Uiso   1.00
H975   H     0.92986   0.20041   0.83110   0.00000  Uiso   1.00
H976   H     0.97288   0.23594   0.84458   0.00000  Uiso   1.00
C977   C     0.95565   0.11909   0.67730   0.00000  Uiso   1.00
H978   H     0.92241   0.12535   0.67671   0.00000  Uiso   1.00
H979   H     0.96740   0.13326   0.64537   0.00000  Uiso   1.00
H980   H     0.96002   0.08063   0.67840   0.00000  Uiso   1.00
C981   C     0.71110   0.21415   0.82291   0.00000  Uiso   1.00
H982   H     0.74431   0.20768   0.82354   0.00000  Uiso   1.00
H983   H     0.70693   0.25263   0.82169   0.00000  Uiso   1.00
H984   H     0.69930   0.20020   0.85494   0.00000  Uiso   1.00
O985   O     0.10655   0.53958   0.75000   0.00000  Uiso   1.00
O986   O     0.22679   0.46042   0.75001   0.00000  Uiso   1.00
O987   O     0.22679   0.53958   0.75001   0.00000  Uiso   1.00
O988   O     0.10655   0.46042   0.75000   0.00000  Uiso   1.00
C989   C     0.08747   0.49965   0.75049   0.00000  Uiso   1.00
C990   C     0.24588   0.50036   0.74959   0.00000  Uiso   1.00
O991   O     0.16666   0.53960   0.68513   0.00000  Uiso   1.00
O992   O     0.16668   0.46040   0.81487   0.00000  Uiso   1.00
O993   O     0.16668   0.53960   0.81487   0.00000  Uiso   1.00
O994   O     0.16666   0.46040   0.68513   0.00000  Uiso   1.00
C995   C     0.16666   0.49994   0.66446   0.00000  Uiso   1.00
C996   C     0.16655   0.50005   0.83553   0.00000  Uiso   1.00
Cu997  Cu    0.16667   0.54689   0.75000   0.00000  Uiso   1.00
Cu998  Cu    0.16667   0.45311   0.75000   0.00000  Uiso   1.00
C999   C     0.20327   0.49794   0.90645   0.00000  Uiso   1.00
C1000  C     0.12992   0.50453   0.59358   0.00000  Uiso   1.00
C1001  C     0.16645   0.50003   0.88368   0.00000  Uiso   1.00
C1002  C     0.16661   0.49992   0.61628   0.00000  Uiso   1.00
C1003  C     0.12955   0.50114   0.90655   0.00000  Uiso   1.00
C1004  C     0.20330   0.49601   0.59334   0.00000  Uiso   1.00
C1005  C     0.12876   0.50007   0.95324   0.00000  Uiso   1.00
C1006  C     0.20402   0.49593   0.54665   0.00000  Uiso   1.00
C1007  C     0.16643   0.49977   0.97663   0.00000  Uiso   1.00
C1008  C     0.16648   0.49990   0.52334   0.00000  Uiso   1.00
C1009  C     0.20407   0.49922   0.95310   0.00000  Uiso   1.00
C1010  C     0.12902   0.50408   0.54688   0.00000  Uiso   1.00
C1011  C     0.09125   0.49994   0.97683   0.00000  Uiso   1.00
C1012  C     0.24141   0.49267   0.52304   0.00000  Uiso   1.00
C1013  C     0.09152   0.50691   0.52348   0.00000  Uiso   1.00
C1014  C     0.24161   0.49932   0.97645   0.00000  Uiso   1.00
H1015  H     0.23103   0.49430   0.88727   0.00000  Uiso   1.00
H1016  H     0.10225   0.50760   0.61298   0.00000  Uiso   1.00
H1017  H     0.10174   0.50324   0.88733   0.00000  Uiso   1.00
H1018  H     0.23119   0.49452   0.61249   0.00000  Uiso   1.00
C1019  C     0.02143   0.47378   0.71738   0.00000  Uiso   1.00
C1020  C     0.31195   0.52630   0.78270   0.00000  Uiso   1.00
C1021  C     0.31171   0.47582   0.71571   0.00000  Uiso   1.00
C1022  C     0.02167   0.52414   0.78447   0.00000  Uiso   1.00
C1023  C     0.29061   0.50122   0.74897   0.00000  Uiso   1.00
C1024  C     0.04275   0.49878   0.75117   0.00000  Uiso   1.00
C1025  C     0.14380   0.35762   0.71989   0.00000  Uiso   1.00
C1026  C     0.18954   0.64238   0.78011   0.00000  Uiso   1.00
C1027  C     0.18959   0.35863   0.78007   0.00000  Uiso   1.00
C1028  C     0.14374   0.64137   0.71993   0.00000  Uiso   1.00
H1029  H     0.12559   0.37586   0.69565   0.00000  Uiso   1.00
H1030  H     0.20775   0.62414   0.80434   0.00000  Uiso   1.00
H1031  H     0.20801   0.37768   0.80414   0.00000  Uiso   1.00
H1032  H     0.12532   0.62231   0.69586   0.00000  Uiso   1.00
N1033  N     0.16667   0.61736   0.75000   0.00000  Uiso   1.00
N1034  N     0.16667   0.38264   0.75000   0.00000  Uiso   1.00
C1035  C     0.05147   0.48938   0.95274   0.00000  Uiso   1.00
H1036  H     0.05579   0.46286   0.92610   0.00000  Uiso   1.00
H1037  H     0.02876   0.47275   0.97521   0.00000  Uiso   1.00
H1038  H     0.03917   0.52198   0.93834   0.00000  Uiso   1.00
C1039  C     0.28039   0.48008   0.54731   0.00000  Uiso   1.00
H1040  H     0.27443   0.44988   0.56960   0.00000  Uiso   1.00
H1041  H     0.30478   0.46806   0.52458   0.00000  Uiso   1.00
H1042  H     0.29172   0.51051   0.56707   0.00000  Uiso   1.00
C1043  C     0.05239   0.51868   0.54816   0.00000  Uiso   1.00
H1044  H     0.02776   0.53030   0.52571   0.00000  Uiso   1.00
H1045  H     0.04157   0.48796   0.56760   0.00000  Uiso   1.00
H1046  H     0.05783   0.54888   0.57087   0.00000  Uiso   1.00
C1047  C     0.28132   0.50987   0.95222   0.00000  Uiso   1.00
H1048  H     0.30428   0.52602   0.97482   0.00000  Uiso   1.00
H1049  H     0.29337   0.47743   0.93689   0.00000  Uiso   1.00
H1050  H     0.27687   0.53674   0.92617   0.00000  Uiso   1.00
C1051  C     0.04531   0.44513   0.68350   0.00000  Uiso   1.00
H1052  H     0.05873   0.41448   0.70031   0.00000  Uiso   1.00
H1053  H     0.02722   0.43119   0.65524   0.00000  Uiso   1.00
H1054  H     0.07012   0.46682   0.66880   0.00000  Uiso   1.00
C1055  C     0.28811   0.55524   0.81637   0.00000  Uiso   1.00
H1056  H     0.27482   0.58584   0.79936   0.00000  Uiso   1.00
H1057  H     0.26320   0.53375   0.83110   0.00000  Uiso   1.00
H1058  H     0.30622   0.56927   0.84458   0.00000  Uiso   1.00
C1059  C     0.28899   0.45242   0.67730   0.00000  Uiso   1.00
H1060  H     0.25575   0.45868   0.67671   0.00000  Uiso   1.00
H1061  H     0.30073   0.46660   0.64537   0.00000  Uiso   1.00
H1062  H     0.29335   0.41397   0.67840   0.00000  Uiso   1.00
C1063  C     0.04443   0.54749   0.82291   0.00000  Uiso   1.00
H1064  H     0.07765   0.54101   0.82354   0.00000  Uiso   1.00
H1065  H     0.04027   0.58597   0.82169   0.00000  Uiso   1.00
H1066  H     0.03264   0.53354   0.85494   0.00000  Uiso   1.00
O1067  O     0.43988   0.53958   0.75000   0.00000  Uiso   1.00
O1068  O     0.56012   0.46042   0.75001   0.00000  Uiso   1.00
O1069  O     0.56012   0.53958   0.75001   0.00000  Uiso   1.00
O1070  O     0.43988   0.46042   0.75000   0.00000  Uiso   1.00
C1071  C     0.42080   0.49965   0.75049   0.00000  Uiso   1.00
C1072  C     0.57921   0.50036   0.74959   0.00000  Uiso   1.00
O1073  O     0.49999   0.53960   0.68513   0.00000  Uiso   1.00
O1074  O     0.50001   0.46040   0.81487   0.00000  Uiso   1.00
O1075  O     0.50001   0.53960   0.81487   0.00000  Uiso   1.00
O1076  O     0.49999   0.46040   0.68513   0.00000  Uiso   1.00
C1077  C     0.49999   0.49994   0.66446   0.00000  Uiso   1.00
C1078  C     0.49988   0.50005   0.83553   0.00000  Uiso   1.00
Cu1079 Cu    0.50000   0.54689   0.75000   0.00000  Uiso   1.00
Cu1080 Cu    0.50000   0.45311   0.75000   0.00000  Uiso   1.00
C1081  C     0.53660   0.49794   0.90645   0.00000  Uiso   1.00
C1082  C     0.46325   0.50453   0.59358   0.00000  Uiso   1.00
C1083  C     0.49979   0.50003   0.88368   0.00000  Uiso   1.00
C1084  C     0.49994   0.49992   0.61628   0.00000  Uiso   1.00
C1085  C     0.46289   0.50114   0.90655   0.00000  Uiso   1.00
C1086  C     0.53664   0.49601   0.59334   0.00000  Uiso   1.00
C1087  C     0.46209   0.50007   0.95324   0.00000  Uiso   1.00
C1088  C     0.53735   0.49593   0.54665   0.00000  Uiso   1.00
C1089  C     0.49976   0.49977   0.97663   0.00000  Uiso   1.00
C1090  C     0.49981   0.49990   0.52334   0.00000  Uiso   1.00
C1091  C     0.53740   0.49922   0.95310   0.00000  Uiso   1.00
C1092  C     0.46235   0.50408   0.54688   0.00000  Uiso   1.00
C1093  C     0.42459   0.49994   0.97683   0.00000  Uiso   1.00
C1094  C     0.57475   0.49267   0.52304   0.00000  Uiso   1.00
C1095  C     0.42485   0.50691   0.52348   0.00000  Uiso   1.00
C1096  C     0.57494   0.49932   0.97645   0.00000  Uiso   1.00
H1097  H     0.56436   0.49430   0.88727   0.00000  Uiso   1.00
H1098  H     0.43558   0.50760   0.61298   0.00000  Uiso   1.00
H1099  H     0.43508   0.50324   0.88733   0.00000  Uiso   1.00
H1100  H     0.56452   0.49452   0.61249   0.00000  Uiso   1.00
C1101  C     0.35476   0.47378   0.71738   0.00000  Uiso   1.00
C1102  C     0.64528   0.52630   0.78270   0.00000  Uiso   1.00
C1103  C     0.64505   0.47582   0.71571   0.00000  Uiso   1.00
C1104  C     0.35500   0.52414   0.78447   0.00000  Uiso   1.00
C1105  C     0.62394   0.50122   0.74897   0.00000  Uiso   1.00
C1106  C     0.37609   0.49878   0.75117   0.00000  Uiso   1.00
C1107  C     0.47713   0.35762   0.71989   0.00000  Uiso   1.00
C1108  C     0.52287   0.64238   0.78011   0.00000  Uiso   1.00
C1109  C     0.52293   0.35863   0.78007   0.00000  Uiso   1.00
C1110  C     0.47708   0.64137   0.71993   0.00000  Uiso   1.00
H1111  H     0.45893   0.37586   0.69565   0.00000  Uiso   1.00
H1112  H     0.54108   0.62414   0.80434   0.00000  Uiso   1.00
H1113  H     0.54135   0.37768   0.80414   0.00000  Uiso   1.00
H1114  H     0.45866   0.62231   0.69586   0.00000  Uiso   1.00
N1115  N     0.50000   0.61736   0.75000   0.00000  Uiso   1.00
N1116  N     0.50000   0.38264   0.75000   0.00000  Uiso   1.00
C1117  C     0.38480   0.48938   0.95274   0.00000  Uiso   1.00
H1118  H     0.38912   0.46286   0.92610   0.00000  Uiso   1.00
H1119  H     0.36209   0.47275   0.97521   0.00000  Uiso   1.00
H1120  H     0.37250   0.52198   0.93834   0.00000  Uiso   1.00
C1121  C     0.61372   0.48008   0.54731   0.00000  Uiso   1.00
H1122  H     0.60777   0.44988   0.56960   0.00000  Uiso   1.00
H1123  H     0.63812   0.46806   0.52458   0.00000  Uiso   1.00
H1124  H     0.62506   0.51051   0.56707   0.00000  Uiso   1.00
C1125  C     0.38573   0.51868   0.54816   0.00000  Uiso   1.00
H1126  H     0.36109   0.53030   0.52571   0.00000  Uiso   1.00
H1127  H     0.37491   0.48796   0.56760   0.00000  Uiso   1.00
H1128  H     0.39116   0.54888   0.57087   0.00000  Uiso   1.00
C1129  C     0.61466   0.50987   0.95222   0.00000  Uiso   1.00
H1130  H     0.63761   0.52602   0.97482   0.00000  Uiso   1.00
H1131  H     0.62670   0.47743   0.93689   0.00000  Uiso   1.00
H1132  H     0.61021   0.53674   0.92617   0.00000  Uiso   1.00
C1133  C     0.37864   0.44513   0.68350   0.00000  Uiso   1.00
H1134  H     0.39206   0.41448   0.70031   0.00000  Uiso   1.00
H1135  H     0.36055   0.43119   0.65524   0.00000  Uiso   1.00
H1136  H     0.40346   0.46682   0.66880   0.00000  Uiso   1.00
C1137  C     0.62145   0.55524   0.81637   0.00000  Uiso   1.00
H1138  H     0.60816   0.58584   0.79936   0.00000  Uiso   1.00
H1139  H     0.59653   0.53375   0.83110   0.00000  Uiso   1.00
H1140  H     0.63955   0.56927   0.84458   0.00000  Uiso   1.00
C1141  C     0.62232   0.45242   0.67730   0.00000  Uiso   1.00
H1142  H     0.58908   0.45868   0.67671   0.00000  Uiso   1.00
H1143  H     0.63407   0.46660   0.64537   0.00000  Uiso   1.00
H1144  H     0.62668   0.41397   0.67840   0.00000  Uiso   1.00
C1145  C     0.37777   0.54749   0.82291   0.00000  Uiso   1.00
H1146  H     0.41098   0.54101   0.82354   0.00000  Uiso   1.00
H1147  H     0.37360   0.58597   0.82169   0.00000  Uiso   1.00
H1148  H     0.36597   0.53354   0.85494   0.00000  Uiso   1.00
O1149  O     0.77321   0.53958   0.75000   0.00000  Uiso   1.00
O1150  O     0.89345   0.46042   0.75001   0.00000  Uiso   1.00
O1151  O     0.89345   0.53958   0.75001   0.00000  Uiso   1.00
O1152  O     0.77321   0.46042   0.75000   0.00000  Uiso   1.00
C1153  C     0.75413   0.49965   0.75049   0.00000  Uiso   1.00
C1154  C     0.91255   0.50036   0.74959   0.00000  Uiso   1.00
O1155  O     0.83332   0.53960   0.68513   0.00000  Uiso   1.00
O1156  O     0.83334   0.46040   0.81487   0.00000  Uiso   1.00
O1157  O     0.83334   0.53960   0.81487   0.00000  Uiso   1.00
O1158  O     0.83332   0.46040   0.68513   0.00000  Uiso   1.00
C1159  C     0.83333   0.49994   0.66446   0.00000  Uiso   1.00
C1160  C     0.83321   0.50005   0.83553   0.00000  Uiso   1.00
Cu1161 Cu    0.83333   0.54689   0.75000   0.00000  Uiso   1.00
Cu1162 Cu    0.83333   0.45311   0.75000   0.00000  Uiso   1.00
C1163  C     0.86993   0.49794   0.90645   0.00000  Uiso   1.00
C1164  C     0.79659   0.50453   0.59358   0.00000  Uiso   1.00
C1165  C     0.83312   0.50003   0.88368   0.00000  Uiso   1.00
C1166  C     0.83328   0.49992   0.61628   0.00000  Uiso   1.00
C1167  C     0.79622   0.50114   0.90655   0.00000  Uiso   1.00
C1168  C     0.86997   0.49601   0.59334   0.00000  Uiso   1.00
C1169  C     0.79543   0.50007   0.95324   0.00000  Uiso   1.00
C1170  C     0.87068   0.49593   0.54665   0.00000  Uiso   1.00
C1171  C     0.83310   0.49977   0.97663   0.00000  Uiso   1.00
C1172  C     0.83315   0.49990   0.52334   0.00000  Uiso   1.00
C1173  C     0.87073   0.49922   0.95310   0.00000  Uiso   1.00
C1174  C     0.79568   0.50408   0.54688   0.00000  Uiso   1.00
C1175  C     0.75792   0.49994   0.97683   0.00000  Uiso   1.00
C1176  C     0.90808   0.49267   0.52304   0.00000  Uiso   1.00
C1177  C     0.75819   0.50691   0.52348   0.00000  Uiso   1.00
C1178  C     0.90828   0.49932   0.97645   0.00000  Uiso   1.00
H1179  H     0.89769   0.49430   0.88727   0.00000  Uiso   1.00
H1180  H     0.76891   0.50760   0.61298   0.00000  Uiso   1.00
H1181  H     0.76841   0.50324   0.88733   0.00000  Uiso   1.00
H1182  H     0.89786   0.49452   0.61249   0.00000  Uiso   1.00
C1183  C     0.68810   0.47378   0.71738   0.00000  Uiso   1.00
C1184  C     0.97862   0.52630   0.78270   0.00000  Uiso   1.00
C1185  C     0.97838   0.47582   0.71571   0.00000  Uiso   1.00
C1186  C     0.68833   0.52414   0.78447   0.00000  Uiso   1.00
C1187  C     0.95728   0.50122   0.74897   0.00000  Uiso   1.00
C1188  C     0.70942   0.49878   0.75117   0.00000  Uiso   1.00
C1189  C     0.81047   0.35762   0.71989   0.00000  Uiso   1.00
C1190  C     0.85620   0.64238   0.78011   0.00000  Uiso   1.00
C1191  C     0.85626   0.35863   0.78007   0.00000  Uiso   1.00
C1192  C     0.81041   0.64137   0.71993   0.00000  Uiso   1.00
H1193  H     0.79226   0.37586   0.69565   0.00000  Uiso   1.00
H1194  H     0.87441   0.62414   0.80434   0.00000  Uiso   1.00
H1195  H     0.87468   0.37768   0.80414   0.00000  Uiso   1.00
H1196  H     0.79199   0.62231   0.69586   0.00000  Uiso   1.00
N1197  N     0.83333   0.61736   0.75000   0.00000  Uiso   1.00
N1198  N     0.83333   0.38264   0.75000   0.00000  Uiso   1.00
C1199  C     0.71814   0.48938   0.95274   0.00000  Uiso   1.00
H1200  H     0.72246   0.46286   0.92610   0.00000  Uiso   1.00
H1201  H     0.69543   0.47275   0.97521   0.00000  Uiso   1.00
H1202  H     0.70584   0.52198   0.93834   0.00000  Uiso   1.00
C1203  C     0.94706   0.48008   0.54731   0.00000  Uiso   1.00
H1204  H     0.94110   0.44988   0.56960   0.00000  Uiso   1.00
H1205  H     0.97145   0.46806   0.52458   0.00000  Uiso   1.00
H1206  H     0.95839   0.51051   0.56707   0.00000  Uiso   1.00
C1207  C     0.71906   0.51868   0.54816   0.00000  Uiso   1.00
H1208  H     0.69442   0.53030   0.52571   0.00000  Uiso   1.00
H1209  H     0.70824   0.48796   0.56760   0.00000  Uiso   1.00
H1210  H     0.72449   0.54888   0.57087   0.00000  Uiso   1.00
C1211  C     0.94799   0.50987   0.95222   0.00000  Uiso   1.00
H1212  H     0.97094   0.52602   0.97482   0.00000  Uiso   1.00
H1213  H     0.96004   0.47743   0.93689   0.00000  Uiso   1.00
H1214  H     0.94354   0.53674   0.92617   0.00000  Uiso   1.00
C1215  C     0.71197   0.44513   0.68350   0.00000  Uiso   1.00
H1216  H     0.72539   0.41448   0.70031   0.00000  Uiso   1.00
H1217  H     0.69388   0.43119   0.65524   0.00000  Uiso   1.00
H1218  H     0.73679   0.46682   0.66880   0.00000  Uiso   1.00
C1219  C     0.95478   0.55524   0.81637   0.00000  Uiso   1.00
H1220  H     0.94149   0.58584   0.79936   0.00000  Uiso   1.00
H1221  H     0.92986   0.53375   0.83110   0.00000  Uiso   1.00
H1222  H     0.97288   0.56927   0.84458   0.00000  Uiso   1.00
C1223  C     0.95565   0.45242   0.67730   0.00000  Uiso   1.00
H1224  H     0.92241   0.45868   0.67671   0.00000  Uiso   1.00
H1225  H     0.96740   0.46660   0.64537   0.00000  Uiso   1.00
H1226  H     0.96002   0.41397   0.67840   0.00000  Uiso   1.00
C1227  C     0.71110   0.54749   0.82291   0.00000  Uiso   1.00
H1228  H     0.74431   0.54101   0.82354   0.00000  Uiso   1.00
H1229  H     0.70693   0.58597   0.82169   0.00000  Uiso   1.00
H1230  H     0.69930   0.53354   0.85494   0.00000  Uiso   1.00
O1231  O     0.10655   0.87291   0.75000   0.00000  Uiso   1.00
O1232  O     0.22679   0.79375   0.75001   0.00000  Uiso   1.00
O1233  O     0.22679   0.87291   0.75001   0.00000  Uiso   1.00
O1234  O     0.10655   0.79375   0.75000   0.00000  Uiso   1.00
C1235  C     0.08747   0.83298   0.75049   0.00000  Uiso   1.00
C1236  C     0.24588   0.83369   0.74959   0.00000  Uiso   1.00
O1237  O     0.16666   0.87293   0.68513   0.00000  Uiso   1.00
O1238  O     0.16668   0.79373   0.81487   0.00000  Uiso   1.00
O1239  O     0.16668   0.87293   0.81487   0.00000  Uiso   1.00
O1240  O     0.16666   0.79373   0.68513   0.00000  Uiso   1.00
C1241  C     0.16666   0.83327   0.66446   0.00000  Uiso   1.00
C1242  C     0.16655   0.83339   0.83553   0.00000  Uiso   1.00
Cu1243 Cu    0.16667   0.88022   0.75000   0.00000  Uiso   1.00
Cu1244 Cu    0.16667   0.78645   0.75000   0.00000  Uiso   1.00
C1245  C     0.20327   0.83127   0.90645   0.00000  Uiso   1.00
C1246  C     0.12992   0.83786   0.59358   0.00000  Uiso   1.00
C1247  C     0.16645   0.83337   0.88368   0.00000  Uiso   1.00
C1248  C     0.16661   0.83325   0.61628   0.00000  Uiso   1.00
C1249  C     0.12955   0.83447   0.90655   0.00000  Uiso   1.00
C1250  C     0.20330   0.82935   0.59334   0.00000  Uiso   1.00
C1251  C     0.12876   0.83341   0.95324   0.00000  Uiso   1.00
C1252  C     0.20402   0.82926   0.54665   0.00000  Uiso   1.00
C1253  C     0.16643   0.83310   0.97663   0.00000  Uiso   1.00
C1254  C     0.16648   0.83323   0.52334   0.00000  Uiso   1.00
C1255  C     0.20407   0.83255   0.95310   0.00000  Uiso   1.00
C1256  C     0.12902   0.83742   0.54688   0.00000  Uiso   1.00
C1257  C     0.09125   0.83327   0.97683   0.00000  Uiso   1.00
C1258  C     0.24141   0.82601   0.52304   0.00000  Uiso   1.00
C1259  C     0.09152   0.84024   0.52348   0.00000  Uiso   1.00
C1260  C     0.24161   0.83265   0.97645   0.00000  Uiso   1.00
H1261  H     0.23103   0.82764   0.88727   0.00000  Uiso   1.00
H1262  H     0.10225   0.84093   0.61298   0.00000  Uiso   1.00
H1263  H     0.10174   0.83658   0.88733   0.00000  Uiso   1.00
H1264  H     0.23119   0.82786   0.61249   0.00000  Uiso   1.00
C1265  C     0.02143   0.80712   0.71738   0.00000  Uiso   1.00
C1266  C     0.31195   0.85963   0.78270   0.00000  Uiso   1.00
C1267  C     0.31171   0.80915   0.71571   0.00000  Uiso   1.00
C1268  C     0.02167   0.85747   0.78447   0.00000  Uiso   1.00
C1269  C     0.29061   0.83455   0.74897   0.00000  Uiso   1.00
C1270  C     0.04275   0.83211   0.75117   0.00000  Uiso   1.00
C1271  C     0.14380   0.69095   0.71989   0.00000  Uiso   1.00
C1272  C     0.18954   0.97571   0.78011   0.00000  Uiso   1.00
C1273  C     0.18959   0.69196   0.78007   0.00000  Uiso   1.00
C1274  C     0.14374   0.97470   0.71993   0.00000  Uiso   1.00
H1275  H     0.12559   0.70919   0.69565   0.00000  Uiso   1.00
H1276  H     0.20775   0.95747   0.80434   0.00000  Uiso   1.00
H1277  H     0.20801   0.71102   0.80414   0.00000  Uiso   1.00
H1278  H     0.12532   0.95565   0.69586   0.00000  Uiso   1.00
N1279  N     0.16667   0.95069   0.75000   0.00000  Uiso   1.00
N1280  N     0.16667   0.71598   0.75000   0.00000  Uiso   1.00
C1281  C     0.05147   0.82271   0.95274   0.00000  Uiso   1.00
H1282  H     0.05579   0.79620   0.92610   0.00000  Uiso   1.00
H1283  H     0.02876   0.80609   0.97521   0.00000  Uiso   1.00
H1284  H     0.03917   0.85531   0.93834   0.00000  Uiso   1.00
C1285  C     0.28039   0.81341   0.54731   0.00000  Uiso   1.00
H1286  H     0.27443   0.78321   0.56960   0.00000  Uiso   1.00
H1287  H     0.30478   0.80139   0.52458   0.00000  Uiso   1.00
H1288  H     0.29172   0.84384   0.56707   0.00000  Uiso   1.00
C1289  C     0.05239   0.85201   0.54816   0.00000  Uiso   1.00
H1290  H     0.02776   0.86363   0.52571   0.00000  Uiso   1.00
H1291  H     0.04157   0.82130   0.56760   0.00000  Uiso   1.00
H1292  H     0.05783   0.88221   0.57087   0.00000  Uiso   1.00
C1293  C     0.28132   0.84321   0.95222   0.00000  Uiso   1.00
H1294  H     0.30428   0.85935   0.97482   0.00000  Uiso   1.00
H1295  H     0.29337   0.81076   0.93689   0.00000  Uiso   1.00
H1296  H     0.27687   0.87007   0.92617   0.00000  Uiso   1.00
C1297  C     0.04531   0.77847   0.68350   0.00000  Uiso   1.00
H1298  H     0.05873   0.74781   0.70031   0.00000  Uiso   1.00
H1299  H     0.02722   0.76452   0.65524   0.00000  Uiso   1.00
H1300  H     0.07012   0.80016   0.66880   0.00000  Uiso   1.00
C1301  C     0.28811   0.88857   0.81637   0.00000  Uiso   1.00
H1302  H     0.27482   0.91918   0.79936   0.00000  Uiso   1.00
H1303  H     0.26320   0.86708   0.83110   0.00000  Uiso   1.00
H1304  H     0.30622   0.90260   0.84458   0.00000  Uiso   1.00
C1305  C     0.28899   0.78575   0.67730   0.00000  Uiso   1.00
H1306  H     0.25575   0.79202   0.67671   0.00000  Uiso   1.00
H1307  H     0.30073   0.79993   0.64537   0.00000  Uiso   1.00
H1308  H     0.29335   0.74730   0.67840   0.00000  Uiso   1.00
C1309  C     0.04443   0.88082   0.82291   0.00000  Uiso   1.00
H1310  H     0.07765   0.87434   0.82354   0.00000  Uiso   1.00
H1311  H     0.04027   0.91930   0.82169   0.00000  Uiso   1.00
H1312  H     0.03264   0.86687   0.85494   0.00000  Uiso   1.00
O1313  O     0.43988   0.87291   0.75000   0.00000  Uiso   1.00
O1314  O     0.56012   0.79375   0.75001   0.00000  Uiso   1.00
O1315  O     0.56012   0.87291   0.75001   0.00000  Uiso   1.00
O1316  O     0.43988   0.79375   0.75000   0.00000  Uiso   1.00
C1317  C     0.42080   0.83298   0.75049   0.00000  Uiso   1.00
C1318  C     0.57921   0.83369   0.74959   0.00000  Uiso   1.00
O1319  O     0.49999   0.87293   0.68513   0.00000  Uiso   1.00
O1320  O     0.50001   0.79373   0.81487   0.00000  Uiso   1.00
O1321  O     0.50001   0.87293   0.81487   0.00000  Uiso   1.00
O1322  O     0.49999   0.79373   0.68513   0.00000  Uiso   1.00
C1323  C     0.49999   0.83327   0.66446   0.00000  Uiso   1.00
C1324  C     0.49988   0.83339   0.83553   0.00000  Uiso   1.00
Cu1325 Cu    0.50000   0.88022   0.75000   0.00000  Uiso   1.00
Cu1326 Cu    0.50000   0.78645   0.75000   0.00000  Uiso   1.00
C1327  C     0.53660   0.83127   0.90645   0.00000  Uiso   1.00
C1328  C     0.46325   0.83786   0.59358   0.00000  Uiso   1.00
C1329  C     0.49979   0.83337   0.88368   0.00000  Uiso   1.00
C1330  C     0.49994   0.83325   0.61628   0.00000  Uiso   1.00
C1331  C     0.46289   0.83447   0.90655   0.00000  Uiso   1.00
C1332  C     0.53664   0.82935   0.59334   0.00000  Uiso   1.00
C1333  C     0.46209   0.83341   0.95324   0.00000  Uiso   1.00
C1334  C     0.53735   0.82926   0.54665   0.00000  Uiso   1.00
C1335  C     0.49976   0.83310   0.97663   0.00000  Uiso   1.00
C1336  C     0.49981   0.83323   0.52334   0.00000  Uiso   1.00
C1337  C     0.53740   0.83255   0.95310   0.00000  Uiso   1.00
C1338  C     0.46235   0.83742   0.54688   0.00000  Uiso   1.00
C1339  C     0.42459   0.83327   0.97683   0.00000  Uiso   1.00
C1340  C     0.57475   0.82601   0.52304   0.00000  Uiso   1.00
C1341  C     0.42485   0.84024   0.52348   0.00000  Uiso   1.00
C1342  C     0.57494   0.83265   0.97645   0.00000  Uiso   1.00
H1343  H     0.56436   0.82764   0.88727   0.00000  Uiso   1.00
H1344  H     0.43558   0.84093   0.61298   0.00000  Uiso   1.00
H1345  H     0.43508   0.83658   0.88733   0.00000  Uiso   1.00
H1346  H     0.56452   0.82786   0.61249   0.00000  Uiso   1.00
C1347  C     0.35476   0.80712   0.71738   0.00000  Uiso   1.00
C1348  C     0.64528   0.85963   0.78270   0.00000  Uiso   1.00
C1349  C     0.64505   0.80915   0.71571   0.00000  Uiso   1.00
C1350  C     0.35500   0.85747   0.78447   0.00000  Uiso   1.00
C1351  C     0.62394   0.83455   0.74897   0.00000  Uiso   1.00
C1352  C     0.37609   0.83211   0.75117   0.00000  Uiso   1.00
C1353  C     0.47713   0.69095   0.71989   0.00000  Uiso   1.00
C1354  C     0.52287   0.97571   0.78011   0.00000  Uiso   1.00
C1355  C     0.52293   0.69196   0.78007   0.00000  Uiso   1.00
C1356  C     0.47708   0.97470   0.71993   0.00000  Uiso   1.00
H1357  H     0.45893   0.70919   0.69565   0.00000  Uiso   1.00
H1358  H     0.54108   0.95747   0.80434   0.00000  Uiso   1.00
H1359  H     0.54135   0.71102   0.80414   0.00000  Uiso   1.00
H1360  H     0.45866   0.95565   0.69586   0.00000  Uiso   1.00
N1361  N     0.50000   0.95069   0.75000   0.00000  Uiso   1.00
N1362  N     0.50000   0.71598   0.75000   0.00000  Uiso   1.00
C1363  C     0.38480   0.82271   0.95274   0.00000  Uiso   1.00
H1364  H     0.38912   0.79620   0.92610   0.00000  Uiso   1.00
H1365  H     0.36209   0.80609   0.97521   0.00000  Uiso   1.00
H1366  H     0.37250   0.85531   0.93834   0.00000  Uiso   1.00
C1367  C     0.61372   0.81341   0.54731   0.00000  Uiso   1.00
H1368  H     0.60777   0.78321   0.56960   0.00000  Uiso   1.00
H1369  H     0.63812   0.80139   0.52458   0.00000  Uiso   1.00
H1370  H     0.62506   0.84384   0.56707   0.00000  Uiso   1.00
C1371  C     0.38573   0.85201   0.54816   0.00000  Uiso   1.00
H1372  H     0.36109   0.86363   0.52571   0.00000  Uiso   1.00
H1373  H     0.37491   0.82130   0.56760   0.00000  Uiso   1.00
H1374  H     0.39116   0.88221   0.57087   0.00000  Uiso   1.00
C1375  C     0.61466   0.84321   0.95222   0.00000  Uiso   1.00
H1376  H     0.63761   0.85935   0.97482   0.00000  Uiso   1.00
H1377  H     0.62670   0.81076   0.93689   0.00000  Uiso   1.00
H1378  H     0.61021   0.87007   0.92617   0.00000  Uiso   1.00
C1379  C     0.37864   0.77847   0.68350   0.00000  Uiso   1.00
H1380  H     0.39206   0.74781   0.70031   0.00000  Uiso   1.00
H1381  H     0.36055   0.76452   0.65524   0.00000  Uiso   1.00
H1382  H     0.40346   0.80016   0.66880   0.00000  Uiso   1.00
C1383  C     0.62145   0.88857   0.81637   0.00000  Uiso   1.00
H1384  H     0.60816   0.91918   0.79936   0.00000  Uiso   1.00
H1385  H     0.59653   0.86708   0.83110   0.00000  Uiso   1.00
H1386  H     0.63955   0.90260   0.84458   0.00000  Uiso   1.00
C1387  C     0.62232   0.78575   0.67730   0.00000  Uiso   1.00
H1388  H     0.58908   0.79202   0.67671   0.00000  Uiso   1.00
H1389  H     0.63407   0.79993   0.64537   0.00000  Uiso   1.00
H1390  H     0.62668   0.74730   0.67840   0.00000  Uiso   1.00
C1391  C     0.37777   0.88082   0.82291   0.00000  Uiso   1.00
H1392  H     0.41098   0.87434   0.82354   0.00000  Uiso   1.00
H1393  H     0.37360   0.91930   0.82169   0.00000  Uiso   1.00
H1394  H     0.36597   0.86687   0.85494   0.00000  Uiso   1.00
O1395  O     0.77321   0.87291   0.75000   0.00000  Uiso   1.00
O1396  O     0.89345   0.79375   0.75001   0.00000  Uiso   1.00
O1397  O     0.89345   0.87291   0.75001   0.00000  Uiso   1.00
O1398  O     0.77321   0.79375   0.75000   0.00000  Uiso   1.00
C1399  C     0.75413   0.83298   0.75049   0.00000  Uiso   1.00
C1400  C     0.91255   0.83369   0.74959   0.00000  Uiso   1.00
O1401  O     0.83332   0.87293   0.68513   0.00000  Uiso   1.00
O1402  O     0.83334   0.79373   0.81487   0.00000  Uiso   1.00
O1403  O     0.83334   0.87293   0.81487   0.00000  Uiso   1.00
O1404  O     0.83332   0.79373   0.68513   0.00000  Uiso   1.00
C1405  C     0.83333   0.83327   0.66446   0.00000  Uiso   1.00
C1406  C     0.83321   0.83339   0.83553   0.00000  Uiso   1.00
Cu1407 Cu    0.83333   0.88022   0.75000   0.00000  Uiso   1.00
Cu1408 Cu    0.83333   0.78645   0.75000   0.00000  Uiso   1.00
C1409  C     0.86993   0.83127   0.90645   0.00000  Uiso   1.00
C1410  C     0.79659   0.83786   0.59358   0.00000  Uiso   1.00
C1411  C     0.83312   0.83337   0.88368   0.00000  Uiso   1.00
C1412  C     0.83328   0.83325   0.61628   0.00000  Uiso   1.00
C1413  C     0.79622   0.83447   0.90655   0.00000  Uiso   1.00
C1414  C     0.86997   0.82935   0.59334   0.00000  Uiso   1.00
C1415  C     0.79543   0.83341   0.95324   0.00000  Uiso   1.00
C1416  C     0.87068   0.82926   0.54665   0.00000  Uiso   1.00
C1417  C     0.83310   0.83310   0.97663   0.00000  Uiso   1.00
C1418  C     0.83315   0.83323   0.52334   0.00000  Uiso   1.00
C1419  C     0.87073   0.83255   0.95310   0.00000  Uiso   1.00
C1420  C     0.79568   0.83742   0.54688   0.00000  Uiso   1.00
C1421  C     0.75792   0.83327   0.97683   0.00000  Uiso   1.00
C1422  C     0.90808   0.82601   0.52304   0.00000  Uiso   1.00
C1423  C     0.75819   0.84024   0.52348   0.00000  Uiso   1.00
C1424  C     0.90828   0.83265   0.97645   0.00000  Uiso   1.00
H1425  H     0.89769   0.82764   0.88727   0.00000  Uiso   1.00
H1426  H     0.76891   0.84093   0.61298   0.00000  Uiso   1.00
H1427  H     0.76841   0.83658   0.88733   0.00000  Uiso   1.00
H1428  H     0.89786   0.82786   0.61249   0.00000  Uiso   1.00
C1429  C     0.68810   0.80712   0.71738   0.00000  Uiso   1.00
C1430  C     0.97862   0.85963   0.78270   0.00000  Uiso   1.00
C1431  C     0.97838   0.80915   0.71571   0.00000  Uiso   1.00
C1432  C     0.68833   0.85747   0.78447   0.00000  Uiso   1.00
C1433  C     0.95728   0.83455   0.74897   0.00000  Uiso   1.00
C1434  C     0.70942   0.83211   0.75117   0.00000  Uiso   1.00
C1435  C     0.81047   0.69095   0.71989   0.00000  Uiso   1.00
C1436  C     0.85620   0.97571   0.78011   0.00000  Uiso   1.00
C1437  C     0.85626   0.69196   0.78007   0.00000  Uiso   1.00
C1438  C     0.81041   0.97470   0.71993   0.00000  Uiso   1.00
H1439  H     0.79226   0.70919   0.69565   0.00000  Uiso   1.00
H1440  H     0.87441   0.95747   0.80434   0.00000  Uiso   1.00
H1441  H     0.87468   0.71102   0.80414   0.00000  Uiso   1.00
H1442  H     0.79199   0.95565   0.69586   0.00000  Uiso   1.00
N1443  N     0.83333   0.95069   0.75000   0.00000  Uiso   1.00
N1444  N     0.83333   0.71598   0.75000   0.00000  Uiso   1.00
C1445  C     0.71814   0.82271   0.95274   0.00000  Uiso   1.00
H1446  H     0.72246   0.79620   0.92610   0.00000  Uiso   1.00
H1447  H     0.69543   0.80609   0.97521   0.00000  Uiso   1.00
H1448  H     0.70584   0.85531   0.93834   0.00000  Uiso   1.00
C1449  C     0.94706   0.81341   0.54731   0.00000  Uiso   1.00
H1450  H     0.94110   0.78321   0.56960   0.00000  Uiso   1.00
H1451  H     0.97145   0.80139   0.52458   0.00000  Uiso   1.00
H1452  H     0.95839   0.84384   0.56707   0.00000  Uiso   1.00
C1453  C     0.71906   0.85201   0.54816   0.00000  Uiso   1.00
H1454  H     0.69442   0.86363   0.52571   0.00000  Uiso   1.00
H1455  H     0.70824   0.82130   0.56760   0.00000  Uiso   1.00
H1456  H     0.72449   0.88221   0.57087   0.00000  Uiso   1.00
C1457  C     0.94799   0.84321   0.95222   0.00000  Uiso   1.00
H1458  H     0.97094   0.85935   0.97482   0.00000  Uiso   1.00
H1459  H     0.96004   0.81076   0.93689   0.00000  Uiso   1.00
H1460  H     0.94354   0.87007   0.92617   0.00000  Uiso   1.00
C1461  C     0.71197   0.77847   0.68350   0.00000  Uiso   1.00
H1462  H     0.72539   0.74781   0.70031   0.00000  Uiso   1.00
H1463  H     0.69388   0.76452   0.65524   0.00000  Uiso   1.00
H1464  H     0.73679   0.80016   0.66880   0.00000  Uiso   1.00
C1465  C     0.95478   0.88857   0.81637   0.00000  Uiso   1.00
H1466  H     0.94149   0.91918   0.79936   0.00000  Uiso   1.00
H1467  H     0.92986   0.86708   0.83110   0.00000  Uiso   1.00
H1468  H     0.97288   0.90260   0.84458   0.00000  Uiso   1.00
C1469  C     0.95565   0.78575   0.67730   0.00000  Uiso   1.00
H1470  H     0.92241   0.79202   0.67671   0.00000  Uiso   1.00
H1471  H     0.96740   0.79993   0.64537   0.00000  Uiso   1.00
H1472  H     0.96002   0.74730   0.67840   0.00000  Uiso   1.00
C1473  C     0.71110   0.88082   0.82291   0.00000  Uiso   1.00
H1474  H     0.74431   0.87434   0.82354   0.00000  Uiso   1.00
H1475  H     0.70693   0.91930   0.82169   0.00000  Uiso   1.00
H1476  H     0.69930   0.86687   0.85494   0.00000  Uiso   1.00
loop_
_geom_bond_atom_site_label_1
_geom_bond_atom_site_label_2
_geom_bond_distance
_geom_bond_site_symmetry_2
_ccdc_geom_bond_type
O1     C5      1.293   .     A
O1     Cu13    1.972   .     S
O2     C6      1.293   .     A
O2     Cu14    1.972   .     S
O3     C6      1.290   .     A
O3     Cu13    1.978   .     S
O4     Cu14    1.978   .     S
O4     C5      1.290   .     A
C5     C40     1.461   .     S
C6     C39     1.461   .     S
O7     C11     1.290   .     A
O7     Cu13    1.959   .     S
O8     C12     1.289   .     A
O8     Cu14    1.959   .     S
O9     Cu13    1.961   .     S
O9     C12     1.292   .     A
O10    Cu14    1.961   .     S
O10    C11     1.292   .     A
C11    C18     1.448   .     S
C12    C17     1.447   .     S
Cu13   Cu14    2.680   .     S
Cu13   N49     2.014   .     S
Cu14   N50     2.014   .     S
C15    C25     1.402   .     A
C15    C17     1.386   .     A
C15    H31     1.080   .     S
C16    C26     1.403   .     A
C16    H32     1.080   .     S
C16    C18     1.388   .     A
C17    C19     1.388   .     A
C18    C20     1.388   .     A
C19    H33     1.079   .     S
C19    C21     1.404   .     A
C20    H34     1.079   .     S
C20    C22     1.403   .     A
C21    C27     1.415   .     A
C21    C23     1.418   .     A
C22    C28     1.416   .     A
C22    C24     1.419   .     A
C23    C25     1.418   .     A
C23    C762    1.403   .     S
C24    C26     1.419   .     A
C24    C761    1.403   1_554 S
C25    C30     1.414   .     A
C26    C29     1.416   .     A
C27    C51     1.514   .     S
C27    C767    1.415   .     S
C28    C55     1.516   .     S
C28    C768    1.413   1_554 S
C29    C59     1.518   .     S
C29    C765    1.415   1_554 S
C30    C63     1.515   .     S
C30    C766    1.413   .     S
C35    C67     1.524   .     S
C35    C40     1.417   .     A
C35    C201    1.409   1_455 S
C36    C71     1.523   .     S
C36    C39     1.417   .     A
C36    C120    1.410   .     S
C37    C39     1.416   .     A
C37    C75     1.520   .     S
C37    C117    1.409   .     S
C38    C79     1.521   .     S
C38    C40     1.416   .     A
C38    C200    1.410   1_455 S
C41    N50     1.367   .     A
C41    H45     1.081   .     S
C41    C536    1.417   1_545 S
C42    H46     1.081   .     S
C42    N49     1.367   .     A
C42    C289    1.417   .     S
C43    N50     1.367   .     A
C43    H47     1.082   .     S
C43    C534    1.417   1_545 S
C44    N49     1.367   .     A
C44    H48     1.082   .     S
C44    C287    1.417   .     S
C51    H52     1.110   .     S
C51    H54     1.110   .     S
C51    H53     1.107   .     S
C55    H56     1.110   .     S
C55    H57     1.106   .     S
C55    H58     1.110   .     S
C59    H60     1.106   .     S
C59    H61     1.110   .     S
C59    H62     1.110   .     S
C63    H65     1.110   .     S
C63    H66     1.110   .     S
C63    H64     1.107   .     S
C67    H68     1.109   .     S
C67    H69     1.105   .     S
C67    H70     1.107   .     S
C71    H73     1.107   .     S
C71    H74     1.105   .     S
C71    H72     1.109   .     S
C75    H76     1.103   .     S
C75    H77     1.109   .     S
C75    H78     1.111   .     S
C79    H81     1.111   .     S
C79    H82     1.110   .     S
C79    H80     1.103   .     S
O83    C87     1.293   .     A
O83    Cu95    1.972   .     S
O84    C88     1.293   .     A
O84    Cu96    1.972   .     S
O85    C88     1.290   .     A
O85    Cu95    1.978   .     S
O86    Cu96    1.978   .     S
O86    C87     1.290   .     A
C87    C122    1.461   .     S
C88    C121    1.461   .     S
O89    C93     1.290   .     A
O89    Cu95    1.959   .     S
O90    C94     1.289   .     A
O90    Cu96    1.959   .     S
O91    Cu95    1.961   .     S
O91    C94     1.292   .     A
O92    Cu96    1.961   .     S
O92    C93     1.292   .     A
C93    C100    1.448   .     S
C94    C99     1.447   .     S
Cu95   Cu96    2.680   .     S
Cu95   N131    2.014   .     S
Cu96   N132    2.014   .     S
C97    C107    1.402   .     A
C97    C99     1.386   .     A
C97    H113    1.080   .     S
C98    C108    1.403   .     A
C98    H114    1.080   .     S
C98    C100    1.388   .     A
C99    C101    1.388   .     A
C100   C102    1.388   .     A
C101   H115    1.079   .     S
C101   C103    1.404   .     A
C102   H116    1.079   .     S
C102   C104    1.403   .     A
C103   C109    1.415   .     A
C103   C105    1.418   .     A
C104   C110    1.416   .     A
C104   C106    1.419   .     A
C105   C107    1.418   .     A
C105   C844    1.403   .     S
C106   C108    1.419   .     A
C106   C843    1.403   1_554 S
C107   C112    1.414   .     A
C108   C111    1.416   .     A
C109   C133    1.514   .     S
C109   C849    1.415   .     S
C110   C137    1.516   .     S
C110   C850    1.413   1_554 S
C111   C141    1.518   .     S
C111   C847    1.415   1_554 S
C112   C145    1.515   .     S
C112   C848    1.413   .     S
C117   C149    1.524   .     S
C117   C122    1.417   .     A
C118   C153    1.523   .     S
C118   C121    1.417   .     A
C118   C202    1.410   .     S
C119   C121    1.416   .     A
C119   C157    1.520   .     S
C119   C199    1.409   .     S
C120   C161    1.521   .     S
C120   C122    1.416   .     A
C123   N132    1.367   .     A
C123   H127    1.081   .     S
C123   C618    1.417   1_545 S
C124   H128    1.081   .     S
C124   N131    1.367   .     A
C124   C371    1.417   .     S
C125   N132    1.367   .     A
C125   H129    1.082   .     S
C125   C616    1.417   1_545 S
C126   N131    1.367   .     A
C126   H130    1.082   .     S
C126   C369    1.417   .     S
C133   H134    1.110   .     S
C133   H136    1.110   .     S
C133   H135    1.107   .     S
C137   H138    1.110   .     S
C137   H139    1.106   .     S
C137   H140    1.110   .     S
C141   H142    1.106   .     S
C141   H143    1.110   .     S
C141   H144    1.110   .     S
C145   H147    1.110   .     S
C145   H148    1.110   .     S
C145   H146    1.107   .     S
C149   H150    1.109   .     S
C149   H151    1.105   .     S
C149   H152    1.107   .     S
C153   H155    1.107   .     S
C153   H156    1.105   .     S
C153   H154    1.109   .     S
C157   H158    1.103   .     S
C157   H159    1.109   .     S
C157   H160    1.111   .     S
C161   H163    1.111   .     S
C161   H164    1.110   .     S
C161   H162    1.103   .     S
O165   C169    1.293   .     A
O165   Cu177   1.972   .     S
O166   C170    1.293   .     A
O166   Cu178   1.972   .     S
O167   C170    1.290   .     A
O167   Cu177   1.978   .     S
O168   Cu178   1.978   .     S
O168   C169    1.290   .     A
C169   C204    1.461   .     S
C170   C203    1.461   .     S
O171   C175    1.290   .     A
O171   Cu177   1.959   .     S
O172   C176    1.289   .     A
O172   Cu178   1.959   .     S
O173   Cu177   1.961   .     S
O173   C176    1.292   .     A
O174   Cu178   1.961   .     S
O174   C175    1.292   .     A
C175   C182    1.448   .     S
C176   C181    1.447   .     S
Cu177  Cu178   2.680   .     S
Cu177  N213    2.014   .     S
Cu178  N214    2.014   .     S
C179   C189    1.402   .     A
C179   C181    1.386   .     A
C179   H195    1.080   .     S
C180   C190    1.403   .     A
C180   H196    1.080   .     S
C180   C182    1.388   .     A
C181   C183    1.388   .     A
C182   C184    1.388   .     A
C183   H197    1.079   .     S
C183   C185    1.404   .     A
C184   H198    1.079   .     S
C184   C186    1.403   .     A
C185   C191    1.415   .     A
C185   C187    1.418   .     A
C186   C192    1.416   .     A
C186   C188    1.419   .     A
C187   C189    1.418   .     A
C187   C926    1.403   .     S
C188   C190    1.419   .     A
C188   C925    1.403   1_554 S
C189   C194    1.414   .     A
C190   C193    1.416   .     A
C191   C215    1.514   .     S
C191   C931    1.415   .     S
C192   C219    1.516   .     S
C192   C932    1.413   1_554 S
C193   C223    1.518   .     S
C193   C929    1.415   1_554 S
C194   C227    1.515   .     S
C194   C930    1.413   .     S
C199   C231    1.524   .     S
C199   C204    1.417   .     A
C200   C235    1.523   .     S
C200   C203    1.417   .     A
C200   C38     1.410   1_655 S
C201   C203    1.416   .     A
C201   C239    1.520   .     S
C201   C35     1.409   1_655 S
C202   C243    1.521   .     S
C202   C204    1.416   .     A
C205   N214    1.367   .     A
C205   H209    1.081   .     S
C205   C700    1.417   1_545 S
C206   H210    1.081   .     S
C206   N213    1.367   .     A
C206   C453    1.417   .     S
C207   N214    1.367   .     A
C207   H211    1.082   .     S
C207   C698    1.417   1_545 S
C208   N213    1.367   .     A
C208   H212    1.082   .     S
C208   C451    1.417   .     S
C215   H216    1.110   .     S
C215   H218    1.110   .     S
C215   H217    1.107   .     S
C219   H220    1.110   .     S
C219   H221    1.106   .     S
C219   H222    1.110   .     S
C223   H224    1.106   .     S
C223   H225    1.110   .     S
C223   H226    1.110   .     S
C227   H229    1.110   .     S
C227   H230    1.110   .     S
C227   H228    1.107   .     S
C231   H232    1.109   .     S
C231   H233    1.105   .     S
C231   H234    1.107   .     S
C235   H237    1.107   .     S
C235   H238    1.105   .     S
C235   H236    1.109   .     S
C239   H240    1.103   .     S
C239   H241    1.109   .     S
C239   H242    1.111   .     S
C243   H245    1.111   .     S
C243   H246    1.110   .     S
C243   H244    1.103   .     S
O247   C251    1.293   .     A
O247   Cu259   1.972   .     S
O248   C252    1.293   .     A
O248   Cu260   1.972   .     S
O249   C252    1.290   .     A
O249   Cu259   1.978   .     S
O250   Cu260   1.978   .     S
O250   C251    1.290   .     A
C251   C286    1.461   .     S
C252   C285    1.461   .     S
O253   C257    1.290   .     A
O253   Cu259   1.959   .     S
O254   C258    1.289   .     A
O254   Cu260   1.959   .     S
O255   Cu259   1.961   .     S
O255   C258    1.292   .     A
O256   Cu260   1.961   .     S
O256   C257    1.292   .     A
C257   C264    1.448   .     S
C258   C263    1.447   .     S
Cu259  Cu260   2.680   .     S
Cu259  N295    2.014   .     S
Cu260  N296    2.014   .     S
C261   C271    1.402   .     A
C261   C263    1.386   .     A
C261   H277    1.080   .     S
C262   C272    1.403   .     A
C262   H278    1.080   .     S
C262   C264    1.388   .     A
C263   C265    1.388   .     A
C264   C266    1.388   .     A
C265   H279    1.079   .     S
C265   C267    1.404   .     A
C266   H280    1.079   .     S
C266   C268    1.403   .     A
C267   C273    1.415   .     A
C267   C269    1.418   .     A
C268   C274    1.416   .     A
C268   C270    1.419   .     A
C269   C271    1.418   .     A
C269   C1008   1.403   .     S
C270   C272    1.419   .     A
C270   C1007   1.403   1_554 S
C271   C276    1.414   .     A
C272   C275    1.416   .     A
C273   C297    1.514   .     S
C273   C1013   1.415   .     S
C274   C301    1.516   .     S
C274   C1014   1.413   1_554 S
C275   C305    1.518   .     S
C275   C1011   1.415   1_554 S
C276   C309    1.515   .     S
C276   C1012   1.413   .     S
C281   C313    1.524   .     S
C281   C286    1.417   .     A
C281   C447    1.409   1_455 S
C282   C317    1.523   .     S
C282   C285    1.417   .     A
C282   C366    1.410   .     S
C283   C285    1.416   .     A
C283   C321    1.520   .     S
C283   C363    1.409   .     S
C284   C325    1.521   .     S
C284   C286    1.416   .     A
C284   C446    1.410   1_455 S
C287   N296    1.367   .     A
C287   H291    1.081   .     S
C288   H292    1.081   .     S
C288   N295    1.367   .     A
C288   C535    1.417   .     S
C289   N296    1.367   .     A
C289   H293    1.082   .     S
C290   N295    1.367   .     A
C290   H294    1.082   .     S
C290   C533    1.417   .     S
C297   H298    1.110   .     S
C297   H300    1.110   .     S
C297   H299    1.107   .     S
C301   H302    1.110   .     S
C301   H303    1.106   .     S
C301   H304    1.110   .     S
C305   H306    1.106   .     S
C305   H307    1.110   .     S
C305   H308    1.110   .     S
C309   H311    1.110   .     S
C309   H312    1.110   .     S
C309   H310    1.107   .     S
C313   H314    1.109   .     S
C313   H315    1.105   .     S
C313   H316    1.107   .     S
C317   H319    1.107   .     S
C317   H320    1.105   .     S
C317   H318    1.109   .     S
C321   H322    1.103   .     S
C321   H323    1.109   .     S
C321   H324    1.111   .     S
C325   H327    1.111   .     S
C325   H328    1.110   .     S
C325   H326    1.103   .     S
O329   C333    1.293   .     A
O329   Cu341   1.972   .     S
O330   C334    1.293   .     A
O330   Cu342   1.972   .     S
O331   C334    1.290   .     A
O331   Cu341   1.978   .     S
O332   Cu342   1.978   .     S
O332   C333    1.290   .     A
C333   C368    1.461   .     S
C334   C367    1.461   .     S
O335   C339    1.290   .     A
O335   Cu341   1.959   .     S
O336   C340    1.289   .     A
O336   Cu342   1.959   .     S
O337   Cu341   1.961   .     S
O337   C340    1.292   .     A
O338   Cu342   1.961   .     S
O338   C339    1.292   .     A
C339   C346    1.448   .     S
C340   C345    1.447   .     S
Cu341  Cu342   2.680   .     S
Cu341  N377    2.014   .     S
Cu342  N378    2.014   .     S
C343   C353    1.402   .     A
C343   C345    1.386   .     A
C343   H359    1.080   .     S
C344   C354    1.403   .     A
C344   H360    1.080   .     S
C344   C346    1.388   .     A
C345   C347    1.388   .     A
C346   C348    1.388   .     A
C347   H361    1.079   .     S
C347   C349    1.404   .     A
C348   H362    1.079   .     S
C348   C350    1.403   .     A
C349   C355    1.415   .     A
C349   C351    1.418   .     A
C350   C356    1.416   .     A
C350   C352    1.419   .     A
C351   C353    1.418   .     A
C351   C1090   1.403   .     S
C352   C354    1.419   .     A
C352   C1089   1.403   1_554 S
C353   C358    1.414   .     A
C354   C357    1.416   .     A
C355   C379    1.514   .     S
C355   C1095   1.415   .     S
C356   C383    1.516   .     S
C356   C1096   1.413   1_554 S
C357   C387    1.518   .     S
C357   C1093   1.415   1_554 S
C358   C391    1.515   .     S
C358   C1094   1.413   .     S
C363   C395    1.524   .     S
C363   C368    1.417   .     A
C364   C399    1.523   .     S
C364   C367    1.417   .     A
C364   C448    1.410   .     S
C365   C367    1.416   .     A
C365   C403    1.520   .     S
C365   C445    1.409   .     S
C366   C407    1.521   .     S
C366   C368    1.416   .     A
C369   N378    1.367   .     A
C369   H373    1.081   .     S
C370   H374    1.081   .     S
C370   N377    1.367   .     A
C370   C617    1.417   .     S
C371   N378    1.367   .     A
C371   H375    1.082   .     S
C372   N377    1.367   .     A
C372   H376    1.082   .     S
C372   C615    1.417   .     S
C379   H380    1.110   .     S
C379   H382    1.110   .     S
C379   H381    1.107   .     S
C383   H384    1.110   .     S
C383   H385    1.106   .     S
C383   H386    1.110   .     S
C387   H388    1.106   .     S
C387   H389    1.110   .     S
C387   H390    1.110   .     S
C391   H393    1.110   .     S
C391   H394    1.110   .     S
C391   H392    1.107   .     S
C395   H396    1.109   .     S
C395   H397    1.105   .     S
C395   H398    1.107   .     S
C399   H401    1.107   .     S
C399   H402    1.105   .     S
C399   H400    1.109   .     S
C403   H404    1.103   .     S
C403   H405    1.109   .     S
C403   H406    1.111   .     S
C407   H409    1.111   .     S
C407   H410    1.110   .     S
C407   H408    1.103   .     S
O411   C415    1.293   .     A
O411   Cu423   1.972   .     S
O412   C416    1.293   .     A
O412   Cu424   1.972   .     S
O413   C416    1.290   .     A
O413   Cu423   1.978   .     S
O414   Cu424   1.978   .     S
O414   C415    1.290   .     A
C415   C450    1.461   .     S
C416   C449    1.461   .     S
O417   C421    1.290   .     A
O417   Cu423   1.959   .     S
O418   C422    1.289   .     A
O418   Cu424   1.959   .     S
O419   Cu423   1.961   .     S
O419   C422    1.292   .     A
O420   Cu424   1.961   .     S
O420   C421    1.292   .     A
C421   C428    1.448   .     S
C422   C427    1.447   .     S
Cu423  Cu424   2.680   .     S
Cu423  N459    2.014   .     S
Cu424  N460    2.014   .     S
C425   C435    1.402   .     A
C425   C427    1.386   .     A
C425   H441    1.080   .     S
C426   C436    1.403   .     A
C426   H442    1.080   .     S
C426   C428    1.388   .     A
C427   C429    1.388   .     A
C428   C430    1.388   .     A
C429   H443    1.079   .     S
C429   C431    1.404   .     A
C430   H444    1.079   .     S
C430   C432    1.403   .     A
C431   C437    1.415   .     A
C431   C433    1.418   .     A
C432   C438    1.416   .     A
C432   C434    1.419   .     A
C433   C435    1.418   .     A
C433   C1172   1.403   .     S
C434   C436    1.419   .     A
C434   C1171   1.403   1_554 S
C435   C440    1.414   .     A
C436   C439    1.416   .     A
C437   C461    1.514   .     S
C437   C1177   1.415   .     S
C438   C465    1.516   .     S
C438   C1178   1.413   1_554 S
C439   C469    1.518   .     S
C439   C1175   1.415   1_554 S
C440   C473    1.515   .     S
C440   C1176   1.413   .     S
C445   C477    1.524   .     S
C445   C450    1.417   .     A
C446   C481    1.523   .     S
C446   C449    1.417   .     A
C446   C284    1.410   1_655 S
C447   C449    1.416   .     A
C447   C485    1.520   .     S
C447   C281    1.409   1_655 S
C448   C489    1.521   .     S
C448   C450    1.416   .     A
C451   N460    1.367   .     A
C451   H455    1.081   .     S
C452   H456    1.081   .     S
C452   N459    1.367   .     A
C452   C699    1.417   .     S
C453   N460    1.367   .     A
C453   H457    1.082   .     S
C454   N459    1.367   .     A
C454   H458    1.082   .     S
C454   C697    1.417   .     S
C461   H462    1.110   .     S
C461   H464    1.110   .     S
C461   H463    1.107   .     S
C465   H466    1.110   .     S
C465   H467    1.106   .     S
C465   H468    1.110   .     S
C469   H470    1.106   .     S
C469   H471    1.110   .     S
C469   H472    1.110   .     S
C473   H475    1.110   .     S
C473   H476    1.110   .     S
C473   H474    1.107   .     S
C477   H478    1.109   .     S
C477   H479    1.105   .     S
C477   H480    1.107   .     S
C481   H483    1.107   .     S
C481   H484    1.105   .     S
C481   H482    1.109   .     S
C485   H486    1.103   .     S
C485   H487    1.109   .     S
C485   H488    1.111   .     S
C489   H491    1.111   .     S
C489   H492    1.110   .     S
C489   H490    1.103   .     S
O493   C497    1.293   .     A
O493   Cu505   1.972   .     S
O494   C498    1.293   .     A
O494   Cu506   1.972   .     S
O495   C498    1.290   .     A
O495   Cu505   1.978   .     S
O496   Cu506   1.978   .     S
O496   C497    1.290   .     A
C497   C532    1.461   .     S
C498   C531    1.461   .     S
O499   C503    1.290   .     A
O499   Cu505   1.959   .     S
O500   C504    1.289   .     A
O500   Cu506   1.959   .     S
O501   Cu505   1.961   .     S
O501   C504    1.292   .     A
O502   Cu506   1.961   .     S
O502   C503    1.292   .     A
C503   C510    1.448   .     S
C504   C509    1.447   .     S
Cu505  Cu506   2.680   .     S
Cu505  N541    2.014   .     S
Cu506  N542    2.014   .     S
C507   C517    1.402   .     A
C507   C509    1.386   .     A
C507   H523    1.080   .     S
C508   C518    1.403   .     A
C508   H524    1.080   .     S
C508   C510    1.388   .     A
C509   C511    1.388   .     A
C510   C512    1.388   .     A
C511   H525    1.079   .     S
C511   C513    1.404   .     A
C512   H526    1.079   .     S
C512   C514    1.403   .     A
C513   C519    1.415   .     A
C513   C515    1.418   .     A
C514   C520    1.416   .     A
C514   C516    1.419   .     A
C515   C517    1.418   .     A
C515   C1254   1.403   .     S
C516   C518    1.419   .     A
C516   C1253   1.403   1_554 S
C517   C522    1.414   .     A
C518   C521    1.416   .     A
C519   C543    1.514   .     S
C519   C1259   1.415   .     S
C520   C547    1.516   .     S
C520   C1260   1.413   1_554 S
C521   C551    1.518   .     S
C521   C1257   1.415   1_554 S
C522   C555    1.515   .     S
C522   C1258   1.413   .     S
C527   C559    1.524   .     S
C527   C532    1.417   .     A
C527   C693    1.409   1_455 S
C528   C563    1.523   .     S
C528   C531    1.417   .     A
C528   C612    1.410   .     S
C529   C531    1.416   .     A
C529   C567    1.520   .     S
C529   C609    1.409   .     S
C530   C571    1.521   .     S
C530   C532    1.416   .     A
C530   C692    1.410   1_455 S
C533   N542    1.367   .     A
C533   H537    1.081   .     S
C534   H538    1.081   .     S
C534   N541    1.367   .     A
C534   C43     1.417   1_565 S
C535   N542    1.367   .     A
C535   H539    1.082   .     S
C536   N541    1.367   .     A
C536   H540    1.082   .     S
C536   C41     1.417   1_565 S
C543   H544    1.110   .     S
C543   H546    1.110   .     S
C543   H545    1.107   .     S
C547   H548    1.110   .     S
C547   H549    1.106   .     S
C547   H550    1.110   .     S
C551   H552    1.106   .     S
C551   H553    1.110   .     S
C551   H554    1.110   .     S
C555   H557    1.110   .     S
C555   H558    1.110   .     S
C555   H556    1.107   .     S
C559   H560    1.109   .     S
C559   H561    1.105   .     S
C559   H562    1.107   .     S
C563   H565    1.107   .     S
C563   H566    1.105   .     S
C563   H564    1.109   .     S
C567   H568    1.103   .     S
C567   H569    1.109   .     S
C567   H570    1.111   .     S
C571   H573    1.111   .     S
C571   H574    1.110   .     S
C571   H572    1.103   .     S
O575   C579    1.293   .     A
O575   Cu587   1.972   .     S
O576   C580    1.293   .     A
O576   Cu588   1.972   .     S
O577   C580    1.290   .     A
O577   Cu587   1.978   .     S
O578   Cu588   1.978   .     S
O578   C579    1.290   .     A
C579   C614    1.461   .     S
C580   C613    1.461   .     S
O581   C585    1.290   .     A
O581   Cu587   1.959   .     S
O582   C586    1.289   .     A
O582   Cu588   1.959   .     S
O583   Cu587   1.961   .     S
O583   C586    1.292   .     A
O584   Cu588   1.961   .     S
O584   C585    1.292   .     A
C585   C592    1.448   .     S
C586   C591    1.447   .     S
Cu587  Cu588   2.680   .     S
Cu587  N623    2.014   .     S
Cu588  N624    2.014   .     S
C589   C599    1.402   .     A
C589   C591    1.386   .     A
C589   H605    1.080   .     S
C590   C600    1.403   .     A
C590   H606    1.080   .     S
C590   C592    1.388   .     A
C591   C593    1.388   .     A
C592   C594    1.388   .     A
C593   H607    1.079   .     S
C593   C595    1.404   .     A
C594   H608    1.079   .     S
C594   C596    1.403   .     A
C595   C601    1.415   .     A
C595   C597    1.418   .     A
C596   C602    1.416   .     A
C596   C598    1.419   .     A
C597   C599    1.418   .     A
C597   C1336   1.403   .     S
C598   C600    1.419   .     A
C598   C1335   1.403   1_554 S
C599   C604    1.414   .     A
C600   C603    1.416   .     A
C601   C625    1.514   .     S
C601   C1341   1.415   .     S
C602   C629    1.516   .     S
C602   C1342   1.413   1_554 S
C603   C633    1.518   .     S
C603   C1339   1.415   1_554 S
C604   C637    1.515   .     S
C604   C1340   1.413   .     S
C609   C641    1.524   .     S
C609   C614    1.417   .     A
C610   C645    1.523   .     S
C610   C613    1.417   .     A
C610   C694    1.410   .     S
C611   C613    1.416   .     A
C611   C649    1.520   .     S
C611   C691    1.409   .     S
C612   C653    1.521   .     S
C612   C614    1.416   .     A
C615   N624    1.367   .     A
C615   H619    1.081   .     S
C616   H620    1.081   .     S
C616   N623    1.367   .     A
C616   C125    1.417   1_565 S
C617   N624    1.367   .     A
C617   H621    1.082   .     S
C618   N623    1.367   .     A
C618   H622    1.082   .     S
C618   C123    1.417   1_565 S
C625   H626    1.110   .     S
C625   H628    1.110   .     S
C625   H627    1.107   .     S
C629   H630    1.110   .     S
C629   H631    1.106   .     S
C629   H632    1.110   .     S
C633   H634    1.106   .     S
C633   H635    1.110   .     S
C633   H636    1.110   .     S
C637   H639    1.110   .     S
C637   H640    1.110   .     S
C637   H638    1.107   .     S
C641   H642    1.109   .     S
C641   H643    1.105   .     S
C641   H644    1.107   .     S
C645   H647    1.107   .     S
C645   H648    1.105   .     S
C645   H646    1.109   .     S
C649   H650    1.103   .     S
C649   H651    1.109   .     S
C649   H652    1.111   .     S
C653   H655    1.111   .     S
C653   H656    1.110   .     S
C653   H654    1.103   .     S
O657   C661    1.293   .     A
O657   Cu669   1.972   .     S
O658   C662    1.293   .     A
O658   Cu670   1.972   .     S
O659   C662    1.290   .     A
O659   Cu669   1.978   .     S
O660   Cu670   1.978   .     S
O660   C661    1.290   .     A
C661   C696    1.461   .     S
C662   C695    1.461   .     S
O663   C667    1.290   .     A
O663   Cu669   1.959   .     S
O664   C668    1.289   .     A
O664   Cu670   1.959   .     S
O665   Cu669   1.961   .     S
O665   C668    1.292   .     A
O666   Cu670   1.961   .     S
O666   C667    1.292   .     A
C667   C674    1.448   .     S
C668   C673    1.447   .     S
Cu669  Cu670   2.680   .     S
Cu669  N705    2.014   .     S
Cu670  N706    2.014   .     S
C671   C681    1.402   .     A
C671   C673    1.386   .     A
C671   H687    1.080   .     S
C672   C682    1.403   .     A
C672   H688    1.080   .     S
C672   C674    1.388   .     A
C673   C675    1.388   .     A
C674   C676    1.388   .     A
C675   H689    1.079   .     S
C675   C677    1.404   .     A
C676   H690    1.079   .     S
C676   C678    1.403   .     A
C677   C683    1.415   .     A
C677   C679    1.418   .     A
C678   C684    1.416   .     A
C678   C680    1.419   .     A
C679   C681    1.418   .     A
C679   C1418   1.403   .     S
C680   C682    1.419   .     A
C680   C1417   1.403   1_554 S
C681   C686    1.414   .     A
C682   C685    1.416   .     A
C683   C707    1.514   .     S
C683   C1423   1.415   .     S
C684   C711    1.516   .     S
C684   C1424   1.413   1_554 S
C685   C715    1.518   .     S
C685   C1421   1.415   1_554 S
C686   C719    1.515   .     S
C686   C1422   1.413   .     S
C691   C723    1.524   .     S
C691   C696    1.417   .     A
C692   C727    1.523   .     S
C692   C695    1.417   .     A
C692   C530    1.410   1_655 S
C693   C695    1.416   .     A
C693   C731    1.520   .     S
C693   C527    1.409   1_655 S
C694   C735    1.521   .     S
C694   C696    1.416   .     A
C697   N706    1.367   .     A
C697   H701    1.081   .     S
C698   H702    1.081   .     S
C698   N705    1.367   .     A
C698   C207    1.417   1_565 S
C699   N706    1.367   .     A
C699   H703    1.082   .     S
C700   N705    1.367   .     A
C700   H704    1.082   .     S
C700   C205    1.417   1_565 S
C707   H708    1.110   .     S
C707   H710    1.110   .     S
C707   H709    1.107   .     S
C711   H712    1.110   .     S
C711   H713    1.106   .     S
C711   H714    1.110   .     S
C715   H716    1.106   .     S
C715   H717    1.110   .     S
C715   H718    1.110   .     S
C719   H721    1.110   .     S
C719   H722    1.110   .     S
C719   H720    1.107   .     S
C723   H724    1.109   .     S
C723   H725    1.105   .     S
C723   H726    1.107   .     S
C727   H729    1.107   .     S
C727   H730    1.105   .     S
C727   H728    1.109   .     S
C731   H732    1.103   .     S
C731   H733    1.109   .     S
C731   H734    1.111   .     S
C735   H737    1.111   .     S
C735   H738    1.110   .     S
C735   H736    1.103   .     S
O739   C743    1.293   .     A
O739   Cu751   1.972   .     S
O740   C744    1.293   .     A
O740   Cu752   1.972   .     S
O741   C744    1.290   .     A
O741   Cu751   1.978   .     S
O742   Cu752   1.978   .     S
O742   C743    1.290   .     A
C743   C778    1.461   .     S
C744   C777    1.461   .     S
O745   C749    1.290   .     A
O745   Cu751   1.959   .     S
O746   C750    1.289   .     A
O746   Cu752   1.959   .     S
O747   Cu751   1.961   .     S
O747   C750    1.292   .     A
O748   Cu752   1.961   .     S
O748   C749    1.292   .     A
C749   C756    1.448   .     S
C750   C755    1.447   .     S
Cu751  Cu752   2.680   .     S
Cu751  N787    2.014   .     S
Cu752  N788    2.014   .     S
C753   C763    1.402   .     A
C753   C755    1.386   .     A
C753   H769    1.080   .     S
C754   C764    1.403   .     A
C754   H770    1.080   .     S
C754   C756    1.388   .     A
C755   C757    1.388   .     A
C756   C758    1.388   .     A
C757   H771    1.079   .     S
C757   C759    1.404   .     A
C758   H772    1.079   .     S
C758   C760    1.403   .     A
C759   C765    1.415   .     A
C759   C761    1.418   .     A
C760   C766    1.416   .     A
C760   C762    1.419   .     A
C761   C763    1.418   .     A
C761   C24     1.403   1_556 S
C762   C764    1.419   .     A
C763   C768    1.414   .     A
C764   C767    1.416   .     A
C765   C789    1.514   .     S
C765   C29     1.415   1_556 S
C766   C793    1.516   .     S
C767   C797    1.518   .     S
C768   C801    1.515   .     S
C768   C28     1.413   1_556 S
C773   C805    1.524   .     S
C773   C778    1.417   .     A
C773   C939    1.409   1_455 S
C774   C809    1.523   .     S
C774   C777    1.417   .     A
C774   C858    1.410   .     S
C775   C777    1.416   .     A
C775   C813    1.520   .     S
C775   C855    1.409   .     S
C776   C817    1.521   .     S
C776   C778    1.416   .     A
C776   C938    1.410   1_455 S
C779   N788    1.367   .     A
C779   H783    1.081   .     S
C779   C1274   1.417   1_545 S
C780   H784    1.081   .     S
C780   N787    1.367   .     A
C780   C1027   1.417   .     S
C781   N788    1.367   .     A
C781   H785    1.082   .     S
C781   C1272   1.417   1_545 S
C782   N787    1.367   .     A
C782   H786    1.082   .     S
C782   C1025   1.417   .     S
C789   H790    1.110   .     S
C789   H792    1.110   .     S
C789   H791    1.107   .     S
C793   H794    1.110   .     S
C793   H795    1.106   .     S
C793   H796    1.110   .     S
C797   H798    1.106   .     S
C797   H799    1.110   .     S
C797   H800    1.110   .     S
C801   H803    1.110   .     S
C801   H804    1.110   .     S
C801   H802    1.107   .     S
C805   H806    1.109   .     S
C805   H807    1.105   .     S
C805   H808    1.107   .     S
C809   H811    1.107   .     S
C809   H812    1.105   .     S
C809   H810    1.109   .     S
C813   H814    1.103   .     S
C813   H815    1.109   .     S
C813   H816    1.111   .     S
C817   H819    1.111   .     S
C817   H820    1.110   .     S
C817   H818    1.103   .     S
O821   C825    1.293   .     A
O821   Cu833   1.972   .     S
O822   C826    1.293   .     A
O822   Cu834   1.972   .     S
O823   C826    1.290   .     A
O823   Cu833   1.978   .     S
O824   Cu834   1.978   .     S
O824   C825    1.290   .     A
C825   C860    1.461   .     S
C826   C859    1.461   .     S
O827   C831    1.290   .     A
O827   Cu833   1.959   .     S
O828   C832    1.289   .     A
O828   Cu834   1.959   .     S
O829   Cu833   1.961   .     S
O829   C832    1.292   .     A
O830   Cu834   1.961   .     S
O830   C831    1.292   .     A
C831   C838    1.448   .     S
C832   C837    1.447   .     S
Cu833  Cu834   2.680   .     S
Cu833  N869    2.014   .     S
Cu834  N870    2.014   .     S
C835   C845    1.402   .     A
C835   C837    1.386   .     A
C835   H851    1.080   .     S
C836   C846    1.403   .     A
C836   H852    1.080   .     S
C836   C838    1.388   .     A
C837   C839    1.388   .     A
C838   C840    1.388   .     A
C839   H853    1.079   .     S
C839   C841    1.404   .     A
C840   H854    1.079   .     S
C840   C842    1.403   .     A
C841   C847    1.415   .     A
C841   C843    1.418   .     A
C842   C848    1.416   .     A
C842   C844    1.419   .     A
C843   C845    1.418   .     A
C843   C106    1.403   1_556 S
C844   C846    1.419   .     A
C845   C850    1.414   .     A
C846   C849    1.416   .     A
C847   C871    1.514   .     S
C847   C111    1.415   1_556 S
C848   C875    1.516   .     S
C849   C879    1.518   .     S
C850   C883    1.515   .     S
C850   C110    1.413   1_556 S
C855   C887    1.524   .     S
C855   C860    1.417   .     A
C856   C891    1.523   .     S
C856   C859    1.417   .     A
C856   C940    1.410   .     S
C857   C859    1.416   .     A
C857   C895    1.520   .     S
C857   C937    1.409   .     S
C858   C899    1.521   .     S
C858   C860    1.416   .     A
C861   N870    1.367   .     A
C861   H865    1.081   .     S
C861   C1356   1.417   1_545 S
C862   H866    1.081   .     S
C862   N869    1.367   .     A
C862   C1109   1.417   .     S
C863   N870    1.367   .     A
C863   H867    1.082   .     S
C863   C1354   1.417   1_545 S
C864   N869    1.367   .     A
C864   H868    1.082   .     S
C864   C1107   1.417   .     S
C871   H872    1.110   .     S
C871   H874    1.110   .     S
C871   H873    1.107   .     S
C875   H876    1.110   .     S
C875   H877    1.106   .     S
C875   H878    1.110   .     S
C879   H880    1.106   .     S
C879   H881    1.110   .     S
C879   H882    1.110   .     S
C883   H885    1.110   .     S
C883   H886    1.110   .     S
C883   H884    1.107   .     S
C887   H888    1.109   .     S
C887   H889    1.105   .     S
C887   H890    1.107   .     S
C891   H893    1.107   .     S
C891   H894    1.105   .     S
C891   H892    1.109   .     S
C895   H896    1.103   .     S
C895   H897    1.109   .     S
C895   H898    1.111   .     S
C899   H901    1.111   .     S
C899   H902    1.110   .     S
C899   H900    1.103   .     S
O903   C907    1.293   .     A
O903   Cu915   1.972   .     S
O904   C908    1.293   .     A
O904   Cu916   1.972   .     S
O905   C908    1.290   .     A
O905   Cu915   1.978   .     S
O906   Cu916   1.978   .     S
O906   C907    1.290   .     A
C907   C942    1.461   .     S
C908   C941    1.461   .     S
O909   C913    1.290   .     A
O909   Cu915   1.959   .     S
O910   C914    1.289   .     A
O910   Cu916   1.959   .     S
O911   Cu915   1.961   .     S
O911   C914    1.292   .     A
O912   Cu916   1.961   .     S
O912   C913    1.292   .     A
C913   C920    1.448   .     S
C914   C919    1.447   .     S
Cu915  Cu916   2.680   .     S
Cu915  N951    2.014   .     S
Cu916  N952    2.014   .     S
C917   C927    1.402   .     A
C917   C919    1.386   .     A
C917   H933    1.080   .     S
C918   C928    1.403   .     A
C918   H934    1.080   .     S
C918   C920    1.388   .     A
C919   C921    1.388   .     A
C920   C922    1.388   .     A
C921   H935    1.079   .     S
C921   C923    1.404   .     A
C922   H936    1.079   .     S
C922   C924    1.403   .     A
C923   C929    1.415   .     A
C923   C925    1.418   .     A
C924   C930    1.416   .     A
C924   C926    1.419   .     A
C925   C927    1.418   .     A
C925   C188    1.403   1_556 S
C926   C928    1.419   .     A
C927   C932    1.414   .     A
C928   C931    1.416   .     A
C929   C953    1.514   .     S
C929   C193    1.415   1_556 S
C930   C957    1.516   .     S
C931   C961    1.518   .     S
C932   C965    1.515   .     S
C932   C192    1.413   1_556 S
C937   C969    1.524   .     S
C937   C942    1.417   .     A
C938   C973    1.523   .     S
C938   C941    1.417   .     A
C938   C776    1.410   1_655 S
C939   C941    1.416   .     A
C939   C977    1.520   .     S
C939   C773    1.409   1_655 S
C940   C981    1.521   .     S
C940   C942    1.416   .     A
C943   N952    1.367   .     A
C943   H947    1.081   .     S
C943   C1438   1.417   1_545 S
C944   H948    1.081   .     S
C944   N951    1.367   .     A
C944   C1191   1.417   .     S
C945   N952    1.367   .     A
C945   H949    1.082   .     S
C945   C1436   1.417   1_545 S
C946   N951    1.367   .     A
C946   H950    1.082   .     S
C946   C1189   1.417   .     S
C953   H954    1.110   .     S
C953   H956    1.110   .     S
C953   H955    1.107   .     S
C957   H958    1.110   .     S
C957   H959    1.106   .     S
C957   H960    1.110   .     S
C961   H962    1.106   .     S
C961   H963    1.110   .     S
C961   H964    1.110   .     S
C965   H967    1.110   .     S
C965   H968    1.110   .     S
C965   H966    1.107   .     S
C969   H970    1.109   .     S
C969   H971    1.105   .     S
C969   H972    1.107   .     S
C973   H975    1.107   .     S
C973   H976    1.105   .     S
C973   H974    1.109   .     S
C977   H978    1.103   .     S
C977   H979    1.109   .     S
C977   H980    1.111   .     S
C981   H983    1.111   .     S
C981   H984    1.110   .     S
C981   H982    1.103   .     S
O985   C989    1.293   .     A
O985   Cu997   1.972   .     S
O986   C990    1.293   .     A
O986   Cu998   1.972   .     S
O987   C990    1.290   .     A
O987   Cu997   1.978   .     S
O988   Cu998   1.978   .     S
O988   C989    1.290   .     A
C989   C1024   1.461   .     S
C990   C1023   1.461   .     S
O991   C995    1.290   .     A
O991   Cu997   1.959   .     S
O992   C996    1.289   .     A
O992   Cu998   1.959   .     S
O993   Cu997   1.961   .     S
O993   C996    1.292   .     A
O994   Cu998   1.961   .     S
O994   C995    1.292   .     A
C995   C1002   1.448   .     S
C996   C1001   1.447   .     S
Cu997  Cu998   2.680   .     S
Cu997  N1033   2.014   .     S
Cu998  N1034   2.014   .     S
C999   C1009   1.402   .     A
C999   C1001   1.386   .     A
C999   H1015   1.080   .     S
C1000  C1010   1.403   .     A
C1000  H1016   1.080   .     S
C1000  C1002   1.388   .     A
C1001  C1003   1.388   .     A
C1002  C1004   1.388   .     A
C1003  H1017   1.079   .     S
C1003  C1005   1.404   .     A
C1004  H1018   1.079   .     S
C1004  C1006   1.403   .     A
C1005  C1011   1.415   .     A
C1005  C1007   1.418   .     A
C1006  C1012   1.416   .     A
C1006  C1008   1.419   .     A
C1007  C1009   1.418   .     A
C1007  C270    1.403   1_556 S
C1008  C1010   1.419   .     A
C1009  C1014   1.414   .     A
C1010  C1013   1.416   .     A
C1011  C1035   1.514   .     S
C1011  C275    1.415   1_556 S
C1012  C1039   1.516   .     S
C1013  C1043   1.518   .     S
C1014  C1047   1.515   .     S
C1014  C274    1.413   1_556 S
C1019  C1051   1.524   .     S
C1019  C1024   1.417   .     A
C1019  C1185   1.409   1_455 S
C1020  C1055   1.523   .     S
C1020  C1023   1.417   .     A
C1020  C1104   1.410   .     S
C1021  C1023   1.416   .     A
C1021  C1059   1.520   .     S
C1021  C1101   1.409   .     S
C1022  C1063   1.521   .     S
C1022  C1024   1.416   .     A
C1022  C1184   1.410   1_455 S
C1025  N1034   1.367   .     A
C1025  H1029   1.081   .     S
C1026  H1030   1.081   .     S
C1026  N1033   1.367   .     A
C1026  C1273   1.417   .     S
C1027  N1034   1.367   .     A
C1027  H1031   1.082   .     S
C1028  N1033   1.367   .     A
C1028  H1032   1.082   .     S
C1028  C1271   1.417   .     S
C1035  H1036   1.110   .     S
C1035  H1038   1.110   .     S
C1035  H1037   1.107   .     S
C1039  H1040   1.110   .     S
C1039  H1041   1.106   .     S
C1039  H1042   1.110   .     S
C1043  H1044   1.106   .     S
C1043  H1045   1.110   .     S
C1043  H1046   1.110   .     S
C1047  H1049   1.110   .     S
C1047  H1050   1.110   .     S
C1047  H1048   1.107   .     S
C1051  H1052   1.109   .     S
C1051  H1053   1.105   .     S
C1051  H1054   1.107   .     S
C1055  H1057   1.107   .     S
C1055  H1058   1.105   .     S
C1055  H1056   1.109   .     S
C1059  H1060   1.103   .     S
C1059  H1061   1.109   .     S
C1059  H1062   1.111   .     S
C1063  H1065   1.111   .     S
C1063  H1066   1.110   .     S
C1063  H1064   1.103   .     S
O1067  C1071   1.293   .     A
O1067  Cu1079  1.972   .     S
O1068  C1072   1.293   .     A
O1068  Cu1080  1.972   .     S
O1069  C1072   1.290   .     A
O1069  Cu1079  1.978   .     S
O1070  Cu1080  1.978   .     S
O1070  C1071   1.290   .     A
C1071  C1106   1.461   .     S
C1072  C1105   1.461   .     S
O1073  C1077   1.290   .     A
O1073  Cu1079  1.959   .     S
O1074  C1078   1.289   .     A
O1074  Cu1080  1.959   .     S
O1075  Cu1079  1.961   .     S
O1075  C1078   1.292   .     A
O1076  Cu1080  1.961   .     S
O1076  C1077   1.292   .     A
C1077  C1084   1.448   .     S
C1078  C1083   1.447   .     S
Cu1079 Cu1080  2.680   .     S
Cu1079 N1115   2.014   .     S
Cu1080 N1116   2.014   .     S
C1081  C1091   1.402   .     A
C1081  C1083   1.386   .     A
C1081  H1097   1.080   .     S
C1082  C1092   1.403   .     A
C1082  H1098   1.080   .     S
C1082  C1084   1.388   .     A
C1083  C1085   1.388   .     A
C1084  C1086   1.388   .     A
C1085  H1099   1.079   .     S
C1085  C1087   1.404   .     A
C1086  H1100   1.079   .     S
C1086  C1088   1.403   .     A
C1087  C1093   1.415   .     A
C1087  C1089   1.418   .     A
C1088  C1094   1.416   .     A
C1088  C1090   1.419   .     A
C1089  C1091   1.418   .     A
C1089  C352    1.403   1_556 S
C1090  C1092   1.419   .     A
C1091  C1096   1.414   .     A
C1092  C1095   1.416   .     A
C1093  C1117   1.514   .     S
C1093  C357    1.415   1_556 S
C1094  C1121   1.516   .     S
C1095  C1125   1.518   .     S
C1096  C1129   1.515   .     S
C1096  C356    1.413   1_556 S
C1101  C1133   1.524   .     S
C1101  C1106   1.417   .     A
C1102  C1137   1.523   .     S
C1102  C1105   1.417   .     A
C1102  C1186   1.410   .     S
C1103  C1105   1.416   .     A
C1103  C1141   1.520   .     S
C1103  C1183   1.409   .     S
C1104  C1145   1.521   .     S
C1104  C1106   1.416   .     A
C1107  N1116   1.367   .     A
C1107  H1111   1.081   .     S
C1108  H1112   1.081   .     S
C1108  N1115   1.367   .     A
C1108  C1355   1.417   .     S
C1109  N1116   1.367   .     A
C1109  H1113   1.082   .     S
C1110  N1115   1.367   .     A
C1110  H1114   1.082   .     S
C1110  C1353   1.417   .     S
C1117  H1118   1.110   .     S
C1117  H1120   1.110   .     S
C1117  H1119   1.107   .     S
C1121  H1122   1.110   .     S
C1121  H1123   1.106   .     S
C1121  H1124   1.110   .     S
C1125  H1126   1.106   .     S
C1125  H1127   1.110   .     S
C1125  H1128   1.110   .     S
C1129  H1131   1.110   .     S
C1129  H1132   1.110   .     S
C1129  H1130   1.107   .     S
C1133  H1134   1.109   .     S
C1133  H1135   1.105   .     S
C1133  H1136   1.107   .     S
C1137  H1139   1.107   .     S
C1137  H1140   1.105   .     S
C1137  H1138   1.109   .     S
C1141  H1142   1.103   .     S
C1141  H1143   1.109   .     S
C1141  H1144   1.111   .     S
C1145  H1147   1.111   .     S
C1145  H1148   1.110   .     S
C1145  H1146   1.103   .     S
O1149  C1153   1.293   .     A
O1149  Cu1161  1.972   .     S
O1150  C1154   1.293   .     A
O1150  Cu1162  1.972   .     S
O1151  C1154   1.290   .     A
O1151  Cu1161  1.978   .     S
O1152  Cu1162  1.978   .     S
O1152  C1153   1.290   .     A
C1153  C1188   1.461   .     S
C1154  C1187   1.461   .     S
O1155  C1159   1.290   .     A
O1155  Cu1161  1.959   .     S
O1156  C1160   1.289   .     A
O1156  Cu1162  1.959   .     S
O1157  Cu1161  1.961   .     S
O1157  C1160   1.292   .     A
O1158  Cu1162  1.961   .     S
O1158  C1159   1.292   .     A
C1159  C1166   1.448   .     S
C1160  C1165   1.447   .     S
Cu1161 Cu1162  2.680   .     S
Cu1161 N1197   2.014   .     S
Cu1162 N1198   2.014   .     S
C1163  C1173   1.402   .     A
C1163  C1165   1.386   .     A
C1163  H1179   1.080   .     S
C1164  C1174   1.403   .     A
C1164  H1180   1.080   .     S
C1164  C1166   1.388   .     A
C1165  C1167   1.388   .     A
C1166  C1168   1.388   .     A
C1167  H1181   1.079   .     S
C1167  C1169   1.404   .     A
C1168  H1182   1.079   .     S
C1168  C1170   1.403   .     A
C1169  C1175   1.415   .     A
C1169  C1171   1.418   .     A
C1170  C1176   1.416   .     A
C1170  C1172   1.419   .     A
C1171  C1173   1.418   .     A
C1171  C434    1.403   1_556 S
C1172  C1174   1.419   .     A
C1173  C1178   1.414   .     A
C1174  C1177   1.416   .     A
C1175  C1199   1.514   .     S
C1175  C439    1.415   1_556 S
C1176  C1203   1.516   .     S
C1177  C1207   1.518   .     S
C1178  C1211   1.515   .     S
C1178  C438    1.413   1_556 S
C1183  C1215   1.524   .     S
C1183  C1188   1.417   .     A
C1184  C1219   1.523   .     S
C1184  C1187   1.417   .     A
C1184  C1022   1.410   1_655 S
C1185  C1187   1.416   .     A
C1185  C1223   1.520   .     S
C1185  C1019   1.409   1_655 S
C1186  C1227   1.521   .     S
C1186  C1188   1.416   .     A
C1189  N1198   1.367   .     A
C1189  H1193   1.081   .     S
C1190  H1194   1.081   .     S
C1190  N1197   1.367   .     A
C1190  C1437   1.417   .     S
C1191  N1198   1.367   .     A
C1191  H1195   1.082   .     S
C1192  N1197   1.367   .     A
C1192  H1196   1.082   .     S
C1192  C1435   1.417   .     S
C1199  H1200   1.110   .     S
C1199  H1202   1.110   .     S
C1199  H1201   1.107   .     S
C1203  H1204   1.110   .     S
C1203  H1205   1.106   .     S
C1203  H1206   1.110   .     S
C1207  H1208   1.106   .     S
C1207  H1209   1.110   .     S
C1207  H1210   1.110   .     S
C1211  H1213   1.110   .     S
C1211  H1214   1.110   .     S
C1211  H1212   1.107   .     S
C1215  H1216   1.109   .     S
C1215  H1217   1.105   .     S
C1215  H1218   1.107   .     S
C1219  H1221   1.107   .     S
C1219  H1222   1.105   .     S
C1219  H1220   1.109   .     S
C1223  H1224   1.103   .     S
C1223  H1225   1.109   .     S
C1223  H1226   1.111   .     S
C1227  H1229   1.111   .     S
C1227  H1230   1.110   .     S
C1227  H1228   1.103   .     S
O1231  C1235   1.293   .     A
O1231  Cu1243  1.972   .     S
O1232  C1236   1.293   .     A
O1232  Cu1244  1.972   .     S
O1233  C1236   1.290   .     A
O1233  Cu1243  1.978   .     S
O1234  Cu1244  1.978   .     S
O1234  C1235   1.290   .     A
C1235  C1270   1.461   .     S
C1236  C1269   1.461   .     S
O1237  C1241   1.290   .     A
O1237  Cu1243  1.959   .     S
O1238  C1242   1.289   .     A
O1238  Cu1244  1.959   .     S
O1239  Cu1243  1.961   .     S
O1239  C1242   1.292   .     A
O1240  Cu1244  1.961   .     S
O1240  C1241   1.292   .     A
C1241  C1248   1.448   .     S
C1242  C1247   1.447   .     S
Cu1243 Cu1244  2.680   .     S
Cu1243 N1279   2.014   .     S
Cu1244 N1280   2.014   .     S
C1245  C1255   1.402   .     A
C1245  C1247   1.386   .     A
C1245  H1261   1.080   .     S
C1246  C1256   1.403   .     A
C1246  H1262   1.080   .     S
C1246  C1248   1.388   .     A
C1247  C1249   1.388   .     A
C1248  C1250   1.388   .     A
C1249  H1263   1.079   .     S
C1249  C1251   1.404   .     A
C1250  H1264   1.079   .     S
C1250  C1252   1.403   .     A
C1251  C1257   1.415   .     A
C1251  C1253   1.418   .     A
C1252  C1258   1.416   .     A
C1252  C1254   1.419   .     A
C1253  C1255   1.418   .     A
C1253  C516    1.403   1_556 S
C1254  C1256   1.419   .     A
C1255  C1260   1.414   .     A
C1256  C1259   1.416   .     A
C1257  C1281   1.514   .     S
C1257  C521    1.415   1_556 S
C1258  C1285   1.516   .     S
C1259  C1289   1.518   .     S
C1260  C1293   1.515   .     S
C1260  C520    1.413   1_556 S
C1265  C1297   1.524   .     S
C1265  C1270   1.417   .     A
C1265  C1431   1.409   1_455 S
C1266  C1301   1.523   .     S
C1266  C1269   1.417   .     A
C1266  C1350   1.410   .     S
C1267  C1269   1.416   .     A
C1267  C1305   1.520   .     S
C1267  C1347   1.409   .     S
C1268  C1309   1.521   .     S
C1268  C1270   1.416   .     A
C1268  C1430   1.410   1_455 S
C1271  N1280   1.367   .     A
C1271  H1275   1.081   .     S
C1272  H1276   1.081   .     S
C1272  N1279   1.367   .     A
C1272  C781    1.417   1_565 S
C1273  N1280   1.367   .     A
C1273  H1277   1.082   .     S
C1274  N1279   1.367   .     A
C1274  H1278   1.082   .     S
C1274  C779    1.417   1_565 S
C1281  H1282   1.110   .     S
C1281  H1284   1.110   .     S
C1281  H1283   1.107   .     S
C1285  H1286   1.110   .     S
C1285  H1287   1.106   .     S
C1285  H1288   1.110   .     S
C1289  H1290   1.106   .     S
C1289  H1291   1.110   .     S
C1289  H1292   1.110   .     S
C1293  H1295   1.110   .     S
C1293  H1296   1.110   .     S
C1293  H1294   1.107   .     S
C1297  H1298   1.109   .     S
C1297  H1299   1.105   .     S
C1297  H1300   1.107   .     S
C1301  H1303   1.107   .     S
C1301  H1304   1.105   .     S
C1301  H1302   1.109   .     S
C1305  H1306   1.103   .     S
C1305  H1307   1.109   .     S
C1305  H1308   1.111   .     S
C1309  H1311   1.111   .     S
C1309  H1312   1.110   .     S
C1309  H1310   1.103   .     S
O1313  C1317   1.293   .     A
O1313  Cu1325  1.972   .     S
O1314  C1318   1.293   .     A
O1314  Cu1326  1.972   .     S
O1315  C1318   1.290   .     A
O1315  Cu1325  1.978   .     S
O1316  Cu1326  1.978   .     S
O1316  C1317   1.290   .     A
C1317  C1352   1.461   .     S
C1318  C1351   1.461   .     S
O1319  C1323   1.290   .     A
O1319  Cu1325  1.959   .     S
O1320  C1324   1.289   .     A
O1320  Cu1326  1.959   .     S
O1321  Cu1325  1.961   .     S
O1321  C1324   1.292   .     A
O1322  Cu1326  1.961   .     S
O1322  C1323   1.292   .     A
C1323  C1330   1.448   .     S
C1324  C1329   1.447   .     S
Cu1325 Cu1326  2.680   .     S
Cu1325 N1361   2.014   .     S
Cu1326 N1362   2.014   .     S
C1327  C1337   1.402   .     A
C1327  C1329   1.386   .     A
C1327  H1343   1.080   .     S
C1328  C1338   1.403   .     A
C1328  H1344   1.080   .     S
C1328  C1330   1.388   .     A
C1329  C1331   1.388   .     A
C1330  C1332   1.388   .     A
C1331  H1345   1.079   .     S
C1331  C1333   1.404   .     A
C1332  H1346   1.079   .     S
C1332  C1334   1.403   .     A
C1333  C1339   1.415   .     A
C1333  C1335   1.418   .     A
C1334  C1340   1.416   .     A
C1334  C1336   1.419   .     A
C1335  C1337   1.418   .     A
C1335  C598    1.403   1_556 S
C1336  C1338   1.419   .     A
C1337  C1342   1.414   .     A
C1338  C1341   1.416   .     A
C1339  C1363   1.514   .     S
C1339  C603    1.415   1_556 S
C1340  C1367   1.516   .     S
C1341  C1371   1.518   .     S
C1342  C1375   1.515   .     S
C1342  C602    1.413   1_556 S
C1347  C1379   1.524   .     S
C1347  C1352   1.417   .     A
C1348  C1383   1.523   .     S
C1348  C1351   1.417   .     A
C1348  C1432   1.410   .     S
C1349  C1351   1.416   .     A
C1349  C1387   1.520   .     S
C1349  C1429   1.409   .     S
C1350  C1391   1.521   .     S
C1350  C1352   1.416   .     A
C1353  N1362   1.367   .     A
C1353  H1357   1.081   .     S
C1354  H1358   1.081   .     S
C1354  N1361   1.367   .     A
C1354  C863    1.417   1_565 S
C1355  N1362   1.367   .     A
C1355  H1359   1.082   .     S
C1356  N1361   1.367   .     A
C1356  H1360   1.082   .     S
C1356  C861    1.417   1_565 S
C1363  H1364   1.110   .     S
C1363  H1366   1.110   .     S
C1363  H1365   1.107   .     S
C1367  H1368   1.110   .     S
C1367  H1369   1.106   .     S
C1367  H1370   1.110   .     S
C1371  H1372   1.106   .     S
C1371  H1373   1.110   .     S
C1371  H1374   1.110   .     S
C1375  H1377   1.110   .     S
C1375  H1378   1.110   .     S
C1375  H1376   1.107   .     S
C1379  H1380   1.109   .     S
C1379  H1381   1.105   .     S
C1379  H1382   1.107   .     S
C1383  H1385   1.107   .     S
C1383  H1386   1.105   .     S
C1383  H1384   1.109   .     S
C1387  H1388   1.103   .     S
C1387  H1389   1.109   .     S
C1387  H1390   1.111   .     S
C1391  H1393   1.111   .     S
C1391  H1394   1.110   .     S
C1391  H1392   1.103   .     S
O1395  C1399   1.293   .     A
O1395  Cu1407  1.972   .     S
O1396  C1400   1.293   .     A
O1396  Cu1408  1.972   .     S
O1397  C1400   1.290   .     A
O1397  Cu1407  1.978   .     S
O1398  Cu1408  1.978   .     S
O1398  C1399   1.290   .     A
C1399  C1434   1.461   .     S
C1400  C1433   1.461   .     S
O1401  C1405   1.290   .     A
O1401  Cu1407  1.959   .     S
O1402  C1406   1.289   .     A
O1402  Cu1408  1.959   .     S
O1403  Cu1407  1.961   .     S
O1403  C1406   1.292   .     A
O1404  Cu1408  1.961   .     S
O1404  C1405   1.292   .     A
C1405  C1412   1.448   .     S
C1406  C1411   1.447   .     S
Cu1407 Cu1408  2.680   .     S
Cu1407 N1443   2.014   .     S
Cu1408 N1444   2.014   .     S
C1409  C1419   1.402   .     A
C1409  C1411   1.386   .     A
C1409  H1425   1.080   .     S
C1410  C1420   1.403   .     A
C1410  H1426   1.080   .     S
C1410  C1412   1.388   .     A
C1411  C1413   1.388   .     A
C1412  C1414   1.388   .     A
C1413  H1427   1.079   .     S
C1413  C1415   1.404   .     A
C1414  H1428   1.079   .     S
C1414  C1416   1.403   .     A
C1415  C1421   1.415   .     A
C1415  C1417   1.418   .     A
C1416  C1422   1.416   .     A
C1416  C1418   1.419   .     A
C1417  C1419   1.418   .     A
C1417  C680    1.403   1_556 S
C1418  C1420   1.419   .     A
C1419  C1424   1.414   .     A
C1420  C1423   1.416   .     A
C1421  C1445   1.514   .     S
C1421  C685    1.415   1_556 S
C1422  C1449   1.516   .     S
C1423  C1453   1.518   .     S
C1424  C1457   1.515   .     S
C1424  C684    1.413   1_556 S
C1429  C1461   1.524   .     S
C1429  C1434   1.417   .     A
C1430  C1465   1.523   .     S
C1430  C1433   1.417   .     A
C1430  C1268   1.410   1_655 S
C1431  C1433   1.416   .     A
C1431  C1469   1.520   .     S
C1431  C1265   1.409   1_655 S
C1432  C1473   1.521   .     S
C1432  C1434   1.416   .     A
C1435  N1444   1.367   .     A
C1435  H1439   1.081   .     S
C1436  H1440   1.081   .     S
C1436  N1443   1.367   .     A
C1436  C945    1.417   1_565 S
C1437  N1444   1.367   .     A
C1437  H1441   1.082   .     S
C1438  N1443   1.367   .     A
C1438  H1442   1.082   .     S
C1438  C943    1.417   1_565 S
C1445  H1446   1.110   .     S
C1445  H1448   1.110   .     S
C1445  H1447   1.107   .     S
C1449  H1450   1.110   .     S
C1449  H1451   1.106   .     S
C1449  H1452   1.110   .     S
C1453  H1454   1.106   .     S
C1453  H1455   1.110   .     S
C1453  H1456   1.110   .     S
C1457  H1459   1.110   .     S
C1457  H1460   1.110   .     S
C1457  H1458   1.107   .     S
C1461  H1462   1.109   .     S
C1461  H1463   1.105   .     S
C1461  H1464   1.107   .     S
C1465  H1467   1.107   .     S
C1465  H1468   1.105   .     S
C1465  H1466   1.109   .     S
C1469  H1470   1.103   .     S
C1469  H1471   1.109   .     S
C1469  H1472   1.111   .     S
C1473  H1475   1.111   .     S
C1473  H1476   1.110   .     S
C1473  H1474   1.103   .     S
