data_str_m2_o1_o5_pcu_sym.10
_audit_creation_date              2020-01-03
_audit_creation_method            'Materials Studio'
_symmetry_space_group_name_H-M    'P1'
_symmetry_Int_Tables_number       1
_symmetry_cell_setting            triclinic
loop_
_symmetry_equiv_pos_as_xyz
  x,y,z
_cell_length_a                    32.8410
_cell_length_b                    28.5954
_cell_length_c                    27.2211
_cell_angle_alpha                 90.0026
_cell_angle_beta                  90.3030
_cell_angle_gamma                 90.0002
loop_
_atom_site_label
_atom_site_type_symbol
_atom_site_fract_x
_atom_site_fract_y
_atom_site_fract_z
_atom_site_U_iso_or_equiv
_atom_site_adp_type
_atom_site_occupancy
C1     C     0.08737   0.16666   0.16693   0.00000  Uiso   1.00
C2     C     0.02105   0.20917   0.17002   0.00000  Uiso   1.00
C3     C     0.29060   0.16663   0.16616   0.00000  Uiso   1.00
C4     C     0.04274   0.16663   0.16718   0.00000  Uiso   1.00
C5     C     0.15148   0.02476   0.12758   0.00000  Uiso   1.00
C6     C     0.18212   0.30857   0.20561   0.00000  Uiso   1.00
C7     C     0.18185   0.02476   0.20575   0.00000  Uiso   1.00
C8     C     0.15121   0.30857   0.12772   0.00000  Uiso   1.00
C9     C     0.03958   0.06696   0.11051   0.00000  Uiso   1.00
C10    C     0.04334   0.01408   0.10858   0.00000  Uiso   1.00
C11    C     0.29016   0.25900   0.10439   0.00000  Uiso   1.00
C12    C     0.24596   0.16666   0.16640   0.00000  Uiso   1.00
C13    C     0.26570   0.30316   0.09420   0.00000  Uiso   1.00
C14    C     0.29375   0.06696   0.22282   0.00000  Uiso   1.00
C15    C     0.29000   0.01408   0.22475   0.00000  Uiso   1.00
C16    C     0.04319   0.25900   0.22894   0.00000  Uiso   1.00
C17    C     0.06764   0.30318   0.23911   0.00000  Uiso   1.00
C18    C     0.16665   0.16667   0.07354   0.00000  Uiso   1.00
C19    C     0.16668   0.16667   0.25979   0.00000  Uiso   1.00
C20    C     0.16666   0.16667   0.02185   0.00000  Uiso   1.00
C21    C     0.16667   0.16667   0.31148   0.00000  Uiso   1.00
C22    C     0.02111   0.12413   0.16418   0.00000  Uiso   1.00
C23    C     0.31229   0.20917   0.16332   0.00000  Uiso   1.00
C24    C     0.31223   0.12413   0.16916   0.00000  Uiso   1.00
Cu25   Cu    0.16667   0.21355   0.16667   0.00000  Uiso   1.00
Cu26   Cu    0.16667   0.11978   0.16667   0.00000  Uiso   1.00
H27    H     0.13899   0.04321   0.09630   0.00000  Uiso   1.00
H28    H     0.27449   0.22941   0.08542   0.00000  Uiso   1.00
H29    H     0.32107   0.26328   0.08839   0.00000  Uiso   1.00
H30    H     0.26451   0.30985   0.05402   0.00000  Uiso   1.00
H31    H     0.23423   0.29878   0.10790   0.00000  Uiso   1.00
H32    H     0.27978   0.00043   0.11270   0.00000  Uiso   1.00
H33    H     0.26785   0.08279   0.24305   0.00000  Uiso   1.00
H34    H     0.32268   0.07647   0.24216   0.00000  Uiso   1.00
H35    H     0.31629   0.33137   0.20597   0.00000  Uiso   1.00
H36    H     0.28920   0.00198   0.26349   0.00000  Uiso   1.00
H37    H     0.26205   0.00254   0.20553   0.00000  Uiso   1.00
H38    H     0.19487   0.29012   0.23675   0.00000  Uiso   1.00
H39    H     0.05887   0.22942   0.24790   0.00000  Uiso   1.00
H40    H     0.01229   0.26328   0.24495   0.00000  Uiso   1.00
H41    H     0.05353   0.00044   0.22069   0.00000  Uiso   1.00
H42    H     0.06889   0.30984   0.27928   0.00000  Uiso   1.00
H43    H     0.09908   0.29884   0.22535   0.00000  Uiso   1.00
H44    H     0.19435   0.04321   0.23703   0.00000  Uiso   1.00
H45    H     0.13846   0.29011   0.09659   0.00000  Uiso   1.00
H46    H     0.06549   0.08279   0.09029   0.00000  Uiso   1.00
H47    H     0.01066   0.07647   0.09118   0.00000  Uiso   1.00
H48    H     0.01704   0.33138   0.12735   0.00000  Uiso   1.00
H49    H     0.04414   0.00198   0.06984   0.00000  Uiso   1.00
H50    H     0.07129   0.00254   0.12781   0.00000  Uiso   1.00
N51    N     0.16667   0.28402   0.16667   0.00000  Uiso   1.00
N52    N     0.16667   0.04931   0.16667   0.00000  Uiso   1.00
O53    O     0.10655   0.20625   0.16666   0.00000  Uiso   1.00
O54    O     0.29268   0.25138   0.15567   0.00000  Uiso   1.00
O55    O     0.29249   0.08159   0.17318   0.00000  Uiso   1.00
O56    O     0.04065   0.25138   0.17766   0.00000  Uiso   1.00
O57    O     0.22679   0.12709   0.16667   0.00000  Uiso   1.00
O58    O     0.22679   0.20625   0.16667   0.00000  Uiso   1.00
O59    O     0.10655   0.12709   0.16666   0.00000  Uiso   1.00
O60    O     0.16667   0.20625   0.09613   0.00000  Uiso   1.00
O61    O     0.16667   0.12708   0.23720   0.00000  Uiso   1.00
O62    O     0.16667   0.20625   0.23720   0.00000  Uiso   1.00
O63    O     0.16667   0.12708   0.09613   0.00000  Uiso   1.00
O64    O     0.04084   0.08159   0.16016   0.00000  Uiso   1.00
C65    C     0.42070   0.16666   0.16693   0.00000  Uiso   1.00
C66    C     0.35438   0.20917   0.17002   0.00000  Uiso   1.00
C67    C     0.62393   0.16663   0.16616   0.00000  Uiso   1.00
C68    C     0.37607   0.16663   0.16718   0.00000  Uiso   1.00
C69    C     0.48482   0.02476   0.12758   0.00000  Uiso   1.00
C70    C     0.51546   0.30857   0.20561   0.00000  Uiso   1.00
C71    C     0.51518   0.02476   0.20575   0.00000  Uiso   1.00
C72    C     0.48454   0.30857   0.12772   0.00000  Uiso   1.00
C73    C     0.37292   0.06696   0.11051   0.00000  Uiso   1.00
C74    C     0.37667   0.01408   0.10858   0.00000  Uiso   1.00
C75    C     0.62349   0.25900   0.10439   0.00000  Uiso   1.00
C76    C     0.57930   0.16666   0.16640   0.00000  Uiso   1.00
C77    C     0.59904   0.30316   0.09420   0.00000  Uiso   1.00
C78    C     0.62709   0.06696   0.22282   0.00000  Uiso   1.00
C79    C     0.62333   0.01408   0.22475   0.00000  Uiso   1.00
C80    C     0.37653   0.25900   0.22894   0.00000  Uiso   1.00
C81    C     0.40098   0.30318   0.23911   0.00000  Uiso   1.00
C82    C     0.49999   0.16667   0.07354   0.00000  Uiso   1.00
C83    C     0.50001   0.16667   0.25979   0.00000  Uiso   1.00
C84    C     0.50000   0.16667   0.02185   0.00000  Uiso   1.00
C85    C     0.50000   0.16667   0.31148   0.00000  Uiso   1.00
C86    C     0.35444   0.12413   0.16418   0.00000  Uiso   1.00
C87    C     0.64562   0.20917   0.16332   0.00000  Uiso   1.00
C88    C     0.64556   0.12413   0.16916   0.00000  Uiso   1.00
Cu89   Cu    0.50000   0.21355   0.16667   0.00000  Uiso   1.00
Cu90   Cu    0.50000   0.11978   0.16667   0.00000  Uiso   1.00
H91    H     0.47232   0.04321   0.09630   0.00000  Uiso   1.00
H92    H     0.60783   0.22941   0.08542   0.00000  Uiso   1.00
H93    H     0.65441   0.26328   0.08839   0.00000  Uiso   1.00
H94    H     0.59784   0.30985   0.05402   0.00000  Uiso   1.00
H95    H     0.56756   0.29878   0.10790   0.00000  Uiso   1.00
H96    H     0.61311   0.00043   0.11270   0.00000  Uiso   1.00
H97    H     0.60119   0.08279   0.24305   0.00000  Uiso   1.00
H98    H     0.65601   0.07647   0.24216   0.00000  Uiso   1.00
H99    H     0.64962   0.33137   0.20597   0.00000  Uiso   1.00
H100   H     0.62254   0.00198   0.26349   0.00000  Uiso   1.00
H101   H     0.59538   0.00254   0.20553   0.00000  Uiso   1.00
H102   H     0.52820   0.29012   0.23675   0.00000  Uiso   1.00
H103   H     0.39221   0.22942   0.24790   0.00000  Uiso   1.00
H104   H     0.34562   0.26328   0.24495   0.00000  Uiso   1.00
H105   H     0.38686   0.00044   0.22069   0.00000  Uiso   1.00
H106   H     0.40223   0.30984   0.27928   0.00000  Uiso   1.00
H107   H     0.43241   0.29884   0.22535   0.00000  Uiso   1.00
H108   H     0.52768   0.04321   0.23703   0.00000  Uiso   1.00
H109   H     0.47180   0.29011   0.09659   0.00000  Uiso   1.00
H110   H     0.39882   0.08279   0.09029   0.00000  Uiso   1.00
H111   H     0.34399   0.07647   0.09118   0.00000  Uiso   1.00
H112   H     0.35038   0.33138   0.12735   0.00000  Uiso   1.00
H113   H     0.37747   0.00198   0.06984   0.00000  Uiso   1.00
H114   H     0.40462   0.00254   0.12781   0.00000  Uiso   1.00
N115   N     0.50000   0.28402   0.16667   0.00000  Uiso   1.00
N116   N     0.50000   0.04931   0.16667   0.00000  Uiso   1.00
O117   O     0.43988   0.20625   0.16666   0.00000  Uiso   1.00
O118   O     0.62602   0.25138   0.15567   0.00000  Uiso   1.00
O119   O     0.62582   0.08159   0.17318   0.00000  Uiso   1.00
O120   O     0.37398   0.25138   0.17766   0.00000  Uiso   1.00
O121   O     0.56012   0.12709   0.16667   0.00000  Uiso   1.00
O122   O     0.56012   0.20625   0.16667   0.00000  Uiso   1.00
O123   O     0.43988   0.12709   0.16666   0.00000  Uiso   1.00
O124   O     0.50000   0.20625   0.09613   0.00000  Uiso   1.00
O125   O     0.50000   0.12708   0.23720   0.00000  Uiso   1.00
O126   O     0.50000   0.20625   0.23720   0.00000  Uiso   1.00
O127   O     0.50000   0.12708   0.09613   0.00000  Uiso   1.00
O128   O     0.37417   0.08159   0.16016   0.00000  Uiso   1.00
C129   C     0.75404   0.16666   0.16693   0.00000  Uiso   1.00
C130   C     0.68771   0.20917   0.17002   0.00000  Uiso   1.00
C131   C     0.95726   0.16663   0.16616   0.00000  Uiso   1.00
C132   C     0.70940   0.16663   0.16718   0.00000  Uiso   1.00
C133   C     0.81815   0.02476   0.12758   0.00000  Uiso   1.00
C134   C     0.84879   0.30857   0.20561   0.00000  Uiso   1.00
C135   C     0.84852   0.02476   0.20575   0.00000  Uiso   1.00
C136   C     0.81788   0.30857   0.12772   0.00000  Uiso   1.00
C137   C     0.70625   0.06696   0.11051   0.00000  Uiso   1.00
C138   C     0.71001   0.01408   0.10858   0.00000  Uiso   1.00
C139   C     0.95682   0.25900   0.10439   0.00000  Uiso   1.00
C140   C     0.91263   0.16666   0.16640   0.00000  Uiso   1.00
C141   C     0.93237   0.30316   0.09420   0.00000  Uiso   1.00
C142   C     0.96042   0.06696   0.22282   0.00000  Uiso   1.00
C143   C     0.95666   0.01408   0.22475   0.00000  Uiso   1.00
C144   C     0.70986   0.25900   0.22894   0.00000  Uiso   1.00
C145   C     0.73431   0.30318   0.23911   0.00000  Uiso   1.00
C146   C     0.83332   0.16667   0.07354   0.00000  Uiso   1.00
C147   C     0.83335   0.16667   0.25979   0.00000  Uiso   1.00
C148   C     0.83333   0.16667   0.02185   0.00000  Uiso   1.00
C149   C     0.83334   0.16667   0.31148   0.00000  Uiso   1.00
C150   C     0.68777   0.12413   0.16418   0.00000  Uiso   1.00
C151   C     0.97896   0.20917   0.16332   0.00000  Uiso   1.00
C152   C     0.97889   0.12413   0.16916   0.00000  Uiso   1.00
Cu153  Cu    0.83333   0.21355   0.16667   0.00000  Uiso   1.00
Cu154  Cu    0.83333   0.11978   0.16667   0.00000  Uiso   1.00
H155   H     0.80565   0.04321   0.09630   0.00000  Uiso   1.00
H156   H     0.94116   0.22941   0.08542   0.00000  Uiso   1.00
H157   H     0.98774   0.26328   0.08839   0.00000  Uiso   1.00
H158   H     0.93118   0.30985   0.05402   0.00000  Uiso   1.00
H159   H     0.90090   0.29878   0.10790   0.00000  Uiso   1.00
H160   H     0.94645   0.00043   0.11270   0.00000  Uiso   1.00
H161   H     0.93452   0.08279   0.24305   0.00000  Uiso   1.00
H162   H     0.98934   0.07647   0.24216   0.00000  Uiso   1.00
H163   H     0.98296   0.33137   0.20597   0.00000  Uiso   1.00
H164   H     0.95587   0.00198   0.26349   0.00000  Uiso   1.00
H165   H     0.92871   0.00254   0.20553   0.00000  Uiso   1.00
H166   H     0.86154   0.29012   0.23675   0.00000  Uiso   1.00
H167   H     0.72554   0.22942   0.24790   0.00000  Uiso   1.00
H168   H     0.67895   0.26328   0.24495   0.00000  Uiso   1.00
H169   H     0.72020   0.00044   0.22069   0.00000  Uiso   1.00
H170   H     0.73556   0.30984   0.27928   0.00000  Uiso   1.00
H171   H     0.76574   0.29884   0.22535   0.00000  Uiso   1.00
H172   H     0.86101   0.04321   0.23703   0.00000  Uiso   1.00
H173   H     0.80513   0.29011   0.09659   0.00000  Uiso   1.00
H174   H     0.73215   0.08279   0.09029   0.00000  Uiso   1.00
H175   H     0.67733   0.07647   0.09118   0.00000  Uiso   1.00
H176   H     0.68371   0.33138   0.12735   0.00000  Uiso   1.00
H177   H     0.71081   0.00198   0.06984   0.00000  Uiso   1.00
H178   H     0.73795   0.00254   0.12781   0.00000  Uiso   1.00
N179   N     0.83333   0.28402   0.16667   0.00000  Uiso   1.00
N180   N     0.83333   0.04931   0.16667   0.00000  Uiso   1.00
O181   O     0.77321   0.20625   0.16666   0.00000  Uiso   1.00
O182   O     0.95935   0.25138   0.15567   0.00000  Uiso   1.00
O183   O     0.95916   0.08159   0.17318   0.00000  Uiso   1.00
O184   O     0.70732   0.25138   0.17766   0.00000  Uiso   1.00
O185   O     0.89345   0.12709   0.16667   0.00000  Uiso   1.00
O186   O     0.89345   0.20625   0.16667   0.00000  Uiso   1.00
O187   O     0.77321   0.12709   0.16666   0.00000  Uiso   1.00
O188   O     0.83333   0.20625   0.09613   0.00000  Uiso   1.00
O189   O     0.83333   0.12708   0.23720   0.00000  Uiso   1.00
O190   O     0.83333   0.20625   0.23720   0.00000  Uiso   1.00
O191   O     0.83333   0.12708   0.09613   0.00000  Uiso   1.00
O192   O     0.70751   0.08159   0.16016   0.00000  Uiso   1.00
C193   C     0.08737   0.49999   0.16693   0.00000  Uiso   1.00
C194   C     0.02105   0.54251   0.17002   0.00000  Uiso   1.00
C195   C     0.29060   0.49996   0.16616   0.00000  Uiso   1.00
C196   C     0.04274   0.49996   0.16718   0.00000  Uiso   1.00
C197   C     0.15148   0.35809   0.12758   0.00000  Uiso   1.00
C198   C     0.18212   0.64191   0.20561   0.00000  Uiso   1.00
C199   C     0.18185   0.35809   0.20575   0.00000  Uiso   1.00
C200   C     0.15121   0.64190   0.12772   0.00000  Uiso   1.00
C201   C     0.03958   0.40030   0.11051   0.00000  Uiso   1.00
C202   C     0.04334   0.34742   0.10858   0.00000  Uiso   1.00
C203   C     0.29016   0.59233   0.10439   0.00000  Uiso   1.00
C204   C     0.24596   0.49999   0.16640   0.00000  Uiso   1.00
C205   C     0.26570   0.63649   0.09420   0.00000  Uiso   1.00
C206   C     0.29375   0.40030   0.22282   0.00000  Uiso   1.00
C207   C     0.29000   0.34742   0.22475   0.00000  Uiso   1.00
C208   C     0.04319   0.59234   0.22894   0.00000  Uiso   1.00
C209   C     0.06764   0.63651   0.23911   0.00000  Uiso   1.00
C210   C     0.16665   0.50000   0.07354   0.00000  Uiso   1.00
C211   C     0.16668   0.50000   0.25979   0.00000  Uiso   1.00
C212   C     0.16666   0.50001   0.02185   0.00000  Uiso   1.00
C213   C     0.16667   0.50001   0.31148   0.00000  Uiso   1.00
C214   C     0.02111   0.45747   0.16418   0.00000  Uiso   1.00
C215   C     0.31229   0.54251   0.16332   0.00000  Uiso   1.00
C216   C     0.31223   0.45747   0.16916   0.00000  Uiso   1.00
Cu217  Cu    0.16667   0.54689   0.16667   0.00000  Uiso   1.00
Cu218  Cu    0.16667   0.45311   0.16667   0.00000  Uiso   1.00
H219   H     0.13899   0.37654   0.09630   0.00000  Uiso   1.00
H220   H     0.27449   0.56274   0.08542   0.00000  Uiso   1.00
H221   H     0.32107   0.59661   0.08839   0.00000  Uiso   1.00
H222   H     0.26451   0.64318   0.05402   0.00000  Uiso   1.00
H223   H     0.23423   0.63211   0.10790   0.00000  Uiso   1.00
H224   H     0.27978   0.33376   0.11270   0.00000  Uiso   1.00
H225   H     0.26785   0.41612   0.24305   0.00000  Uiso   1.00
H226   H     0.32268   0.40980   0.24216   0.00000  Uiso   1.00
H227   H     0.31629   0.66471   0.20597   0.00000  Uiso   1.00
H228   H     0.28920   0.33531   0.26349   0.00000  Uiso   1.00
H229   H     0.26205   0.33587   0.20553   0.00000  Uiso   1.00
H230   H     0.19487   0.62345   0.23675   0.00000  Uiso   1.00
H231   H     0.05887   0.56276   0.24790   0.00000  Uiso   1.00
H232   H     0.01229   0.59661   0.24495   0.00000  Uiso   1.00
H233   H     0.05353   0.33377   0.22069   0.00000  Uiso   1.00
H234   H     0.06889   0.64318   0.27928   0.00000  Uiso   1.00
H235   H     0.09908   0.63217   0.22535   0.00000  Uiso   1.00
H236   H     0.19435   0.37655   0.23703   0.00000  Uiso   1.00
H237   H     0.13846   0.62345   0.09659   0.00000  Uiso   1.00
H238   H     0.06549   0.41612   0.09029   0.00000  Uiso   1.00
H239   H     0.01066   0.40980   0.09118   0.00000  Uiso   1.00
H240   H     0.01704   0.66471   0.12735   0.00000  Uiso   1.00
H241   H     0.04414   0.33532   0.06984   0.00000  Uiso   1.00
H242   H     0.07129   0.33587   0.12781   0.00000  Uiso   1.00
N243   N     0.16667   0.61736   0.16667   0.00000  Uiso   1.00
N244   N     0.16667   0.38264   0.16667   0.00000  Uiso   1.00
O245   O     0.10655   0.53958   0.16666   0.00000  Uiso   1.00
O246   O     0.29268   0.58471   0.15567   0.00000  Uiso   1.00
O247   O     0.29249   0.41492   0.17318   0.00000  Uiso   1.00
O248   O     0.04065   0.58472   0.17766   0.00000  Uiso   1.00
O249   O     0.22679   0.46042   0.16667   0.00000  Uiso   1.00
O250   O     0.22679   0.53958   0.16667   0.00000  Uiso   1.00
O251   O     0.10655   0.46042   0.16666   0.00000  Uiso   1.00
O252   O     0.16667   0.53959   0.09613   0.00000  Uiso   1.00
O253   O     0.16667   0.46041   0.23720   0.00000  Uiso   1.00
O254   O     0.16667   0.53959   0.23720   0.00000  Uiso   1.00
O255   O     0.16667   0.46041   0.09613   0.00000  Uiso   1.00
O256   O     0.04084   0.41492   0.16016   0.00000  Uiso   1.00
C257   C     0.42070   0.49999   0.16693   0.00000  Uiso   1.00
C258   C     0.35438   0.54251   0.17002   0.00000  Uiso   1.00
C259   C     0.62393   0.49996   0.16616   0.00000  Uiso   1.00
C260   C     0.37607   0.49996   0.16718   0.00000  Uiso   1.00
C261   C     0.48482   0.35809   0.12758   0.00000  Uiso   1.00
C262   C     0.51546   0.64191   0.20561   0.00000  Uiso   1.00
C263   C     0.51518   0.35809   0.20575   0.00000  Uiso   1.00
C264   C     0.48454   0.64190   0.12772   0.00000  Uiso   1.00
C265   C     0.37292   0.40030   0.11051   0.00000  Uiso   1.00
C266   C     0.37667   0.34742   0.10858   0.00000  Uiso   1.00
C267   C     0.62349   0.59233   0.10439   0.00000  Uiso   1.00
C268   C     0.57930   0.49999   0.16640   0.00000  Uiso   1.00
C269   C     0.59904   0.63649   0.09420   0.00000  Uiso   1.00
C270   C     0.62709   0.40030   0.22282   0.00000  Uiso   1.00
C271   C     0.62333   0.34742   0.22475   0.00000  Uiso   1.00
C272   C     0.37653   0.59234   0.22894   0.00000  Uiso   1.00
C273   C     0.40098   0.63651   0.23911   0.00000  Uiso   1.00
C274   C     0.49999   0.50000   0.07354   0.00000  Uiso   1.00
C275   C     0.50001   0.50000   0.25979   0.00000  Uiso   1.00
C276   C     0.50000   0.50001   0.02185   0.00000  Uiso   1.00
C277   C     0.50000   0.50001   0.31148   0.00000  Uiso   1.00
C278   C     0.35444   0.45747   0.16418   0.00000  Uiso   1.00
C279   C     0.64562   0.54251   0.16332   0.00000  Uiso   1.00
C280   C     0.64556   0.45747   0.16916   0.00000  Uiso   1.00
Cu281  Cu    0.50000   0.54689   0.16667   0.00000  Uiso   1.00
Cu282  Cu    0.50000   0.45311   0.16667   0.00000  Uiso   1.00
H283   H     0.47232   0.37654   0.09630   0.00000  Uiso   1.00
H284   H     0.60783   0.56274   0.08542   0.00000  Uiso   1.00
H285   H     0.65441   0.59661   0.08839   0.00000  Uiso   1.00
H286   H     0.59784   0.64318   0.05402   0.00000  Uiso   1.00
H287   H     0.56756   0.63211   0.10790   0.00000  Uiso   1.00
H288   H     0.61311   0.33376   0.11270   0.00000  Uiso   1.00
H289   H     0.60119   0.41612   0.24305   0.00000  Uiso   1.00
H290   H     0.65601   0.40980   0.24216   0.00000  Uiso   1.00
H291   H     0.64962   0.66471   0.20597   0.00000  Uiso   1.00
H292   H     0.62254   0.33531   0.26349   0.00000  Uiso   1.00
H293   H     0.59538   0.33587   0.20553   0.00000  Uiso   1.00
H294   H     0.52820   0.62345   0.23675   0.00000  Uiso   1.00
H295   H     0.39221   0.56276   0.24790   0.00000  Uiso   1.00
H296   H     0.34562   0.59661   0.24495   0.00000  Uiso   1.00
H297   H     0.38686   0.33377   0.22069   0.00000  Uiso   1.00
H298   H     0.40223   0.64318   0.27928   0.00000  Uiso   1.00
H299   H     0.43241   0.63217   0.22535   0.00000  Uiso   1.00
H300   H     0.52768   0.37655   0.23703   0.00000  Uiso   1.00
H301   H     0.47180   0.62345   0.09659   0.00000  Uiso   1.00
H302   H     0.39882   0.41612   0.09029   0.00000  Uiso   1.00
H303   H     0.34399   0.40980   0.09118   0.00000  Uiso   1.00
H304   H     0.35038   0.66471   0.12735   0.00000  Uiso   1.00
H305   H     0.37747   0.33532   0.06984   0.00000  Uiso   1.00
H306   H     0.40462   0.33587   0.12781   0.00000  Uiso   1.00
N307   N     0.50000   0.61736   0.16667   0.00000  Uiso   1.00
N308   N     0.50000   0.38264   0.16667   0.00000  Uiso   1.00
O309   O     0.43988   0.53958   0.16666   0.00000  Uiso   1.00
O310   O     0.62602   0.58471   0.15567   0.00000  Uiso   1.00
O311   O     0.62582   0.41492   0.17318   0.00000  Uiso   1.00
O312   O     0.37398   0.58472   0.17766   0.00000  Uiso   1.00
O313   O     0.56012   0.46042   0.16667   0.00000  Uiso   1.00
O314   O     0.56012   0.53958   0.16667   0.00000  Uiso   1.00
O315   O     0.43988   0.46042   0.16666   0.00000  Uiso   1.00
O316   O     0.50000   0.53959   0.09613   0.00000  Uiso   1.00
O317   O     0.50000   0.46041   0.23720   0.00000  Uiso   1.00
O318   O     0.50000   0.53959   0.23720   0.00000  Uiso   1.00
O319   O     0.50000   0.46041   0.09613   0.00000  Uiso   1.00
O320   O     0.37417   0.41492   0.16016   0.00000  Uiso   1.00
C321   C     0.75404   0.49999   0.16693   0.00000  Uiso   1.00
C322   C     0.68771   0.54251   0.17002   0.00000  Uiso   1.00
C323   C     0.95726   0.49996   0.16616   0.00000  Uiso   1.00
C324   C     0.70940   0.49996   0.16718   0.00000  Uiso   1.00
C325   C     0.81815   0.35809   0.12758   0.00000  Uiso   1.00
C326   C     0.84879   0.64191   0.20561   0.00000  Uiso   1.00
C327   C     0.84852   0.35809   0.20575   0.00000  Uiso   1.00
C328   C     0.81788   0.64190   0.12772   0.00000  Uiso   1.00
C329   C     0.70625   0.40030   0.11051   0.00000  Uiso   1.00
C330   C     0.71001   0.34742   0.10858   0.00000  Uiso   1.00
C331   C     0.95682   0.59233   0.10439   0.00000  Uiso   1.00
C332   C     0.91263   0.49999   0.16640   0.00000  Uiso   1.00
C333   C     0.93237   0.63649   0.09420   0.00000  Uiso   1.00
C334   C     0.96042   0.40030   0.22282   0.00000  Uiso   1.00
C335   C     0.95666   0.34742   0.22475   0.00000  Uiso   1.00
C336   C     0.70986   0.59234   0.22894   0.00000  Uiso   1.00
C337   C     0.73431   0.63651   0.23911   0.00000  Uiso   1.00
C338   C     0.83332   0.50000   0.07354   0.00000  Uiso   1.00
C339   C     0.83335   0.50000   0.25979   0.00000  Uiso   1.00
C340   C     0.83333   0.50001   0.02185   0.00000  Uiso   1.00
C341   C     0.83334   0.50001   0.31148   0.00000  Uiso   1.00
C342   C     0.68777   0.45747   0.16418   0.00000  Uiso   1.00
C343   C     0.97896   0.54251   0.16332   0.00000  Uiso   1.00
C344   C     0.97889   0.45747   0.16916   0.00000  Uiso   1.00
Cu345  Cu    0.83333   0.54689   0.16667   0.00000  Uiso   1.00
Cu346  Cu    0.83333   0.45311   0.16667   0.00000  Uiso   1.00
H347   H     0.80565   0.37654   0.09630   0.00000  Uiso   1.00
H348   H     0.94116   0.56274   0.08542   0.00000  Uiso   1.00
H349   H     0.98774   0.59661   0.08839   0.00000  Uiso   1.00
H350   H     0.93118   0.64318   0.05402   0.00000  Uiso   1.00
H351   H     0.90090   0.63211   0.10790   0.00000  Uiso   1.00
H352   H     0.94645   0.33376   0.11270   0.00000  Uiso   1.00
H353   H     0.93452   0.41612   0.24305   0.00000  Uiso   1.00
H354   H     0.98934   0.40980   0.24216   0.00000  Uiso   1.00
H355   H     0.98296   0.66471   0.20597   0.00000  Uiso   1.00
H356   H     0.95587   0.33531   0.26349   0.00000  Uiso   1.00
H357   H     0.92871   0.33587   0.20553   0.00000  Uiso   1.00
H358   H     0.86154   0.62345   0.23675   0.00000  Uiso   1.00
H359   H     0.72554   0.56276   0.24790   0.00000  Uiso   1.00
H360   H     0.67895   0.59661   0.24495   0.00000  Uiso   1.00
H361   H     0.72020   0.33377   0.22069   0.00000  Uiso   1.00
H362   H     0.73556   0.64318   0.27928   0.00000  Uiso   1.00
H363   H     0.76574   0.63217   0.22535   0.00000  Uiso   1.00
H364   H     0.86101   0.37655   0.23703   0.00000  Uiso   1.00
H365   H     0.80513   0.62345   0.09659   0.00000  Uiso   1.00
H366   H     0.73215   0.41612   0.09029   0.00000  Uiso   1.00
H367   H     0.67733   0.40980   0.09118   0.00000  Uiso   1.00
H368   H     0.68371   0.66471   0.12735   0.00000  Uiso   1.00
H369   H     0.71081   0.33532   0.06984   0.00000  Uiso   1.00
H370   H     0.73795   0.33587   0.12781   0.00000  Uiso   1.00
N371   N     0.83333   0.61736   0.16667   0.00000  Uiso   1.00
N372   N     0.83333   0.38264   0.16667   0.00000  Uiso   1.00
O373   O     0.77321   0.53958   0.16666   0.00000  Uiso   1.00
O374   O     0.95935   0.58471   0.15567   0.00000  Uiso   1.00
O375   O     0.95916   0.41492   0.17318   0.00000  Uiso   1.00
O376   O     0.70732   0.58472   0.17766   0.00000  Uiso   1.00
O377   O     0.89345   0.46042   0.16667   0.00000  Uiso   1.00
O378   O     0.89345   0.53958   0.16667   0.00000  Uiso   1.00
O379   O     0.77321   0.46042   0.16666   0.00000  Uiso   1.00
O380   O     0.83333   0.53959   0.09613   0.00000  Uiso   1.00
O381   O     0.83333   0.46041   0.23720   0.00000  Uiso   1.00
O382   O     0.83333   0.53959   0.23720   0.00000  Uiso   1.00
O383   O     0.83333   0.46041   0.09613   0.00000  Uiso   1.00
O384   O     0.70751   0.41492   0.16016   0.00000  Uiso   1.00
C385   C     0.08737   0.83332   0.16693   0.00000  Uiso   1.00
C386   C     0.02105   0.87584   0.17002   0.00000  Uiso   1.00
C387   C     0.29060   0.83330   0.16616   0.00000  Uiso   1.00
C388   C     0.04274   0.83330   0.16718   0.00000  Uiso   1.00
C389   C     0.15148   0.69142   0.12758   0.00000  Uiso   1.00
C390   C     0.18212   0.97524   0.20561   0.00000  Uiso   1.00
C391   C     0.18185   0.69143   0.20575   0.00000  Uiso   1.00
C392   C     0.15121   0.97524   0.12772   0.00000  Uiso   1.00
C393   C     0.03958   0.73363   0.11051   0.00000  Uiso   1.00
C394   C     0.04334   0.68075   0.10858   0.00000  Uiso   1.00
C395   C     0.29016   0.92566   0.10439   0.00000  Uiso   1.00
C396   C     0.24596   0.83332   0.16640   0.00000  Uiso   1.00
C397   C     0.26570   0.96983   0.09420   0.00000  Uiso   1.00
C398   C     0.29375   0.73363   0.22282   0.00000  Uiso   1.00
C399   C     0.29000   0.68075   0.22475   0.00000  Uiso   1.00
C400   C     0.04319   0.92567   0.22894   0.00000  Uiso   1.00
C401   C     0.06764   0.96984   0.23911   0.00000  Uiso   1.00
C402   C     0.16665   0.83333   0.07354   0.00000  Uiso   1.00
C403   C     0.16668   0.83334   0.25979   0.00000  Uiso   1.00
C404   C     0.16666   0.83334   0.02185   0.00000  Uiso   1.00
C405   C     0.16667   0.83334   0.31148   0.00000  Uiso   1.00
C406   C     0.02111   0.79080   0.16418   0.00000  Uiso   1.00
C407   C     0.31229   0.87584   0.16332   0.00000  Uiso   1.00
C408   C     0.31223   0.79080   0.16916   0.00000  Uiso   1.00
Cu409  Cu    0.16667   0.88022   0.16667   0.00000  Uiso   1.00
Cu410  Cu    0.16667   0.78645   0.16667   0.00000  Uiso   1.00
H411   H     0.13899   0.70987   0.09630   0.00000  Uiso   1.00
H412   H     0.27449   0.89608   0.08542   0.00000  Uiso   1.00
H413   H     0.32107   0.92995   0.08839   0.00000  Uiso   1.00
H414   H     0.26451   0.97651   0.05402   0.00000  Uiso   1.00
H415   H     0.23423   0.96545   0.10790   0.00000  Uiso   1.00
H416   H     0.27978   0.66709   0.11270   0.00000  Uiso   1.00
H417   H     0.26785   0.74945   0.24305   0.00000  Uiso   1.00
H418   H     0.32268   0.74313   0.24216   0.00000  Uiso   1.00
H419   H     0.31629   0.99804   0.20597   0.00000  Uiso   1.00
H420   H     0.28920   0.66865   0.26349   0.00000  Uiso   1.00
H421   H     0.26205   0.66921   0.20553   0.00000  Uiso   1.00
H422   H     0.19487   0.95679   0.23675   0.00000  Uiso   1.00
H423   H     0.05887   0.89609   0.24790   0.00000  Uiso   1.00
H424   H     0.01229   0.92995   0.24495   0.00000  Uiso   1.00
H425   H     0.05353   0.66710   0.22069   0.00000  Uiso   1.00
H426   H     0.06889   0.97651   0.27928   0.00000  Uiso   1.00
H427   H     0.09908   0.96550   0.22535   0.00000  Uiso   1.00
H428   H     0.19435   0.70988   0.23703   0.00000  Uiso   1.00
H429   H     0.13846   0.95678   0.09659   0.00000  Uiso   1.00
H430   H     0.06549   0.74946   0.09029   0.00000  Uiso   1.00
H431   H     0.01066   0.74314   0.09118   0.00000  Uiso   1.00
H432   H     0.01704   0.99804   0.12735   0.00000  Uiso   1.00
H433   H     0.04414   0.66865   0.06984   0.00000  Uiso   1.00
H434   H     0.07129   0.66921   0.12781   0.00000  Uiso   1.00
N435   N     0.16667   0.95069   0.16667   0.00000  Uiso   1.00
N436   N     0.16667   0.71598   0.16667   0.00000  Uiso   1.00
O437   O     0.10655   0.87291   0.16666   0.00000  Uiso   1.00
O438   O     0.29268   0.91805   0.15567   0.00000  Uiso   1.00
O439   O     0.29249   0.74826   0.17318   0.00000  Uiso   1.00
O440   O     0.04065   0.91805   0.17766   0.00000  Uiso   1.00
O441   O     0.22679   0.79375   0.16667   0.00000  Uiso   1.00
O442   O     0.22679   0.87291   0.16667   0.00000  Uiso   1.00
O443   O     0.10655   0.79375   0.16666   0.00000  Uiso   1.00
O444   O     0.16667   0.87292   0.09613   0.00000  Uiso   1.00
O445   O     0.16667   0.79375   0.23720   0.00000  Uiso   1.00
O446   O     0.16667   0.87292   0.23720   0.00000  Uiso   1.00
O447   O     0.16667   0.79375   0.09613   0.00000  Uiso   1.00
O448   O     0.04084   0.74826   0.16016   0.00000  Uiso   1.00
C449   C     0.42070   0.83332   0.16693   0.00000  Uiso   1.00
C450   C     0.35438   0.87584   0.17002   0.00000  Uiso   1.00
C451   C     0.62393   0.83330   0.16616   0.00000  Uiso   1.00
C452   C     0.37607   0.83330   0.16718   0.00000  Uiso   1.00
C453   C     0.48482   0.69142   0.12758   0.00000  Uiso   1.00
C454   C     0.51546   0.97524   0.20561   0.00000  Uiso   1.00
C455   C     0.51518   0.69143   0.20575   0.00000  Uiso   1.00
C456   C     0.48454   0.97524   0.12772   0.00000  Uiso   1.00
C457   C     0.37292   0.73363   0.11051   0.00000  Uiso   1.00
C458   C     0.37667   0.68075   0.10858   0.00000  Uiso   1.00
C459   C     0.62349   0.92566   0.10439   0.00000  Uiso   1.00
C460   C     0.57930   0.83332   0.16640   0.00000  Uiso   1.00
C461   C     0.59904   0.96983   0.09420   0.00000  Uiso   1.00
C462   C     0.62709   0.73363   0.22282   0.00000  Uiso   1.00
C463   C     0.62333   0.68075   0.22475   0.00000  Uiso   1.00
C464   C     0.37653   0.92567   0.22894   0.00000  Uiso   1.00
C465   C     0.40098   0.96984   0.23911   0.00000  Uiso   1.00
C466   C     0.49999   0.83333   0.07354   0.00000  Uiso   1.00
C467   C     0.50001   0.83334   0.25979   0.00000  Uiso   1.00
C468   C     0.50000   0.83334   0.02185   0.00000  Uiso   1.00
C469   C     0.50000   0.83334   0.31148   0.00000  Uiso   1.00
C470   C     0.35444   0.79080   0.16418   0.00000  Uiso   1.00
C471   C     0.64562   0.87584   0.16332   0.00000  Uiso   1.00
C472   C     0.64556   0.79080   0.16916   0.00000  Uiso   1.00
Cu473  Cu    0.50000   0.88022   0.16667   0.00000  Uiso   1.00
Cu474  Cu    0.50000   0.78645   0.16667   0.00000  Uiso   1.00
H475   H     0.47232   0.70987   0.09630   0.00000  Uiso   1.00
H476   H     0.60783   0.89608   0.08542   0.00000  Uiso   1.00
H477   H     0.65441   0.92995   0.08839   0.00000  Uiso   1.00
H478   H     0.59784   0.97651   0.05402   0.00000  Uiso   1.00
H479   H     0.56756   0.96545   0.10790   0.00000  Uiso   1.00
H480   H     0.61311   0.66709   0.11270   0.00000  Uiso   1.00
H481   H     0.60119   0.74945   0.24305   0.00000  Uiso   1.00
H482   H     0.65601   0.74313   0.24216   0.00000  Uiso   1.00
H483   H     0.64962   0.99804   0.20597   0.00000  Uiso   1.00
H484   H     0.62254   0.66865   0.26349   0.00000  Uiso   1.00
H485   H     0.59538   0.66921   0.20553   0.00000  Uiso   1.00
H486   H     0.52820   0.95679   0.23675   0.00000  Uiso   1.00
H487   H     0.39221   0.89609   0.24790   0.00000  Uiso   1.00
H488   H     0.34562   0.92995   0.24495   0.00000  Uiso   1.00
H489   H     0.38686   0.66710   0.22069   0.00000  Uiso   1.00
H490   H     0.40223   0.97651   0.27928   0.00000  Uiso   1.00
H491   H     0.43241   0.96550   0.22535   0.00000  Uiso   1.00
H492   H     0.52768   0.70988   0.23703   0.00000  Uiso   1.00
H493   H     0.47180   0.95678   0.09659   0.00000  Uiso   1.00
H494   H     0.39882   0.74946   0.09029   0.00000  Uiso   1.00
H495   H     0.34399   0.74314   0.09118   0.00000  Uiso   1.00
H496   H     0.35038   0.99804   0.12735   0.00000  Uiso   1.00
H497   H     0.37747   0.66865   0.06984   0.00000  Uiso   1.00
H498   H     0.40462   0.66921   0.12781   0.00000  Uiso   1.00
N499   N     0.50000   0.95069   0.16667   0.00000  Uiso   1.00
N500   N     0.50000   0.71598   0.16667   0.00000  Uiso   1.00
O501   O     0.43988   0.87291   0.16666   0.00000  Uiso   1.00
O502   O     0.62602   0.91805   0.15567   0.00000  Uiso   1.00
O503   O     0.62582   0.74826   0.17318   0.00000  Uiso   1.00
O504   O     0.37398   0.91805   0.17766   0.00000  Uiso   1.00
O505   O     0.56012   0.79375   0.16667   0.00000  Uiso   1.00
O506   O     0.56012   0.87291   0.16667   0.00000  Uiso   1.00
O507   O     0.43988   0.79375   0.16666   0.00000  Uiso   1.00
O508   O     0.50000   0.87292   0.09613   0.00000  Uiso   1.00
O509   O     0.50000   0.79375   0.23720   0.00000  Uiso   1.00
O510   O     0.50000   0.87292   0.23720   0.00000  Uiso   1.00
O511   O     0.50000   0.79375   0.09613   0.00000  Uiso   1.00
O512   O     0.37417   0.74826   0.16016   0.00000  Uiso   1.00
C513   C     0.75404   0.83332   0.16693   0.00000  Uiso   1.00
C514   C     0.68771   0.87584   0.17002   0.00000  Uiso   1.00
C515   C     0.95726   0.83330   0.16616   0.00000  Uiso   1.00
C516   C     0.70940   0.83330   0.16718   0.00000  Uiso   1.00
C517   C     0.81815   0.69142   0.12758   0.00000  Uiso   1.00
C518   C     0.84879   0.97524   0.20561   0.00000  Uiso   1.00
C519   C     0.84852   0.69143   0.20575   0.00000  Uiso   1.00
C520   C     0.81788   0.97524   0.12772   0.00000  Uiso   1.00
C521   C     0.70625   0.73363   0.11051   0.00000  Uiso   1.00
C522   C     0.71001   0.68075   0.10858   0.00000  Uiso   1.00
C523   C     0.95682   0.92566   0.10439   0.00000  Uiso   1.00
C524   C     0.91263   0.83332   0.16640   0.00000  Uiso   1.00
C525   C     0.93237   0.96983   0.09420   0.00000  Uiso   1.00
C526   C     0.96042   0.73363   0.22282   0.00000  Uiso   1.00
C527   C     0.95666   0.68075   0.22475   0.00000  Uiso   1.00
C528   C     0.70986   0.92567   0.22894   0.00000  Uiso   1.00
C529   C     0.73431   0.96984   0.23911   0.00000  Uiso   1.00
C530   C     0.83332   0.83333   0.07354   0.00000  Uiso   1.00
C531   C     0.83335   0.83334   0.25979   0.00000  Uiso   1.00
C532   C     0.83333   0.83334   0.02185   0.00000  Uiso   1.00
C533   C     0.83334   0.83334   0.31148   0.00000  Uiso   1.00
C534   C     0.68777   0.79080   0.16418   0.00000  Uiso   1.00
C535   C     0.97896   0.87584   0.16332   0.00000  Uiso   1.00
C536   C     0.97889   0.79080   0.16916   0.00000  Uiso   1.00
Cu537  Cu    0.83333   0.88022   0.16667   0.00000  Uiso   1.00
Cu538  Cu    0.83333   0.78645   0.16667   0.00000  Uiso   1.00
H539   H     0.80565   0.70987   0.09630   0.00000  Uiso   1.00
H540   H     0.94116   0.89608   0.08542   0.00000  Uiso   1.00
H541   H     0.98774   0.92995   0.08839   0.00000  Uiso   1.00
H542   H     0.93118   0.97651   0.05402   0.00000  Uiso   1.00
H543   H     0.90090   0.96545   0.10790   0.00000  Uiso   1.00
H544   H     0.94645   0.66709   0.11270   0.00000  Uiso   1.00
H545   H     0.93452   0.74945   0.24305   0.00000  Uiso   1.00
H546   H     0.98934   0.74313   0.24216   0.00000  Uiso   1.00
H547   H     0.98296   0.99804   0.20597   0.00000  Uiso   1.00
H548   H     0.95587   0.66865   0.26349   0.00000  Uiso   1.00
H549   H     0.92871   0.66921   0.20553   0.00000  Uiso   1.00
H550   H     0.86154   0.95679   0.23675   0.00000  Uiso   1.00
H551   H     0.72554   0.89609   0.24790   0.00000  Uiso   1.00
H552   H     0.67895   0.92995   0.24495   0.00000  Uiso   1.00
H553   H     0.72020   0.66710   0.22069   0.00000  Uiso   1.00
H554   H     0.73556   0.97651   0.27928   0.00000  Uiso   1.00
H555   H     0.76574   0.96550   0.22535   0.00000  Uiso   1.00
H556   H     0.86101   0.70988   0.23703   0.00000  Uiso   1.00
H557   H     0.80513   0.95678   0.09659   0.00000  Uiso   1.00
H558   H     0.73215   0.74946   0.09029   0.00000  Uiso   1.00
H559   H     0.67733   0.74314   0.09118   0.00000  Uiso   1.00
H560   H     0.68371   0.99804   0.12735   0.00000  Uiso   1.00
H561   H     0.71081   0.66865   0.06984   0.00000  Uiso   1.00
H562   H     0.73795   0.66921   0.12781   0.00000  Uiso   1.00
N563   N     0.83333   0.95069   0.16667   0.00000  Uiso   1.00
N564   N     0.83333   0.71598   0.16667   0.00000  Uiso   1.00
O565   O     0.77321   0.87291   0.16666   0.00000  Uiso   1.00
O566   O     0.95935   0.91805   0.15567   0.00000  Uiso   1.00
O567   O     0.95916   0.74826   0.17318   0.00000  Uiso   1.00
O568   O     0.70732   0.91805   0.17766   0.00000  Uiso   1.00
O569   O     0.89345   0.79375   0.16667   0.00000  Uiso   1.00
O570   O     0.89345   0.87291   0.16667   0.00000  Uiso   1.00
O571   O     0.77321   0.79375   0.16666   0.00000  Uiso   1.00
O572   O     0.83333   0.87292   0.09613   0.00000  Uiso   1.00
O573   O     0.83333   0.79375   0.23720   0.00000  Uiso   1.00
O574   O     0.83333   0.87292   0.23720   0.00000  Uiso   1.00
O575   O     0.83333   0.79375   0.09613   0.00000  Uiso   1.00
O576   O     0.70751   0.74826   0.16016   0.00000  Uiso   1.00
C577   C     0.08737   0.16666   0.50027   0.00000  Uiso   1.00
C578   C     0.02105   0.20917   0.50335   0.00000  Uiso   1.00
C579   C     0.29060   0.16663   0.49949   0.00000  Uiso   1.00
C580   C     0.04274   0.16663   0.50051   0.00000  Uiso   1.00
C581   C     0.15148   0.02476   0.46092   0.00000  Uiso   1.00
C582   C     0.18212   0.30857   0.53894   0.00000  Uiso   1.00
C583   C     0.18185   0.02476   0.53908   0.00000  Uiso   1.00
C584   C     0.15121   0.30857   0.46106   0.00000  Uiso   1.00
C585   C     0.03958   0.06696   0.44384   0.00000  Uiso   1.00
C586   C     0.04334   0.01408   0.44191   0.00000  Uiso   1.00
C587   C     0.29016   0.25900   0.43772   0.00000  Uiso   1.00
C588   C     0.24596   0.16666   0.49974   0.00000  Uiso   1.00
C589   C     0.26570   0.30316   0.42754   0.00000  Uiso   1.00
C590   C     0.29375   0.06696   0.55616   0.00000  Uiso   1.00
C591   C     0.29000   0.01408   0.55808   0.00000  Uiso   1.00
C592   C     0.04319   0.25900   0.56228   0.00000  Uiso   1.00
C593   C     0.06764   0.30318   0.57244   0.00000  Uiso   1.00
C594   C     0.16665   0.16667   0.40688   0.00000  Uiso   1.00
C595   C     0.16668   0.16667   0.59312   0.00000  Uiso   1.00
C596   C     0.16666   0.16667   0.35518   0.00000  Uiso   1.00
C597   C     0.16667   0.16667   0.64482   0.00000  Uiso   1.00
C598   C     0.02111   0.12413   0.49751   0.00000  Uiso   1.00
C599   C     0.31229   0.20917   0.49666   0.00000  Uiso   1.00
C600   C     0.31223   0.12413   0.50249   0.00000  Uiso   1.00
Cu601  Cu    0.16667   0.21355   0.50000   0.00000  Uiso   1.00
Cu602  Cu    0.16667   0.11978   0.50000   0.00000  Uiso   1.00
H603   H     0.13899   0.04321   0.42964   0.00000  Uiso   1.00
H604   H     0.27449   0.22941   0.41875   0.00000  Uiso   1.00
H605   H     0.32107   0.26328   0.42172   0.00000  Uiso   1.00
H606   H     0.26451   0.30985   0.38736   0.00000  Uiso   1.00
H607   H     0.23423   0.29878   0.44123   0.00000  Uiso   1.00
H608   H     0.27978   0.00043   0.44603   0.00000  Uiso   1.00
H609   H     0.26785   0.08279   0.57638   0.00000  Uiso   1.00
H610   H     0.32268   0.07647   0.57549   0.00000  Uiso   1.00
H611   H     0.31629   0.33137   0.53931   0.00000  Uiso   1.00
H612   H     0.28920   0.00198   0.59682   0.00000  Uiso   1.00
H613   H     0.26205   0.00254   0.53886   0.00000  Uiso   1.00
H614   H     0.19487   0.29012   0.57008   0.00000  Uiso   1.00
H615   H     0.05887   0.22942   0.58123   0.00000  Uiso   1.00
H616   H     0.01229   0.26328   0.57829   0.00000  Uiso   1.00
H617   H     0.05353   0.00044   0.55402   0.00000  Uiso   1.00
H618   H     0.06889   0.30984   0.61261   0.00000  Uiso   1.00
H619   H     0.09908   0.29884   0.55868   0.00000  Uiso   1.00
H620   H     0.19435   0.04321   0.57036   0.00000  Uiso   1.00
H621   H     0.13846   0.29011   0.42992   0.00000  Uiso   1.00
H622   H     0.06549   0.08279   0.42363   0.00000  Uiso   1.00
H623   H     0.01066   0.07647   0.42451   0.00000  Uiso   1.00
H624   H     0.01704   0.33138   0.46068   0.00000  Uiso   1.00
H625   H     0.04414   0.00198   0.40317   0.00000  Uiso   1.00
H626   H     0.07129   0.00254   0.46114   0.00000  Uiso   1.00
N627   N     0.16667   0.28402   0.50000   0.00000  Uiso   1.00
N628   N     0.16667   0.04931   0.50000   0.00000  Uiso   1.00
O629   O     0.10655   0.20625   0.50000   0.00000  Uiso   1.00
O630   O     0.29268   0.25138   0.48900   0.00000  Uiso   1.00
O631   O     0.29249   0.08159   0.50651   0.00000  Uiso   1.00
O632   O     0.04065   0.25138   0.51100   0.00000  Uiso   1.00
O633   O     0.22679   0.12709   0.50000   0.00000  Uiso   1.00
O634   O     0.22679   0.20625   0.50000   0.00000  Uiso   1.00
O635   O     0.10655   0.12709   0.50000   0.00000  Uiso   1.00
O636   O     0.16667   0.20625   0.42946   0.00000  Uiso   1.00
O637   O     0.16667   0.12708   0.57054   0.00000  Uiso   1.00
O638   O     0.16667   0.20625   0.57054   0.00000  Uiso   1.00
O639   O     0.16667   0.12708   0.42946   0.00000  Uiso   1.00
O640   O     0.04084   0.08159   0.49349   0.00000  Uiso   1.00
C641   C     0.42070   0.16666   0.50027   0.00000  Uiso   1.00
C642   C     0.35438   0.20917   0.50335   0.00000  Uiso   1.00
C643   C     0.62393   0.16663   0.49949   0.00000  Uiso   1.00
C644   C     0.37607   0.16663   0.50051   0.00000  Uiso   1.00
C645   C     0.48482   0.02476   0.46092   0.00000  Uiso   1.00
C646   C     0.51546   0.30857   0.53894   0.00000  Uiso   1.00
C647   C     0.51518   0.02476   0.53908   0.00000  Uiso   1.00
C648   C     0.48454   0.30857   0.46106   0.00000  Uiso   1.00
C649   C     0.37292   0.06696   0.44384   0.00000  Uiso   1.00
C650   C     0.37667   0.01408   0.44191   0.00000  Uiso   1.00
C651   C     0.62349   0.25900   0.43772   0.00000  Uiso   1.00
C652   C     0.57930   0.16666   0.49974   0.00000  Uiso   1.00
C653   C     0.59904   0.30316   0.42754   0.00000  Uiso   1.00
C654   C     0.62709   0.06696   0.55616   0.00000  Uiso   1.00
C655   C     0.62333   0.01408   0.55808   0.00000  Uiso   1.00
C656   C     0.37653   0.25900   0.56228   0.00000  Uiso   1.00
C657   C     0.40098   0.30318   0.57244   0.00000  Uiso   1.00
C658   C     0.49999   0.16667   0.40688   0.00000  Uiso   1.00
C659   C     0.50001   0.16667   0.59312   0.00000  Uiso   1.00
C660   C     0.50000   0.16667   0.35518   0.00000  Uiso   1.00
C661   C     0.50000   0.16667   0.64482   0.00000  Uiso   1.00
C662   C     0.35444   0.12413   0.49751   0.00000  Uiso   1.00
C663   C     0.64562   0.20917   0.49666   0.00000  Uiso   1.00
C664   C     0.64556   0.12413   0.50249   0.00000  Uiso   1.00
Cu665  Cu    0.50000   0.21355   0.50000   0.00000  Uiso   1.00
Cu666  Cu    0.50000   0.11978   0.50000   0.00000  Uiso   1.00
H667   H     0.47232   0.04321   0.42964   0.00000  Uiso   1.00
H668   H     0.60783   0.22941   0.41875   0.00000  Uiso   1.00
H669   H     0.65441   0.26328   0.42172   0.00000  Uiso   1.00
H670   H     0.59784   0.30985   0.38736   0.00000  Uiso   1.00
H671   H     0.56756   0.29878   0.44123   0.00000  Uiso   1.00
H672   H     0.61311   0.00043   0.44603   0.00000  Uiso   1.00
H673   H     0.60119   0.08279   0.57638   0.00000  Uiso   1.00
H674   H     0.65601   0.07647   0.57549   0.00000  Uiso   1.00
H675   H     0.64962   0.33137   0.53931   0.00000  Uiso   1.00
H676   H     0.62254   0.00198   0.59682   0.00000  Uiso   1.00
H677   H     0.59538   0.00254   0.53886   0.00000  Uiso   1.00
H678   H     0.52820   0.29012   0.57008   0.00000  Uiso   1.00
H679   H     0.39221   0.22942   0.58123   0.00000  Uiso   1.00
H680   H     0.34562   0.26328   0.57829   0.00000  Uiso   1.00
H681   H     0.38686   0.00044   0.55402   0.00000  Uiso   1.00
H682   H     0.40223   0.30984   0.61261   0.00000  Uiso   1.00
H683   H     0.43241   0.29884   0.55868   0.00000  Uiso   1.00
H684   H     0.52768   0.04321   0.57036   0.00000  Uiso   1.00
H685   H     0.47180   0.29011   0.42992   0.00000  Uiso   1.00
H686   H     0.39882   0.08279   0.42363   0.00000  Uiso   1.00
H687   H     0.34399   0.07647   0.42451   0.00000  Uiso   1.00
H688   H     0.35038   0.33138   0.46068   0.00000  Uiso   1.00
H689   H     0.37747   0.00198   0.40317   0.00000  Uiso   1.00
H690   H     0.40462   0.00254   0.46114   0.00000  Uiso   1.00
N691   N     0.50000   0.28402   0.50000   0.00000  Uiso   1.00
N692   N     0.50000   0.04931   0.50000   0.00000  Uiso   1.00
O693   O     0.43988   0.20625   0.50000   0.00000  Uiso   1.00
O694   O     0.62602   0.25138   0.48900   0.00000  Uiso   1.00
O695   O     0.62582   0.08159   0.50651   0.00000  Uiso   1.00
O696   O     0.37398   0.25138   0.51100   0.00000  Uiso   1.00
O697   O     0.56012   0.12709   0.50000   0.00000  Uiso   1.00
O698   O     0.56012   0.20625   0.50000   0.00000  Uiso   1.00
O699   O     0.43988   0.12709   0.50000   0.00000  Uiso   1.00
O700   O     0.50000   0.20625   0.42946   0.00000  Uiso   1.00
O701   O     0.50000   0.12708   0.57054   0.00000  Uiso   1.00
O702   O     0.50000   0.20625   0.57054   0.00000  Uiso   1.00
O703   O     0.50000   0.12708   0.42946   0.00000  Uiso   1.00
O704   O     0.37417   0.08159   0.49349   0.00000  Uiso   1.00
C705   C     0.75404   0.16666   0.50027   0.00000  Uiso   1.00
C706   C     0.68771   0.20917   0.50335   0.00000  Uiso   1.00
C707   C     0.95726   0.16663   0.49949   0.00000  Uiso   1.00
C708   C     0.70940   0.16663   0.50051   0.00000  Uiso   1.00
C709   C     0.81815   0.02476   0.46092   0.00000  Uiso   1.00
C710   C     0.84879   0.30857   0.53894   0.00000  Uiso   1.00
C711   C     0.84852   0.02476   0.53908   0.00000  Uiso   1.00
C712   C     0.81788   0.30857   0.46106   0.00000  Uiso   1.00
C713   C     0.70625   0.06696   0.44384   0.00000  Uiso   1.00
C714   C     0.71001   0.01408   0.44191   0.00000  Uiso   1.00
C715   C     0.95682   0.25900   0.43772   0.00000  Uiso   1.00
C716   C     0.91263   0.16666   0.49974   0.00000  Uiso   1.00
C717   C     0.93237   0.30316   0.42754   0.00000  Uiso   1.00
C718   C     0.96042   0.06696   0.55616   0.00000  Uiso   1.00
C719   C     0.95666   0.01408   0.55808   0.00000  Uiso   1.00
C720   C     0.70986   0.25900   0.56228   0.00000  Uiso   1.00
C721   C     0.73431   0.30318   0.57244   0.00000  Uiso   1.00
C722   C     0.83332   0.16667   0.40688   0.00000  Uiso   1.00
C723   C     0.83335   0.16667   0.59312   0.00000  Uiso   1.00
C724   C     0.83333   0.16667   0.35518   0.00000  Uiso   1.00
C725   C     0.83334   0.16667   0.64482   0.00000  Uiso   1.00
C726   C     0.68777   0.12413   0.49751   0.00000  Uiso   1.00
C727   C     0.97896   0.20917   0.49666   0.00000  Uiso   1.00
C728   C     0.97889   0.12413   0.50249   0.00000  Uiso   1.00
Cu729  Cu    0.83333   0.21355   0.50000   0.00000  Uiso   1.00
Cu730  Cu    0.83333   0.11978   0.50000   0.00000  Uiso   1.00
H731   H     0.80565   0.04321   0.42964   0.00000  Uiso   1.00
H732   H     0.94116   0.22941   0.41875   0.00000  Uiso   1.00
H733   H     0.98774   0.26328   0.42172   0.00000  Uiso   1.00
H734   H     0.93118   0.30985   0.38736   0.00000  Uiso   1.00
H735   H     0.90090   0.29878   0.44123   0.00000  Uiso   1.00
H736   H     0.94645   0.00043   0.44603   0.00000  Uiso   1.00
H737   H     0.93452   0.08279   0.57638   0.00000  Uiso   1.00
H738   H     0.98934   0.07647   0.57549   0.00000  Uiso   1.00
H739   H     0.98296   0.33137   0.53931   0.00000  Uiso   1.00
H740   H     0.95587   0.00198   0.59682   0.00000  Uiso   1.00
H741   H     0.92871   0.00254   0.53886   0.00000  Uiso   1.00
H742   H     0.86154   0.29012   0.57008   0.00000  Uiso   1.00
H743   H     0.72554   0.22942   0.58123   0.00000  Uiso   1.00
H744   H     0.67895   0.26328   0.57829   0.00000  Uiso   1.00
H745   H     0.72020   0.00044   0.55402   0.00000  Uiso   1.00
H746   H     0.73556   0.30984   0.61261   0.00000  Uiso   1.00
H747   H     0.76574   0.29884   0.55868   0.00000  Uiso   1.00
H748   H     0.86101   0.04321   0.57036   0.00000  Uiso   1.00
H749   H     0.80513   0.29011   0.42992   0.00000  Uiso   1.00
H750   H     0.73215   0.08279   0.42363   0.00000  Uiso   1.00
H751   H     0.67733   0.07647   0.42451   0.00000  Uiso   1.00
H752   H     0.68371   0.33138   0.46068   0.00000  Uiso   1.00
H753   H     0.71081   0.00198   0.40317   0.00000  Uiso   1.00
H754   H     0.73795   0.00254   0.46114   0.00000  Uiso   1.00
N755   N     0.83333   0.28402   0.50000   0.00000  Uiso   1.00
N756   N     0.83333   0.04931   0.50000   0.00000  Uiso   1.00
O757   O     0.77321   0.20625   0.50000   0.00000  Uiso   1.00
O758   O     0.95935   0.25138   0.48900   0.00000  Uiso   1.00
O759   O     0.95916   0.08159   0.50651   0.00000  Uiso   1.00
O760   O     0.70732   0.25138   0.51100   0.00000  Uiso   1.00
O761   O     0.89345   0.12709   0.50000   0.00000  Uiso   1.00
O762   O     0.89345   0.20625   0.50000   0.00000  Uiso   1.00
O763   O     0.77321   0.12709   0.50000   0.00000  Uiso   1.00
O764   O     0.83333   0.20625   0.42946   0.00000  Uiso   1.00
O765   O     0.83333   0.12708   0.57054   0.00000  Uiso   1.00
O766   O     0.83333   0.20625   0.57054   0.00000  Uiso   1.00
O767   O     0.83333   0.12708   0.42946   0.00000  Uiso   1.00
O768   O     0.70751   0.08159   0.49349   0.00000  Uiso   1.00
C769   C     0.08737   0.49999   0.50027   0.00000  Uiso   1.00
C770   C     0.02105   0.54251   0.50335   0.00000  Uiso   1.00
C771   C     0.29060   0.49996   0.49949   0.00000  Uiso   1.00
C772   C     0.04274   0.49996   0.50051   0.00000  Uiso   1.00
C773   C     0.15148   0.35809   0.46092   0.00000  Uiso   1.00
C774   C     0.18212   0.64191   0.53894   0.00000  Uiso   1.00
C775   C     0.18185   0.35809   0.53908   0.00000  Uiso   1.00
C776   C     0.15121   0.64190   0.46106   0.00000  Uiso   1.00
C777   C     0.03958   0.40030   0.44384   0.00000  Uiso   1.00
C778   C     0.04334   0.34742   0.44191   0.00000  Uiso   1.00
C779   C     0.29016   0.59233   0.43772   0.00000  Uiso   1.00
C780   C     0.24596   0.49999   0.49974   0.00000  Uiso   1.00
C781   C     0.26570   0.63649   0.42754   0.00000  Uiso   1.00
C782   C     0.29375   0.40030   0.55616   0.00000  Uiso   1.00
C783   C     0.29000   0.34742   0.55808   0.00000  Uiso   1.00
C784   C     0.04319   0.59234   0.56228   0.00000  Uiso   1.00
C785   C     0.06764   0.63651   0.57244   0.00000  Uiso   1.00
C786   C     0.16665   0.50000   0.40688   0.00000  Uiso   1.00
C787   C     0.16668   0.50000   0.59312   0.00000  Uiso   1.00
C788   C     0.16666   0.50001   0.35518   0.00000  Uiso   1.00
C789   C     0.16667   0.50001   0.64482   0.00000  Uiso   1.00
C790   C     0.02111   0.45747   0.49751   0.00000  Uiso   1.00
C791   C     0.31229   0.54251   0.49666   0.00000  Uiso   1.00
C792   C     0.31223   0.45747   0.50249   0.00000  Uiso   1.00
Cu793  Cu    0.16667   0.54689   0.50000   0.00000  Uiso   1.00
Cu794  Cu    0.16667   0.45311   0.50000   0.00000  Uiso   1.00
H795   H     0.13899   0.37654   0.42964   0.00000  Uiso   1.00
H796   H     0.27449   0.56274   0.41875   0.00000  Uiso   1.00
H797   H     0.32107   0.59661   0.42172   0.00000  Uiso   1.00
H798   H     0.26451   0.64318   0.38736   0.00000  Uiso   1.00
H799   H     0.23423   0.63211   0.44123   0.00000  Uiso   1.00
H800   H     0.27978   0.33376   0.44603   0.00000  Uiso   1.00
H801   H     0.26785   0.41612   0.57638   0.00000  Uiso   1.00
H802   H     0.32268   0.40980   0.57549   0.00000  Uiso   1.00
H803   H     0.31629   0.66471   0.53931   0.00000  Uiso   1.00
H804   H     0.28920   0.33531   0.59682   0.00000  Uiso   1.00
H805   H     0.26205   0.33587   0.53886   0.00000  Uiso   1.00
H806   H     0.19487   0.62345   0.57008   0.00000  Uiso   1.00
H807   H     0.05887   0.56276   0.58123   0.00000  Uiso   1.00
H808   H     0.01229   0.59661   0.57829   0.00000  Uiso   1.00
H809   H     0.05353   0.33377   0.55402   0.00000  Uiso   1.00
H810   H     0.06889   0.64318   0.61261   0.00000  Uiso   1.00
H811   H     0.09908   0.63217   0.55868   0.00000  Uiso   1.00
H812   H     0.19435   0.37655   0.57036   0.00000  Uiso   1.00
H813   H     0.13846   0.62345   0.42992   0.00000  Uiso   1.00
H814   H     0.06549   0.41612   0.42363   0.00000  Uiso   1.00
H815   H     0.01066   0.40980   0.42451   0.00000  Uiso   1.00
H816   H     0.01704   0.66471   0.46068   0.00000  Uiso   1.00
H817   H     0.04414   0.33532   0.40317   0.00000  Uiso   1.00
H818   H     0.07129   0.33587   0.46114   0.00000  Uiso   1.00
N819   N     0.16667   0.61736   0.50000   0.00000  Uiso   1.00
N820   N     0.16667   0.38264   0.50000   0.00000  Uiso   1.00
O821   O     0.10655   0.53958   0.50000   0.00000  Uiso   1.00
O822   O     0.29268   0.58471   0.48900   0.00000  Uiso   1.00
O823   O     0.29249   0.41492   0.50651   0.00000  Uiso   1.00
O824   O     0.04065   0.58472   0.51100   0.00000  Uiso   1.00
O825   O     0.22679   0.46042   0.50000   0.00000  Uiso   1.00
O826   O     0.22679   0.53958   0.50000   0.00000  Uiso   1.00
O827   O     0.10655   0.46042   0.50000   0.00000  Uiso   1.00
O828   O     0.16667   0.53959   0.42946   0.00000  Uiso   1.00
O829   O     0.16667   0.46041   0.57054   0.00000  Uiso   1.00
O830   O     0.16667   0.53959   0.57054   0.00000  Uiso   1.00
O831   O     0.16667   0.46041   0.42946   0.00000  Uiso   1.00
O832   O     0.04084   0.41492   0.49349   0.00000  Uiso   1.00
C833   C     0.42070   0.49999   0.50027   0.00000  Uiso   1.00
C834   C     0.35438   0.54251   0.50335   0.00000  Uiso   1.00
C835   C     0.62393   0.49996   0.49949   0.00000  Uiso   1.00
C836   C     0.37607   0.49996   0.50051   0.00000  Uiso   1.00
C837   C     0.48482   0.35809   0.46092   0.00000  Uiso   1.00
C838   C     0.51546   0.64191   0.53894   0.00000  Uiso   1.00
C839   C     0.51518   0.35809   0.53908   0.00000  Uiso   1.00
C840   C     0.48454   0.64190   0.46106   0.00000  Uiso   1.00
C841   C     0.37292   0.40030   0.44384   0.00000  Uiso   1.00
C842   C     0.37667   0.34742   0.44191   0.00000  Uiso   1.00
C843   C     0.62349   0.59233   0.43772   0.00000  Uiso   1.00
C844   C     0.57930   0.49999   0.49974   0.00000  Uiso   1.00
C845   C     0.59904   0.63649   0.42754   0.00000  Uiso   1.00
C846   C     0.62709   0.40030   0.55616   0.00000  Uiso   1.00
C847   C     0.62333   0.34742   0.55808   0.00000  Uiso   1.00
C848   C     0.37653   0.59234   0.56228   0.00000  Uiso   1.00
C849   C     0.40098   0.63651   0.57244   0.00000  Uiso   1.00
C850   C     0.49999   0.50000   0.40688   0.00000  Uiso   1.00
C851   C     0.50001   0.50000   0.59312   0.00000  Uiso   1.00
C852   C     0.50000   0.50001   0.35518   0.00000  Uiso   1.00
C853   C     0.50000   0.50001   0.64482   0.00000  Uiso   1.00
C854   C     0.35444   0.45747   0.49751   0.00000  Uiso   1.00
C855   C     0.64562   0.54251   0.49666   0.00000  Uiso   1.00
C856   C     0.64556   0.45747   0.50249   0.00000  Uiso   1.00
Cu857  Cu    0.50000   0.54689   0.50000   0.00000  Uiso   1.00
Cu858  Cu    0.50000   0.45311   0.50000   0.00000  Uiso   1.00
H859   H     0.47232   0.37654   0.42964   0.00000  Uiso   1.00
H860   H     0.60783   0.56274   0.41875   0.00000  Uiso   1.00
H861   H     0.65441   0.59661   0.42172   0.00000  Uiso   1.00
H862   H     0.59784   0.64318   0.38736   0.00000  Uiso   1.00
H863   H     0.56756   0.63211   0.44123   0.00000  Uiso   1.00
H864   H     0.61311   0.33376   0.44603   0.00000  Uiso   1.00
H865   H     0.60119   0.41612   0.57638   0.00000  Uiso   1.00
H866   H     0.65601   0.40980   0.57549   0.00000  Uiso   1.00
H867   H     0.64962   0.66471   0.53931   0.00000  Uiso   1.00
H868   H     0.62254   0.33531   0.59682   0.00000  Uiso   1.00
H869   H     0.59538   0.33587   0.53886   0.00000  Uiso   1.00
H870   H     0.52820   0.62345   0.57008   0.00000  Uiso   1.00
H871   H     0.39221   0.56276   0.58123   0.00000  Uiso   1.00
H872   H     0.34562   0.59661   0.57829   0.00000  Uiso   1.00
H873   H     0.38686   0.33377   0.55402   0.00000  Uiso   1.00
H874   H     0.40223   0.64318   0.61261   0.00000  Uiso   1.00
H875   H     0.43241   0.63217   0.55868   0.00000  Uiso   1.00
H876   H     0.52768   0.37655   0.57036   0.00000  Uiso   1.00
H877   H     0.47180   0.62345   0.42992   0.00000  Uiso   1.00
H878   H     0.39882   0.41612   0.42363   0.00000  Uiso   1.00
H879   H     0.34399   0.40980   0.42451   0.00000  Uiso   1.00
H880   H     0.35038   0.66471   0.46068   0.00000  Uiso   1.00
H881   H     0.37747   0.33532   0.40317   0.00000  Uiso   1.00
H882   H     0.40462   0.33587   0.46114   0.00000  Uiso   1.00
N883   N     0.50000   0.61736   0.50000   0.00000  Uiso   1.00
N884   N     0.50000   0.38264   0.50000   0.00000  Uiso   1.00
O885   O     0.43988   0.53958   0.50000   0.00000  Uiso   1.00
O886   O     0.62602   0.58471   0.48900   0.00000  Uiso   1.00
O887   O     0.62582   0.41492   0.50651   0.00000  Uiso   1.00
O888   O     0.37398   0.58472   0.51100   0.00000  Uiso   1.00
O889   O     0.56012   0.46042   0.50000   0.00000  Uiso   1.00
O890   O     0.56012   0.53958   0.50000   0.00000  Uiso   1.00
O891   O     0.43988   0.46042   0.50000   0.00000  Uiso   1.00
O892   O     0.50000   0.53959   0.42946   0.00000  Uiso   1.00
O893   O     0.50000   0.46041   0.57054   0.00000  Uiso   1.00
O894   O     0.50000   0.53959   0.57054   0.00000  Uiso   1.00
O895   O     0.50000   0.46041   0.42946   0.00000  Uiso   1.00
O896   O     0.37417   0.41492   0.49349   0.00000  Uiso   1.00
C897   C     0.75404   0.49999   0.50027   0.00000  Uiso   1.00
C898   C     0.68771   0.54251   0.50335   0.00000  Uiso   1.00
C899   C     0.95726   0.49996   0.49949   0.00000  Uiso   1.00
C900   C     0.70940   0.49996   0.50051   0.00000  Uiso   1.00
C901   C     0.81815   0.35809   0.46092   0.00000  Uiso   1.00
C902   C     0.84879   0.64191   0.53894   0.00000  Uiso   1.00
C903   C     0.84852   0.35809   0.53908   0.00000  Uiso   1.00
C904   C     0.81788   0.64190   0.46106   0.00000  Uiso   1.00
C905   C     0.70625   0.40030   0.44384   0.00000  Uiso   1.00
C906   C     0.71001   0.34742   0.44191   0.00000  Uiso   1.00
C907   C     0.95682   0.59233   0.43772   0.00000  Uiso   1.00
C908   C     0.91263   0.49999   0.49974   0.00000  Uiso   1.00
C909   C     0.93237   0.63649   0.42754   0.00000  Uiso   1.00
C910   C     0.96042   0.40030   0.55616   0.00000  Uiso   1.00
C911   C     0.95666   0.34742   0.55808   0.00000  Uiso   1.00
C912   C     0.70986   0.59234   0.56228   0.00000  Uiso   1.00
C913   C     0.73431   0.63651   0.57244   0.00000  Uiso   1.00
C914   C     0.83332   0.50000   0.40688   0.00000  Uiso   1.00
C915   C     0.83335   0.50000   0.59312   0.00000  Uiso   1.00
C916   C     0.83333   0.50001   0.35518   0.00000  Uiso   1.00
C917   C     0.83334   0.50001   0.64482   0.00000  Uiso   1.00
C918   C     0.68777   0.45747   0.49751   0.00000  Uiso   1.00
C919   C     0.97896   0.54251   0.49666   0.00000  Uiso   1.00
C920   C     0.97889   0.45747   0.50249   0.00000  Uiso   1.00
Cu921  Cu    0.83333   0.54689   0.50000   0.00000  Uiso   1.00
Cu922  Cu    0.83333   0.45311   0.50000   0.00000  Uiso   1.00
H923   H     0.80565   0.37654   0.42964   0.00000  Uiso   1.00
H924   H     0.94116   0.56274   0.41875   0.00000  Uiso   1.00
H925   H     0.98774   0.59661   0.42172   0.00000  Uiso   1.00
H926   H     0.93118   0.64318   0.38736   0.00000  Uiso   1.00
H927   H     0.90090   0.63211   0.44123   0.00000  Uiso   1.00
H928   H     0.94645   0.33376   0.44603   0.00000  Uiso   1.00
H929   H     0.93452   0.41612   0.57638   0.00000  Uiso   1.00
H930   H     0.98934   0.40980   0.57549   0.00000  Uiso   1.00
H931   H     0.98296   0.66471   0.53931   0.00000  Uiso   1.00
H932   H     0.95587   0.33531   0.59682   0.00000  Uiso   1.00
H933   H     0.92871   0.33587   0.53886   0.00000  Uiso   1.00
H934   H     0.86154   0.62345   0.57008   0.00000  Uiso   1.00
H935   H     0.72554   0.56276   0.58123   0.00000  Uiso   1.00
H936   H     0.67895   0.59661   0.57829   0.00000  Uiso   1.00
H937   H     0.72020   0.33377   0.55402   0.00000  Uiso   1.00
H938   H     0.73556   0.64318   0.61261   0.00000  Uiso   1.00
H939   H     0.76574   0.63217   0.55868   0.00000  Uiso   1.00
H940   H     0.86101   0.37655   0.57036   0.00000  Uiso   1.00
H941   H     0.80513   0.62345   0.42992   0.00000  Uiso   1.00
H942   H     0.73215   0.41612   0.42363   0.00000  Uiso   1.00
H943   H     0.67733   0.40980   0.42451   0.00000  Uiso   1.00
H944   H     0.68371   0.66471   0.46068   0.00000  Uiso   1.00
H945   H     0.71081   0.33532   0.40317   0.00000  Uiso   1.00
H946   H     0.73795   0.33587   0.46114   0.00000  Uiso   1.00
N947   N     0.83333   0.61736   0.50000   0.00000  Uiso   1.00
N948   N     0.83333   0.38264   0.50000   0.00000  Uiso   1.00
O949   O     0.77321   0.53958   0.50000   0.00000  Uiso   1.00
O950   O     0.95935   0.58471   0.48900   0.00000  Uiso   1.00
O951   O     0.95916   0.41492   0.50651   0.00000  Uiso   1.00
O952   O     0.70732   0.58472   0.51100   0.00000  Uiso   1.00
O953   O     0.89345   0.46042   0.50000   0.00000  Uiso   1.00
O954   O     0.89345   0.53958   0.50000   0.00000  Uiso   1.00
O955   O     0.77321   0.46042   0.50000   0.00000  Uiso   1.00
O956   O     0.83333   0.53959   0.42946   0.00000  Uiso   1.00
O957   O     0.83333   0.46041   0.57054   0.00000  Uiso   1.00
O958   O     0.83333   0.53959   0.57054   0.00000  Uiso   1.00
O959   O     0.83333   0.46041   0.42946   0.00000  Uiso   1.00
O960   O     0.70751   0.41492   0.49349   0.00000  Uiso   1.00
C961   C     0.08737   0.83332   0.50027   0.00000  Uiso   1.00
C962   C     0.02105   0.87584   0.50335   0.00000  Uiso   1.00
C963   C     0.29060   0.83330   0.49949   0.00000  Uiso   1.00
C964   C     0.04274   0.83330   0.50051   0.00000  Uiso   1.00
C965   C     0.15148   0.69142   0.46092   0.00000  Uiso   1.00
C966   C     0.18212   0.97524   0.53894   0.00000  Uiso   1.00
C967   C     0.18185   0.69143   0.53908   0.00000  Uiso   1.00
C968   C     0.15121   0.97524   0.46106   0.00000  Uiso   1.00
C969   C     0.03958   0.73363   0.44384   0.00000  Uiso   1.00
C970   C     0.04334   0.68075   0.44191   0.00000  Uiso   1.00
C971   C     0.29016   0.92566   0.43772   0.00000  Uiso   1.00
C972   C     0.24596   0.83332   0.49974   0.00000  Uiso   1.00
C973   C     0.26570   0.96983   0.42754   0.00000  Uiso   1.00
C974   C     0.29375   0.73363   0.55616   0.00000  Uiso   1.00
C975   C     0.29000   0.68075   0.55808   0.00000  Uiso   1.00
C976   C     0.04319   0.92567   0.56228   0.00000  Uiso   1.00
C977   C     0.06764   0.96984   0.57244   0.00000  Uiso   1.00
C978   C     0.16665   0.83333   0.40688   0.00000  Uiso   1.00
C979   C     0.16668   0.83334   0.59312   0.00000  Uiso   1.00
C980   C     0.16666   0.83334   0.35518   0.00000  Uiso   1.00
C981   C     0.16667   0.83334   0.64482   0.00000  Uiso   1.00
C982   C     0.02111   0.79080   0.49751   0.00000  Uiso   1.00
C983   C     0.31229   0.87584   0.49666   0.00000  Uiso   1.00
C984   C     0.31223   0.79080   0.50249   0.00000  Uiso   1.00
Cu985  Cu    0.16667   0.88022   0.50000   0.00000  Uiso   1.00
Cu986  Cu    0.16667   0.78645   0.50000   0.00000  Uiso   1.00
H987   H     0.13899   0.70987   0.42964   0.00000  Uiso   1.00
H988   H     0.27449   0.89608   0.41875   0.00000  Uiso   1.00
H989   H     0.32107   0.92995   0.42172   0.00000  Uiso   1.00
H990   H     0.26451   0.97651   0.38736   0.00000  Uiso   1.00
H991   H     0.23423   0.96545   0.44123   0.00000  Uiso   1.00
H992   H     0.27978   0.66709   0.44603   0.00000  Uiso   1.00
H993   H     0.26785   0.74945   0.57638   0.00000  Uiso   1.00
H994   H     0.32268   0.74313   0.57549   0.00000  Uiso   1.00
H995   H     0.31629   0.99804   0.53931   0.00000  Uiso   1.00
H996   H     0.28920   0.66865   0.59682   0.00000  Uiso   1.00
H997   H     0.26205   0.66921   0.53886   0.00000  Uiso   1.00
H998   H     0.19487   0.95679   0.57008   0.00000  Uiso   1.00
H999   H     0.05887   0.89609   0.58123   0.00000  Uiso   1.00
H1000  H     0.01229   0.92995   0.57829   0.00000  Uiso   1.00
H1001  H     0.05353   0.66710   0.55402   0.00000  Uiso   1.00
H1002  H     0.06889   0.97651   0.61261   0.00000  Uiso   1.00
H1003  H     0.09908   0.96550   0.55868   0.00000  Uiso   1.00
H1004  H     0.19435   0.70988   0.57036   0.00000  Uiso   1.00
H1005  H     0.13846   0.95678   0.42992   0.00000  Uiso   1.00
H1006  H     0.06549   0.74946   0.42363   0.00000  Uiso   1.00
H1007  H     0.01066   0.74314   0.42451   0.00000  Uiso   1.00
H1008  H     0.01704   0.99804   0.46068   0.00000  Uiso   1.00
H1009  H     0.04414   0.66865   0.40317   0.00000  Uiso   1.00
H1010  H     0.07129   0.66921   0.46114   0.00000  Uiso   1.00
N1011  N     0.16667   0.95069   0.50000   0.00000  Uiso   1.00
N1012  N     0.16667   0.71598   0.50000   0.00000  Uiso   1.00
O1013  O     0.10655   0.87291   0.50000   0.00000  Uiso   1.00
O1014  O     0.29268   0.91805   0.48900   0.00000  Uiso   1.00
O1015  O     0.29249   0.74826   0.50651   0.00000  Uiso   1.00
O1016  O     0.04065   0.91805   0.51100   0.00000  Uiso   1.00
O1017  O     0.22679   0.79375   0.50000   0.00000  Uiso   1.00
O1018  O     0.22679   0.87291   0.50000   0.00000  Uiso   1.00
O1019  O     0.10655   0.79375   0.50000   0.00000  Uiso   1.00
O1020  O     0.16667   0.87292   0.42946   0.00000  Uiso   1.00
O1021  O     0.16667   0.79375   0.57054   0.00000  Uiso   1.00
O1022  O     0.16667   0.87292   0.57054   0.00000  Uiso   1.00
O1023  O     0.16667   0.79375   0.42946   0.00000  Uiso   1.00
O1024  O     0.04084   0.74826   0.49349   0.00000  Uiso   1.00
C1025  C     0.42070   0.83332   0.50027   0.00000  Uiso   1.00
C1026  C     0.35438   0.87584   0.50335   0.00000  Uiso   1.00
C1027  C     0.62393   0.83330   0.49949   0.00000  Uiso   1.00
C1028  C     0.37607   0.83330   0.50051   0.00000  Uiso   1.00
C1029  C     0.48482   0.69142   0.46092   0.00000  Uiso   1.00
C1030  C     0.51546   0.97524   0.53894   0.00000  Uiso   1.00
C1031  C     0.51518   0.69143   0.53908   0.00000  Uiso   1.00
C1032  C     0.48454   0.97524   0.46106   0.00000  Uiso   1.00
C1033  C     0.37292   0.73363   0.44384   0.00000  Uiso   1.00
C1034  C     0.37667   0.68075   0.44191   0.00000  Uiso   1.00
C1035  C     0.62349   0.92566   0.43772   0.00000  Uiso   1.00
C1036  C     0.57930   0.83332   0.49974   0.00000  Uiso   1.00
C1037  C     0.59904   0.96983   0.42754   0.00000  Uiso   1.00
C1038  C     0.62709   0.73363   0.55616   0.00000  Uiso   1.00
C1039  C     0.62333   0.68075   0.55808   0.00000  Uiso   1.00
C1040  C     0.37653   0.92567   0.56228   0.00000  Uiso   1.00
C1041  C     0.40098   0.96984   0.57244   0.00000  Uiso   1.00
C1042  C     0.49999   0.83333   0.40688   0.00000  Uiso   1.00
C1043  C     0.50001   0.83334   0.59312   0.00000  Uiso   1.00
C1044  C     0.50000   0.83334   0.35518   0.00000  Uiso   1.00
C1045  C     0.50000   0.83334   0.64482   0.00000  Uiso   1.00
C1046  C     0.35444   0.79080   0.49751   0.00000  Uiso   1.00
C1047  C     0.64562   0.87584   0.49666   0.00000  Uiso   1.00
C1048  C     0.64556   0.79080   0.50249   0.00000  Uiso   1.00
Cu1049 Cu    0.50000   0.88022   0.50000   0.00000  Uiso   1.00
Cu1050 Cu    0.50000   0.78645   0.50000   0.00000  Uiso   1.00
H1051  H     0.47232   0.70987   0.42964   0.00000  Uiso   1.00
H1052  H     0.60783   0.89608   0.41875   0.00000  Uiso   1.00
H1053  H     0.65441   0.92995   0.42172   0.00000  Uiso   1.00
H1054  H     0.59784   0.97651   0.38736   0.00000  Uiso   1.00
H1055  H     0.56756   0.96545   0.44123   0.00000  Uiso   1.00
H1056  H     0.61311   0.66709   0.44603   0.00000  Uiso   1.00
H1057  H     0.60119   0.74945   0.57638   0.00000  Uiso   1.00
H1058  H     0.65601   0.74313   0.57549   0.00000  Uiso   1.00
H1059  H     0.64962   0.99804   0.53931   0.00000  Uiso   1.00
H1060  H     0.62254   0.66865   0.59682   0.00000  Uiso   1.00
H1061  H     0.59538   0.66921   0.53886   0.00000  Uiso   1.00
H1062  H     0.52820   0.95679   0.57008   0.00000  Uiso   1.00
H1063  H     0.39221   0.89609   0.58123   0.00000  Uiso   1.00
H1064  H     0.34562   0.92995   0.57829   0.00000  Uiso   1.00
H1065  H     0.38686   0.66710   0.55402   0.00000  Uiso   1.00
H1066  H     0.40223   0.97651   0.61261   0.00000  Uiso   1.00
H1067  H     0.43241   0.96550   0.55868   0.00000  Uiso   1.00
H1068  H     0.52768   0.70988   0.57036   0.00000  Uiso   1.00
H1069  H     0.47180   0.95678   0.42992   0.00000  Uiso   1.00
H1070  H     0.39882   0.74946   0.42363   0.00000  Uiso   1.00
H1071  H     0.34399   0.74314   0.42451   0.00000  Uiso   1.00
H1072  H     0.35038   0.99804   0.46068   0.00000  Uiso   1.00
H1073  H     0.37747   0.66865   0.40317   0.00000  Uiso   1.00
H1074  H     0.40462   0.66921   0.46114   0.00000  Uiso   1.00
N1075  N     0.50000   0.95069   0.50000   0.00000  Uiso   1.00
N1076  N     0.50000   0.71598   0.50000   0.00000  Uiso   1.00
O1077  O     0.43988   0.87291   0.50000   0.00000  Uiso   1.00
O1078  O     0.62602   0.91805   0.48900   0.00000  Uiso   1.00
O1079  O     0.62582   0.74826   0.50651   0.00000  Uiso   1.00
O1080  O     0.37398   0.91805   0.51100   0.00000  Uiso   1.00
O1081  O     0.56012   0.79375   0.50000   0.00000  Uiso   1.00
O1082  O     0.56012   0.87291   0.50000   0.00000  Uiso   1.00
O1083  O     0.43988   0.79375   0.50000   0.00000  Uiso   1.00
O1084  O     0.50000   0.87292   0.42946   0.00000  Uiso   1.00
O1085  O     0.50000   0.79375   0.57054   0.00000  Uiso   1.00
O1086  O     0.50000   0.87292   0.57054   0.00000  Uiso   1.00
O1087  O     0.50000   0.79375   0.42946   0.00000  Uiso   1.00
O1088  O     0.37417   0.74826   0.49349   0.00000  Uiso   1.00
C1089  C     0.75404   0.83332   0.50027   0.00000  Uiso   1.00
C1090  C     0.68771   0.87584   0.50335   0.00000  Uiso   1.00
C1091  C     0.95726   0.83330   0.49949   0.00000  Uiso   1.00
C1092  C     0.70940   0.83330   0.50051   0.00000  Uiso   1.00
C1093  C     0.81815   0.69142   0.46092   0.00000  Uiso   1.00
C1094  C     0.84879   0.97524   0.53894   0.00000  Uiso   1.00
C1095  C     0.84852   0.69143   0.53908   0.00000  Uiso   1.00
C1096  C     0.81788   0.97524   0.46106   0.00000  Uiso   1.00
C1097  C     0.70625   0.73363   0.44384   0.00000  Uiso   1.00
C1098  C     0.71001   0.68075   0.44191   0.00000  Uiso   1.00
C1099  C     0.95682   0.92566   0.43772   0.00000  Uiso   1.00
C1100  C     0.91263   0.83332   0.49974   0.00000  Uiso   1.00
C1101  C     0.93237   0.96983   0.42754   0.00000  Uiso   1.00
C1102  C     0.96042   0.73363   0.55616   0.00000  Uiso   1.00
C1103  C     0.95666   0.68075   0.55808   0.00000  Uiso   1.00
C1104  C     0.70986   0.92567   0.56228   0.00000  Uiso   1.00
C1105  C     0.73431   0.96984   0.57244   0.00000  Uiso   1.00
C1106  C     0.83332   0.83333   0.40688   0.00000  Uiso   1.00
C1107  C     0.83335   0.83334   0.59312   0.00000  Uiso   1.00
C1108  C     0.83333   0.83334   0.35518   0.00000  Uiso   1.00
C1109  C     0.83334   0.83334   0.64482   0.00000  Uiso   1.00
C1110  C     0.68777   0.79080   0.49751   0.00000  Uiso   1.00
C1111  C     0.97896   0.87584   0.49666   0.00000  Uiso   1.00
C1112  C     0.97889   0.79080   0.50249   0.00000  Uiso   1.00
Cu1113 Cu    0.83333   0.88022   0.50000   0.00000  Uiso   1.00
Cu1114 Cu    0.83333   0.78645   0.50000   0.00000  Uiso   1.00
H1115  H     0.80565   0.70987   0.42964   0.00000  Uiso   1.00
H1116  H     0.94116   0.89608   0.41875   0.00000  Uiso   1.00
H1117  H     0.98774   0.92995   0.42172   0.00000  Uiso   1.00
H1118  H     0.93118   0.97651   0.38736   0.00000  Uiso   1.00
H1119  H     0.90090   0.96545   0.44123   0.00000  Uiso   1.00
H1120  H     0.94645   0.66709   0.44603   0.00000  Uiso   1.00
H1121  H     0.93452   0.74945   0.57638   0.00000  Uiso   1.00
H1122  H     0.98934   0.74313   0.57549   0.00000  Uiso   1.00
H1123  H     0.98296   0.99804   0.53931   0.00000  Uiso   1.00
H1124  H     0.95587   0.66865   0.59682   0.00000  Uiso   1.00
H1125  H     0.92871   0.66921   0.53886   0.00000  Uiso   1.00
H1126  H     0.86154   0.95679   0.57008   0.00000  Uiso   1.00
H1127  H     0.72554   0.89609   0.58123   0.00000  Uiso   1.00
H1128  H     0.67895   0.92995   0.57829   0.00000  Uiso   1.00
H1129  H     0.72020   0.66710   0.55402   0.00000  Uiso   1.00
H1130  H     0.73556   0.97651   0.61261   0.00000  Uiso   1.00
H1131  H     0.76574   0.96550   0.55868   0.00000  Uiso   1.00
H1132  H     0.86101   0.70988   0.57036   0.00000  Uiso   1.00
H1133  H     0.80513   0.95678   0.42992   0.00000  Uiso   1.00
H1134  H     0.73215   0.74946   0.42363   0.00000  Uiso   1.00
H1135  H     0.67733   0.74314   0.42451   0.00000  Uiso   1.00
H1136  H     0.68371   0.99804   0.46068   0.00000  Uiso   1.00
H1137  H     0.71081   0.66865   0.40317   0.00000  Uiso   1.00
H1138  H     0.73795   0.66921   0.46114   0.00000  Uiso   1.00
N1139  N     0.83333   0.95069   0.50000   0.00000  Uiso   1.00
N1140  N     0.83333   0.71598   0.50000   0.00000  Uiso   1.00
O1141  O     0.77321   0.87291   0.50000   0.00000  Uiso   1.00
O1142  O     0.95935   0.91805   0.48900   0.00000  Uiso   1.00
O1143  O     0.95916   0.74826   0.50651   0.00000  Uiso   1.00
O1144  O     0.70732   0.91805   0.51100   0.00000  Uiso   1.00
O1145  O     0.89345   0.79375   0.50000   0.00000  Uiso   1.00
O1146  O     0.89345   0.87291   0.50000   0.00000  Uiso   1.00
O1147  O     0.77321   0.79375   0.50000   0.00000  Uiso   1.00
O1148  O     0.83333   0.87292   0.42946   0.00000  Uiso   1.00
O1149  O     0.83333   0.79375   0.57054   0.00000  Uiso   1.00
O1150  O     0.83333   0.87292   0.57054   0.00000  Uiso   1.00
O1151  O     0.83333   0.79375   0.42946   0.00000  Uiso   1.00
O1152  O     0.70751   0.74826   0.49349   0.00000  Uiso   1.00
C1153  C     0.08737   0.16666   0.83360   0.00000  Uiso   1.00
C1154  C     0.02105   0.20917   0.83668   0.00000  Uiso   1.00
C1155  C     0.29060   0.16663   0.83283   0.00000  Uiso   1.00
C1156  C     0.04274   0.16663   0.83385   0.00000  Uiso   1.00
C1157  C     0.15148   0.02476   0.79425   0.00000  Uiso   1.00
C1158  C     0.18212   0.30857   0.87228   0.00000  Uiso   1.00
C1159  C     0.18185   0.02476   0.87242   0.00000  Uiso   1.00
C1160  C     0.15121   0.30857   0.79439   0.00000  Uiso   1.00
C1161  C     0.03958   0.06696   0.77718   0.00000  Uiso   1.00
C1162  C     0.04334   0.01408   0.77525   0.00000  Uiso   1.00
C1163  C     0.29016   0.25900   0.77105   0.00000  Uiso   1.00
C1164  C     0.24596   0.16666   0.83307   0.00000  Uiso   1.00
C1165  C     0.26570   0.30316   0.76087   0.00000  Uiso   1.00
C1166  C     0.29375   0.06696   0.88949   0.00000  Uiso   1.00
C1167  C     0.29000   0.01408   0.89142   0.00000  Uiso   1.00
C1168  C     0.04319   0.25900   0.89561   0.00000  Uiso   1.00
C1169  C     0.06764   0.30318   0.90578   0.00000  Uiso   1.00
C1170  C     0.16665   0.16667   0.74021   0.00000  Uiso   1.00
C1171  C     0.16668   0.16667   0.92646   0.00000  Uiso   1.00
C1172  C     0.16666   0.16667   0.68852   0.00000  Uiso   1.00
C1173  C     0.16667   0.16667   0.97815   0.00000  Uiso   1.00
C1174  C     0.02111   0.12413   0.83085   0.00000  Uiso   1.00
C1175  C     0.31229   0.20917   0.82999   0.00000  Uiso   1.00
C1176  C     0.31223   0.12413   0.83583   0.00000  Uiso   1.00
Cu1177 Cu    0.16667   0.21355   0.83333   0.00000  Uiso   1.00
Cu1178 Cu    0.16667   0.11978   0.83333   0.00000  Uiso   1.00
H1179  H     0.13899   0.04321   0.76297   0.00000  Uiso   1.00
H1180  H     0.27449   0.22941   0.75208   0.00000  Uiso   1.00
H1181  H     0.32107   0.26328   0.75506   0.00000  Uiso   1.00
H1182  H     0.26451   0.30985   0.72069   0.00000  Uiso   1.00
H1183  H     0.23423   0.29878   0.77457   0.00000  Uiso   1.00
H1184  H     0.27978   0.00043   0.77937   0.00000  Uiso   1.00
H1185  H     0.26785   0.08279   0.90971   0.00000  Uiso   1.00
H1186  H     0.32268   0.07647   0.90882   0.00000  Uiso   1.00
H1187  H     0.31629   0.33137   0.87264   0.00000  Uiso   1.00
H1188  H     0.28920   0.00198   0.93016   0.00000  Uiso   1.00
H1189  H     0.26205   0.00254   0.87219   0.00000  Uiso   1.00
H1190  H     0.19487   0.29012   0.90341   0.00000  Uiso   1.00
H1191  H     0.05887   0.22942   0.91456   0.00000  Uiso   1.00
H1192  H     0.01229   0.26328   0.91162   0.00000  Uiso   1.00
H1193  H     0.05353   0.00044   0.88735   0.00000  Uiso   1.00
H1194  H     0.06889   0.30984   0.94594   0.00000  Uiso   1.00
H1195  H     0.09908   0.29884   0.89202   0.00000  Uiso   1.00
H1196  H     0.19435   0.04321   0.90370   0.00000  Uiso   1.00
H1197  H     0.13846   0.29011   0.76325   0.00000  Uiso   1.00
H1198  H     0.06549   0.08279   0.75696   0.00000  Uiso   1.00
H1199  H     0.01066   0.07647   0.75784   0.00000  Uiso   1.00
H1200  H     0.01704   0.33138   0.79401   0.00000  Uiso   1.00
H1201  H     0.04414   0.00198   0.73650   0.00000  Uiso   1.00
H1202  H     0.07129   0.00254   0.79447   0.00000  Uiso   1.00
N1203  N     0.16667   0.28402   0.83333   0.00000  Uiso   1.00
N1204  N     0.16667   0.04931   0.83333   0.00000  Uiso   1.00
O1205  O     0.10655   0.20625   0.83333   0.00000  Uiso   1.00
O1206  O     0.29268   0.25138   0.82233   0.00000  Uiso   1.00
O1207  O     0.29249   0.08159   0.83984   0.00000  Uiso   1.00
O1208  O     0.04065   0.25138   0.84433   0.00000  Uiso   1.00
O1209  O     0.22679   0.12709   0.83334   0.00000  Uiso   1.00
O1210  O     0.22679   0.20625   0.83334   0.00000  Uiso   1.00
O1211  O     0.10655   0.12709   0.83333   0.00000  Uiso   1.00
O1212  O     0.16667   0.20625   0.76280   0.00000  Uiso   1.00
O1213  O     0.16667   0.12708   0.90387   0.00000  Uiso   1.00
O1214  O     0.16667   0.20625   0.90387   0.00000  Uiso   1.00
O1215  O     0.16667   0.12708   0.76280   0.00000  Uiso   1.00
O1216  O     0.04084   0.08159   0.82683   0.00000  Uiso   1.00
C1217  C     0.42070   0.16666   0.83360   0.00000  Uiso   1.00
C1218  C     0.35438   0.20917   0.83668   0.00000  Uiso   1.00
C1219  C     0.62393   0.16663   0.83283   0.00000  Uiso   1.00
C1220  C     0.37607   0.16663   0.83385   0.00000  Uiso   1.00
C1221  C     0.48482   0.02476   0.79425   0.00000  Uiso   1.00
C1222  C     0.51546   0.30857   0.87228   0.00000  Uiso   1.00
C1223  C     0.51518   0.02476   0.87242   0.00000  Uiso   1.00
C1224  C     0.48454   0.30857   0.79439   0.00000  Uiso   1.00
C1225  C     0.37292   0.06696   0.77718   0.00000  Uiso   1.00
C1226  C     0.37667   0.01408   0.77525   0.00000  Uiso   1.00
C1227  C     0.62349   0.25900   0.77105   0.00000  Uiso   1.00
C1228  C     0.57930   0.16666   0.83307   0.00000  Uiso   1.00
C1229  C     0.59904   0.30316   0.76087   0.00000  Uiso   1.00
C1230  C     0.62709   0.06696   0.88949   0.00000  Uiso   1.00
C1231  C     0.62333   0.01408   0.89142   0.00000  Uiso   1.00
C1232  C     0.37653   0.25900   0.89561   0.00000  Uiso   1.00
C1233  C     0.40098   0.30318   0.90578   0.00000  Uiso   1.00
C1234  C     0.49999   0.16667   0.74021   0.00000  Uiso   1.00
C1235  C     0.50001   0.16667   0.92646   0.00000  Uiso   1.00
C1236  C     0.50000   0.16667   0.68852   0.00000  Uiso   1.00
C1237  C     0.50000   0.16667   0.97815   0.00000  Uiso   1.00
C1238  C     0.35444   0.12413   0.83085   0.00000  Uiso   1.00
C1239  C     0.64562   0.20917   0.82999   0.00000  Uiso   1.00
C1240  C     0.64556   0.12413   0.83583   0.00000  Uiso   1.00
Cu1241 Cu    0.50000   0.21355   0.83333   0.00000  Uiso   1.00
Cu1242 Cu    0.50000   0.11978   0.83333   0.00000  Uiso   1.00
H1243  H     0.47232   0.04321   0.76297   0.00000  Uiso   1.00
H1244  H     0.60783   0.22941   0.75208   0.00000  Uiso   1.00
H1245  H     0.65441   0.26328   0.75506   0.00000  Uiso   1.00
H1246  H     0.59784   0.30985   0.72069   0.00000  Uiso   1.00
H1247  H     0.56756   0.29878   0.77457   0.00000  Uiso   1.00
H1248  H     0.61311   0.00043   0.77937   0.00000  Uiso   1.00
H1249  H     0.60119   0.08279   0.90971   0.00000  Uiso   1.00
H1250  H     0.65601   0.07647   0.90882   0.00000  Uiso   1.00
H1251  H     0.64962   0.33137   0.87264   0.00000  Uiso   1.00
H1252  H     0.62254   0.00198   0.93016   0.00000  Uiso   1.00
H1253  H     0.59538   0.00254   0.87219   0.00000  Uiso   1.00
H1254  H     0.52820   0.29012   0.90341   0.00000  Uiso   1.00
H1255  H     0.39221   0.22942   0.91456   0.00000  Uiso   1.00
H1256  H     0.34562   0.26328   0.91162   0.00000  Uiso   1.00
H1257  H     0.38686   0.00044   0.88735   0.00000  Uiso   1.00
H1258  H     0.40223   0.30984   0.94594   0.00000  Uiso   1.00
H1259  H     0.43241   0.29884   0.89202   0.00000  Uiso   1.00
H1260  H     0.52768   0.04321   0.90370   0.00000  Uiso   1.00
H1261  H     0.47180   0.29011   0.76325   0.00000  Uiso   1.00
H1262  H     0.39882   0.08279   0.75696   0.00000  Uiso   1.00
H1263  H     0.34399   0.07647   0.75784   0.00000  Uiso   1.00
H1264  H     0.35038   0.33138   0.79401   0.00000  Uiso   1.00
H1265  H     0.37747   0.00198   0.73650   0.00000  Uiso   1.00
H1266  H     0.40462   0.00254   0.79447   0.00000  Uiso   1.00
N1267  N     0.50000   0.28402   0.83333   0.00000  Uiso   1.00
N1268  N     0.50000   0.04931   0.83333   0.00000  Uiso   1.00
O1269  O     0.43988   0.20625   0.83333   0.00000  Uiso   1.00
O1270  O     0.62602   0.25138   0.82233   0.00000  Uiso   1.00
O1271  O     0.62582   0.08159   0.83984   0.00000  Uiso   1.00
O1272  O     0.37398   0.25138   0.84433   0.00000  Uiso   1.00
O1273  O     0.56012   0.12709   0.83334   0.00000  Uiso   1.00
O1274  O     0.56012   0.20625   0.83334   0.00000  Uiso   1.00
O1275  O     0.43988   0.12709   0.83333   0.00000  Uiso   1.00
O1276  O     0.50000   0.20625   0.76280   0.00000  Uiso   1.00
O1277  O     0.50000   0.12708   0.90387   0.00000  Uiso   1.00
O1278  O     0.50000   0.20625   0.90387   0.00000  Uiso   1.00
O1279  O     0.50000   0.12708   0.76280   0.00000  Uiso   1.00
O1280  O     0.37417   0.08159   0.82683   0.00000  Uiso   1.00
C1281  C     0.75404   0.16666   0.83360   0.00000  Uiso   1.00
C1282  C     0.68771   0.20917   0.83668   0.00000  Uiso   1.00
C1283  C     0.95726   0.16663   0.83283   0.00000  Uiso   1.00
C1284  C     0.70940   0.16663   0.83385   0.00000  Uiso   1.00
C1285  C     0.81815   0.02476   0.79425   0.00000  Uiso   1.00
C1286  C     0.84879   0.30857   0.87228   0.00000  Uiso   1.00
C1287  C     0.84852   0.02476   0.87242   0.00000  Uiso   1.00
C1288  C     0.81788   0.30857   0.79439   0.00000  Uiso   1.00
C1289  C     0.70625   0.06696   0.77718   0.00000  Uiso   1.00
C1290  C     0.71001   0.01408   0.77525   0.00000  Uiso   1.00
C1291  C     0.95682   0.25900   0.77105   0.00000  Uiso   1.00
C1292  C     0.91263   0.16666   0.83307   0.00000  Uiso   1.00
C1293  C     0.93237   0.30316   0.76087   0.00000  Uiso   1.00
C1294  C     0.96042   0.06696   0.88949   0.00000  Uiso   1.00
C1295  C     0.95666   0.01408   0.89142   0.00000  Uiso   1.00
C1296  C     0.70986   0.25900   0.89561   0.00000  Uiso   1.00
C1297  C     0.73431   0.30318   0.90578   0.00000  Uiso   1.00
C1298  C     0.83332   0.16667   0.74021   0.00000  Uiso   1.00
C1299  C     0.83335   0.16667   0.92646   0.00000  Uiso   1.00
C1300  C     0.83333   0.16667   0.68852   0.00000  Uiso   1.00
C1301  C     0.83334   0.16667   0.97815   0.00000  Uiso   1.00
C1302  C     0.68777   0.12413   0.83085   0.00000  Uiso   1.00
C1303  C     0.97896   0.20917   0.82999   0.00000  Uiso   1.00
C1304  C     0.97889   0.12413   0.83583   0.00000  Uiso   1.00
Cu1305 Cu    0.83333   0.21355   0.83333   0.00000  Uiso   1.00
Cu1306 Cu    0.83333   0.11978   0.83333   0.00000  Uiso   1.00
H1307  H     0.80565   0.04321   0.76297   0.00000  Uiso   1.00
H1308  H     0.94116   0.22941   0.75208   0.00000  Uiso   1.00
H1309  H     0.98774   0.26328   0.75506   0.00000  Uiso   1.00
H1310  H     0.93118   0.30985   0.72069   0.00000  Uiso   1.00
H1311  H     0.90090   0.29878   0.77457   0.00000  Uiso   1.00
H1312  H     0.94645   0.00043   0.77937   0.00000  Uiso   1.00
H1313  H     0.93452   0.08279   0.90971   0.00000  Uiso   1.00
H1314  H     0.98934   0.07647   0.90882   0.00000  Uiso   1.00
H1315  H     0.98296   0.33137   0.87264   0.00000  Uiso   1.00
H1316  H     0.95587   0.00198   0.93016   0.00000  Uiso   1.00
H1317  H     0.92871   0.00254   0.87219   0.00000  Uiso   1.00
H1318  H     0.86154   0.29012   0.90341   0.00000  Uiso   1.00
H1319  H     0.72554   0.22942   0.91456   0.00000  Uiso   1.00
H1320  H     0.67895   0.26328   0.91162   0.00000  Uiso   1.00
H1321  H     0.72020   0.00044   0.88735   0.00000  Uiso   1.00
H1322  H     0.73556   0.30984   0.94594   0.00000  Uiso   1.00
H1323  H     0.76574   0.29884   0.89202   0.00000  Uiso   1.00
H1324  H     0.86101   0.04321   0.90370   0.00000  Uiso   1.00
H1325  H     0.80513   0.29011   0.76325   0.00000  Uiso   1.00
H1326  H     0.73215   0.08279   0.75696   0.00000  Uiso   1.00
H1327  H     0.67733   0.07647   0.75784   0.00000  Uiso   1.00
H1328  H     0.68371   0.33138   0.79401   0.00000  Uiso   1.00
H1329  H     0.71081   0.00198   0.73650   0.00000  Uiso   1.00
H1330  H     0.73795   0.00254   0.79447   0.00000  Uiso   1.00
N1331  N     0.83333   0.28402   0.83333   0.00000  Uiso   1.00
N1332  N     0.83333   0.04931   0.83333   0.00000  Uiso   1.00
O1333  O     0.77321   0.20625   0.83333   0.00000  Uiso   1.00
O1334  O     0.95935   0.25138   0.82233   0.00000  Uiso   1.00
O1335  O     0.95916   0.08159   0.83984   0.00000  Uiso   1.00
O1336  O     0.70732   0.25138   0.84433   0.00000  Uiso   1.00
O1337  O     0.89345   0.12709   0.83334   0.00000  Uiso   1.00
O1338  O     0.89345   0.20625   0.83334   0.00000  Uiso   1.00
O1339  O     0.77321   0.12709   0.83333   0.00000  Uiso   1.00
O1340  O     0.83333   0.20625   0.76280   0.00000  Uiso   1.00
O1341  O     0.83333   0.12708   0.90387   0.00000  Uiso   1.00
O1342  O     0.83333   0.20625   0.90387   0.00000  Uiso   1.00
O1343  O     0.83333   0.12708   0.76280   0.00000  Uiso   1.00
O1344  O     0.70751   0.08159   0.82683   0.00000  Uiso   1.00
C1345  C     0.08737   0.49999   0.83360   0.00000  Uiso   1.00
C1346  C     0.02105   0.54251   0.83668   0.00000  Uiso   1.00
C1347  C     0.29060   0.49996   0.83283   0.00000  Uiso   1.00
C1348  C     0.04274   0.49996   0.83385   0.00000  Uiso   1.00
C1349  C     0.15148   0.35809   0.79425   0.00000  Uiso   1.00
C1350  C     0.18212   0.64191   0.87228   0.00000  Uiso   1.00
C1351  C     0.18185   0.35809   0.87242   0.00000  Uiso   1.00
C1352  C     0.15121   0.64190   0.79439   0.00000  Uiso   1.00
C1353  C     0.03958   0.40030   0.77718   0.00000  Uiso   1.00
C1354  C     0.04334   0.34742   0.77525   0.00000  Uiso   1.00
C1355  C     0.29016   0.59233   0.77105   0.00000  Uiso   1.00
C1356  C     0.24596   0.49999   0.83307   0.00000  Uiso   1.00
C1357  C     0.26570   0.63649   0.76087   0.00000  Uiso   1.00
C1358  C     0.29375   0.40030   0.88949   0.00000  Uiso   1.00
C1359  C     0.29000   0.34742   0.89142   0.00000  Uiso   1.00
C1360  C     0.04319   0.59234   0.89561   0.00000  Uiso   1.00
C1361  C     0.06764   0.63651   0.90578   0.00000  Uiso   1.00
C1362  C     0.16665   0.50000   0.74021   0.00000  Uiso   1.00
C1363  C     0.16668   0.50000   0.92646   0.00000  Uiso   1.00
C1364  C     0.16666   0.50001   0.68852   0.00000  Uiso   1.00
C1365  C     0.16667   0.50001   0.97815   0.00000  Uiso   1.00
C1366  C     0.02111   0.45747   0.83085   0.00000  Uiso   1.00
C1367  C     0.31229   0.54251   0.82999   0.00000  Uiso   1.00
C1368  C     0.31223   0.45747   0.83583   0.00000  Uiso   1.00
Cu1369 Cu    0.16667   0.54689   0.83333   0.00000  Uiso   1.00
Cu1370 Cu    0.16667   0.45311   0.83333   0.00000  Uiso   1.00
H1371  H     0.13899   0.37654   0.76297   0.00000  Uiso   1.00
H1372  H     0.27449   0.56274   0.75208   0.00000  Uiso   1.00
H1373  H     0.32107   0.59661   0.75506   0.00000  Uiso   1.00
H1374  H     0.26451   0.64318   0.72069   0.00000  Uiso   1.00
H1375  H     0.23423   0.63211   0.77457   0.00000  Uiso   1.00
H1376  H     0.27978   0.33376   0.77937   0.00000  Uiso   1.00
H1377  H     0.26785   0.41612   0.90971   0.00000  Uiso   1.00
H1378  H     0.32268   0.40980   0.90882   0.00000  Uiso   1.00
H1379  H     0.31629   0.66471   0.87264   0.00000  Uiso   1.00
H1380  H     0.28920   0.33531   0.93016   0.00000  Uiso   1.00
H1381  H     0.26205   0.33587   0.87219   0.00000  Uiso   1.00
H1382  H     0.19487   0.62345   0.90341   0.00000  Uiso   1.00
H1383  H     0.05887   0.56276   0.91456   0.00000  Uiso   1.00
H1384  H     0.01229   0.59661   0.91162   0.00000  Uiso   1.00
H1385  H     0.05353   0.33377   0.88735   0.00000  Uiso   1.00
H1386  H     0.06889   0.64318   0.94594   0.00000  Uiso   1.00
H1387  H     0.09908   0.63217   0.89202   0.00000  Uiso   1.00
H1388  H     0.19435   0.37655   0.90370   0.00000  Uiso   1.00
H1389  H     0.13846   0.62345   0.76325   0.00000  Uiso   1.00
H1390  H     0.06549   0.41612   0.75696   0.00000  Uiso   1.00
H1391  H     0.01066   0.40980   0.75784   0.00000  Uiso   1.00
H1392  H     0.01704   0.66471   0.79401   0.00000  Uiso   1.00
H1393  H     0.04414   0.33532   0.73650   0.00000  Uiso   1.00
H1394  H     0.07129   0.33587   0.79447   0.00000  Uiso   1.00
N1395  N     0.16667   0.61736   0.83333   0.00000  Uiso   1.00
N1396  N     0.16667   0.38264   0.83333   0.00000  Uiso   1.00
O1397  O     0.10655   0.53958   0.83333   0.00000  Uiso   1.00
O1398  O     0.29268   0.58471   0.82233   0.00000  Uiso   1.00
O1399  O     0.29249   0.41492   0.83984   0.00000  Uiso   1.00
O1400  O     0.04065   0.58472   0.84433   0.00000  Uiso   1.00
O1401  O     0.22679   0.46042   0.83334   0.00000  Uiso   1.00
O1402  O     0.22679   0.53958   0.83334   0.00000  Uiso   1.00
O1403  O     0.10655   0.46042   0.83333   0.00000  Uiso   1.00
O1404  O     0.16667   0.53959   0.76280   0.00000  Uiso   1.00
O1405  O     0.16667   0.46041   0.90387   0.00000  Uiso   1.00
O1406  O     0.16667   0.53959   0.90387   0.00000  Uiso   1.00
O1407  O     0.16667   0.46041   0.76280   0.00000  Uiso   1.00
O1408  O     0.04084   0.41492   0.82683   0.00000  Uiso   1.00
C1409  C     0.42070   0.49999   0.83360   0.00000  Uiso   1.00
C1410  C     0.35438   0.54251   0.83668   0.00000  Uiso   1.00
C1411  C     0.62393   0.49996   0.83283   0.00000  Uiso   1.00
C1412  C     0.37607   0.49996   0.83385   0.00000  Uiso   1.00
C1413  C     0.48482   0.35809   0.79425   0.00000  Uiso   1.00
C1414  C     0.51546   0.64191   0.87228   0.00000  Uiso   1.00
C1415  C     0.51518   0.35809   0.87242   0.00000  Uiso   1.00
C1416  C     0.48454   0.64190   0.79439   0.00000  Uiso   1.00
C1417  C     0.37292   0.40030   0.77718   0.00000  Uiso   1.00
C1418  C     0.37667   0.34742   0.77525   0.00000  Uiso   1.00
C1419  C     0.62349   0.59233   0.77105   0.00000  Uiso   1.00
C1420  C     0.57930   0.49999   0.83307   0.00000  Uiso   1.00
C1421  C     0.59904   0.63649   0.76087   0.00000  Uiso   1.00
C1422  C     0.62709   0.40030   0.88949   0.00000  Uiso   1.00
C1423  C     0.62333   0.34742   0.89142   0.00000  Uiso   1.00
C1424  C     0.37653   0.59234   0.89561   0.00000  Uiso   1.00
C1425  C     0.40098   0.63651   0.90578   0.00000  Uiso   1.00
C1426  C     0.49999   0.50000   0.74021   0.00000  Uiso   1.00
C1427  C     0.50001   0.50000   0.92646   0.00000  Uiso   1.00
C1428  C     0.50000   0.50001   0.68852   0.00000  Uiso   1.00
C1429  C     0.50000   0.50001   0.97815   0.00000  Uiso   1.00
C1430  C     0.35444   0.45747   0.83085   0.00000  Uiso   1.00
C1431  C     0.64562   0.54251   0.82999   0.00000  Uiso   1.00
C1432  C     0.64556   0.45747   0.83583   0.00000  Uiso   1.00
Cu1433 Cu    0.50000   0.54689   0.83333   0.00000  Uiso   1.00
Cu1434 Cu    0.50000   0.45311   0.83333   0.00000  Uiso   1.00
H1435  H     0.47232   0.37654   0.76297   0.00000  Uiso   1.00
H1436  H     0.60783   0.56274   0.75208   0.00000  Uiso   1.00
H1437  H     0.65441   0.59661   0.75506   0.00000  Uiso   1.00
H1438  H     0.59784   0.64318   0.72069   0.00000  Uiso   1.00
H1439  H     0.56756   0.63211   0.77457   0.00000  Uiso   1.00
H1440  H     0.61311   0.33376   0.77937   0.00000  Uiso   1.00
H1441  H     0.60119   0.41612   0.90971   0.00000  Uiso   1.00
H1442  H     0.65601   0.40980   0.90882   0.00000  Uiso   1.00
H1443  H     0.64962   0.66471   0.87264   0.00000  Uiso   1.00
H1444  H     0.62254   0.33531   0.93016   0.00000  Uiso   1.00
H1445  H     0.59538   0.33587   0.87219   0.00000  Uiso   1.00
H1446  H     0.52820   0.62345   0.90341   0.00000  Uiso   1.00
H1447  H     0.39221   0.56276   0.91456   0.00000  Uiso   1.00
H1448  H     0.34562   0.59661   0.91162   0.00000  Uiso   1.00
H1449  H     0.38686   0.33377   0.88735   0.00000  Uiso   1.00
H1450  H     0.40223   0.64318   0.94594   0.00000  Uiso   1.00
H1451  H     0.43241   0.63217   0.89202   0.00000  Uiso   1.00
H1452  H     0.52768   0.37655   0.90370   0.00000  Uiso   1.00
H1453  H     0.47180   0.62345   0.76325   0.00000  Uiso   1.00
H1454  H     0.39882   0.41612   0.75696   0.00000  Uiso   1.00
H1455  H     0.34399   0.40980   0.75784   0.00000  Uiso   1.00
H1456  H     0.35038   0.66471   0.79401   0.00000  Uiso   1.00
H1457  H     0.37747   0.33532   0.73650   0.00000  Uiso   1.00
H1458  H     0.40462   0.33587   0.79447   0.00000  Uiso   1.00
N1459  N     0.50000   0.61736   0.83333   0.00000  Uiso   1.00
N1460  N     0.50000   0.38264   0.83333   0.00000  Uiso   1.00
O1461  O     0.43988   0.53958   0.83333   0.00000  Uiso   1.00
O1462  O     0.62602   0.58471   0.82233   0.00000  Uiso   1.00
O1463  O     0.62582   0.41492   0.83984   0.00000  Uiso   1.00
O1464  O     0.37398   0.58472   0.84433   0.00000  Uiso   1.00
O1465  O     0.56012   0.46042   0.83334   0.00000  Uiso   1.00
O1466  O     0.56012   0.53958   0.83334   0.00000  Uiso   1.00
O1467  O     0.43988   0.46042   0.83333   0.00000  Uiso   1.00
O1468  O     0.50000   0.53959   0.76280   0.00000  Uiso   1.00
O1469  O     0.50000   0.46041   0.90387   0.00000  Uiso   1.00
O1470  O     0.50000   0.53959   0.90387   0.00000  Uiso   1.00
O1471  O     0.50000   0.46041   0.76280   0.00000  Uiso   1.00
O1472  O     0.37417   0.41492   0.82683   0.00000  Uiso   1.00
C1473  C     0.75404   0.49999   0.83360   0.00000  Uiso   1.00
C1474  C     0.68771   0.54251   0.83668   0.00000  Uiso   1.00
C1475  C     0.95726   0.49996   0.83283   0.00000  Uiso   1.00
C1476  C     0.70940   0.49996   0.83385   0.00000  Uiso   1.00
C1477  C     0.81815   0.35809   0.79425   0.00000  Uiso   1.00
C1478  C     0.84879   0.64191   0.87228   0.00000  Uiso   1.00
C1479  C     0.84852   0.35809   0.87242   0.00000  Uiso   1.00
C1480  C     0.81788   0.64190   0.79439   0.00000  Uiso   1.00
C1481  C     0.70625   0.40030   0.77718   0.00000  Uiso   1.00
C1482  C     0.71001   0.34742   0.77525   0.00000  Uiso   1.00
C1483  C     0.95682   0.59233   0.77105   0.00000  Uiso   1.00
C1484  C     0.91263   0.49999   0.83307   0.00000  Uiso   1.00
C1485  C     0.93237   0.63649   0.76087   0.00000  Uiso   1.00
C1486  C     0.96042   0.40030   0.88949   0.00000  Uiso   1.00
C1487  C     0.95666   0.34742   0.89142   0.00000  Uiso   1.00
C1488  C     0.70986   0.59234   0.89561   0.00000  Uiso   1.00
C1489  C     0.73431   0.63651   0.90578   0.00000  Uiso   1.00
C1490  C     0.83332   0.50000   0.74021   0.00000  Uiso   1.00
C1491  C     0.83335   0.50000   0.92646   0.00000  Uiso   1.00
C1492  C     0.83333   0.50001   0.68852   0.00000  Uiso   1.00
C1493  C     0.83334   0.50001   0.97815   0.00000  Uiso   1.00
C1494  C     0.68777   0.45747   0.83085   0.00000  Uiso   1.00
C1495  C     0.97896   0.54251   0.82999   0.00000  Uiso   1.00
C1496  C     0.97889   0.45747   0.83583   0.00000  Uiso   1.00
Cu1497 Cu    0.83333   0.54689   0.83333   0.00000  Uiso   1.00
Cu1498 Cu    0.83333   0.45311   0.83333   0.00000  Uiso   1.00
H1499  H     0.80565   0.37654   0.76297   0.00000  Uiso   1.00
H1500  H     0.94116   0.56274   0.75208   0.00000  Uiso   1.00
H1501  H     0.98774   0.59661   0.75506   0.00000  Uiso   1.00
H1502  H     0.93118   0.64318   0.72069   0.00000  Uiso   1.00
H1503  H     0.90090   0.63211   0.77457   0.00000  Uiso   1.00
H1504  H     0.94645   0.33376   0.77937   0.00000  Uiso   1.00
H1505  H     0.93452   0.41612   0.90971   0.00000  Uiso   1.00
H1506  H     0.98934   0.40980   0.90882   0.00000  Uiso   1.00
H1507  H     0.98296   0.66471   0.87264   0.00000  Uiso   1.00
H1508  H     0.95587   0.33531   0.93016   0.00000  Uiso   1.00
H1509  H     0.92871   0.33587   0.87219   0.00000  Uiso   1.00
H1510  H     0.86154   0.62345   0.90341   0.00000  Uiso   1.00
H1511  H     0.72554   0.56276   0.91456   0.00000  Uiso   1.00
H1512  H     0.67895   0.59661   0.91162   0.00000  Uiso   1.00
H1513  H     0.72020   0.33377   0.88735   0.00000  Uiso   1.00
H1514  H     0.73556   0.64318   0.94594   0.00000  Uiso   1.00
H1515  H     0.76574   0.63217   0.89202   0.00000  Uiso   1.00
H1516  H     0.86101   0.37655   0.90370   0.00000  Uiso   1.00
H1517  H     0.80513   0.62345   0.76325   0.00000  Uiso   1.00
H1518  H     0.73215   0.41612   0.75696   0.00000  Uiso   1.00
H1519  H     0.67733   0.40980   0.75784   0.00000  Uiso   1.00
H1520  H     0.68371   0.66471   0.79401   0.00000  Uiso   1.00
H1521  H     0.71081   0.33532   0.73650   0.00000  Uiso   1.00
H1522  H     0.73795   0.33587   0.79447   0.00000  Uiso   1.00
N1523  N     0.83333   0.61736   0.83333   0.00000  Uiso   1.00
N1524  N     0.83333   0.38264   0.83333   0.00000  Uiso   1.00
O1525  O     0.77321   0.53958   0.83333   0.00000  Uiso   1.00
O1526  O     0.95935   0.58471   0.82233   0.00000  Uiso   1.00
O1527  O     0.95916   0.41492   0.83984   0.00000  Uiso   1.00
O1528  O     0.70732   0.58472   0.84433   0.00000  Uiso   1.00
O1529  O     0.89345   0.46042   0.83334   0.00000  Uiso   1.00
O1530  O     0.89345   0.53958   0.83334   0.00000  Uiso   1.00
O1531  O     0.77321   0.46042   0.83333   0.00000  Uiso   1.00
O1532  O     0.83333   0.53959   0.76280   0.00000  Uiso   1.00
O1533  O     0.83333   0.46041   0.90387   0.00000  Uiso   1.00
O1534  O     0.83333   0.53959   0.90387   0.00000  Uiso   1.00
O1535  O     0.83333   0.46041   0.76280   0.00000  Uiso   1.00
O1536  O     0.70751   0.41492   0.82683   0.00000  Uiso   1.00
C1537  C     0.08737   0.83332   0.83360   0.00000  Uiso   1.00
C1538  C     0.02105   0.87584   0.83668   0.00000  Uiso   1.00
C1539  C     0.29060   0.83330   0.83283   0.00000  Uiso   1.00
C1540  C     0.04274   0.83330   0.83385   0.00000  Uiso   1.00
C1541  C     0.15148   0.69142   0.79425   0.00000  Uiso   1.00
C1542  C     0.18212   0.97524   0.87228   0.00000  Uiso   1.00
C1543  C     0.18185   0.69143   0.87242   0.00000  Uiso   1.00
C1544  C     0.15121   0.97524   0.79439   0.00000  Uiso   1.00
C1545  C     0.03958   0.73363   0.77718   0.00000  Uiso   1.00
C1546  C     0.04334   0.68075   0.77525   0.00000  Uiso   1.00
C1547  C     0.29016   0.92566   0.77105   0.00000  Uiso   1.00
C1548  C     0.24596   0.83332   0.83307   0.00000  Uiso   1.00
C1549  C     0.26570   0.96983   0.76087   0.00000  Uiso   1.00
C1550  C     0.29375   0.73363   0.88949   0.00000  Uiso   1.00
C1551  C     0.29000   0.68075   0.89142   0.00000  Uiso   1.00
C1552  C     0.04319   0.92567   0.89561   0.00000  Uiso   1.00
C1553  C     0.06764   0.96984   0.90578   0.00000  Uiso   1.00
C1554  C     0.16665   0.83333   0.74021   0.00000  Uiso   1.00
C1555  C     0.16668   0.83334   0.92646   0.00000  Uiso   1.00
C1556  C     0.16666   0.83334   0.68852   0.00000  Uiso   1.00
C1557  C     0.16667   0.83334   0.97815   0.00000  Uiso   1.00
C1558  C     0.02111   0.79080   0.83085   0.00000  Uiso   1.00
C1559  C     0.31229   0.87584   0.82999   0.00000  Uiso   1.00
C1560  C     0.31223   0.79080   0.83583   0.00000  Uiso   1.00
Cu1561 Cu    0.16667   0.88022   0.83333   0.00000  Uiso   1.00
Cu1562 Cu    0.16667   0.78645   0.83333   0.00000  Uiso   1.00
H1563  H     0.13899   0.70987   0.76297   0.00000  Uiso   1.00
H1564  H     0.27449   0.89608   0.75208   0.00000  Uiso   1.00
H1565  H     0.32107   0.92995   0.75506   0.00000  Uiso   1.00
H1566  H     0.26451   0.97651   0.72069   0.00000  Uiso   1.00
H1567  H     0.23423   0.96545   0.77457   0.00000  Uiso   1.00
H1568  H     0.27978   0.66709   0.77937   0.00000  Uiso   1.00
H1569  H     0.26785   0.74945   0.90971   0.00000  Uiso   1.00
H1570  H     0.32268   0.74313   0.90882   0.00000  Uiso   1.00
H1571  H     0.31629   0.99804   0.87264   0.00000  Uiso   1.00
H1572  H     0.28920   0.66865   0.93016   0.00000  Uiso   1.00
H1573  H     0.26205   0.66921   0.87219   0.00000  Uiso   1.00
H1574  H     0.19487   0.95679   0.90341   0.00000  Uiso   1.00
H1575  H     0.05887   0.89609   0.91456   0.00000  Uiso   1.00
H1576  H     0.01229   0.92995   0.91162   0.00000  Uiso   1.00
H1577  H     0.05353   0.66710   0.88735   0.00000  Uiso   1.00
H1578  H     0.06889   0.97651   0.94594   0.00000  Uiso   1.00
H1579  H     0.09908   0.96550   0.89202   0.00000  Uiso   1.00
H1580  H     0.19435   0.70988   0.90370   0.00000  Uiso   1.00
H1581  H     0.13846   0.95678   0.76325   0.00000  Uiso   1.00
H1582  H     0.06549   0.74946   0.75696   0.00000  Uiso   1.00
H1583  H     0.01066   0.74314   0.75784   0.00000  Uiso   1.00
H1584  H     0.01704   0.99804   0.79401   0.00000  Uiso   1.00
H1585  H     0.04414   0.66865   0.73650   0.00000  Uiso   1.00
H1586  H     0.07129   0.66921   0.79447   0.00000  Uiso   1.00
N1587  N     0.16667   0.95069   0.83333   0.00000  Uiso   1.00
N1588  N     0.16667   0.71598   0.83333   0.00000  Uiso   1.00
O1589  O     0.10655   0.87291   0.83333   0.00000  Uiso   1.00
O1590  O     0.29268   0.91805   0.82233   0.00000  Uiso   1.00
O1591  O     0.29249   0.74826   0.83984   0.00000  Uiso   1.00
O1592  O     0.04065   0.91805   0.84433   0.00000  Uiso   1.00
O1593  O     0.22679   0.79375   0.83334   0.00000  Uiso   1.00
O1594  O     0.22679   0.87291   0.83334   0.00000  Uiso   1.00
O1595  O     0.10655   0.79375   0.83333   0.00000  Uiso   1.00
O1596  O     0.16667   0.87292   0.76280   0.00000  Uiso   1.00
O1597  O     0.16667   0.79375   0.90387   0.00000  Uiso   1.00
O1598  O     0.16667   0.87292   0.90387   0.00000  Uiso   1.00
O1599  O     0.16667   0.79375   0.76280   0.00000  Uiso   1.00
O1600  O     0.04084   0.74826   0.82683   0.00000  Uiso   1.00
C1601  C     0.42070   0.83332   0.83360   0.00000  Uiso   1.00
C1602  C     0.35438   0.87584   0.83668   0.00000  Uiso   1.00
C1603  C     0.62393   0.83330   0.83283   0.00000  Uiso   1.00
C1604  C     0.37607   0.83330   0.83385   0.00000  Uiso   1.00
C1605  C     0.48482   0.69142   0.79425   0.00000  Uiso   1.00
C1606  C     0.51546   0.97524   0.87228   0.00000  Uiso   1.00
C1607  C     0.51518   0.69143   0.87242   0.00000  Uiso   1.00
C1608  C     0.48454   0.97524   0.79439   0.00000  Uiso   1.00
C1609  C     0.37292   0.73363   0.77718   0.00000  Uiso   1.00
C1610  C     0.37667   0.68075   0.77525   0.00000  Uiso   1.00
C1611  C     0.62349   0.92566   0.77105   0.00000  Uiso   1.00
C1612  C     0.57930   0.83332   0.83307   0.00000  Uiso   1.00
C1613  C     0.59904   0.96983   0.76087   0.00000  Uiso   1.00
C1614  C     0.62709   0.73363   0.88949   0.00000  Uiso   1.00
C1615  C     0.62333   0.68075   0.89142   0.00000  Uiso   1.00
C1616  C     0.37653   0.92567   0.89561   0.00000  Uiso   1.00
C1617  C     0.40098   0.96984   0.90578   0.00000  Uiso   1.00
C1618  C     0.49999   0.83333   0.74021   0.00000  Uiso   1.00
C1619  C     0.50001   0.83334   0.92646   0.00000  Uiso   1.00
C1620  C     0.50000   0.83334   0.68852   0.00000  Uiso   1.00
C1621  C     0.50000   0.83334   0.97815   0.00000  Uiso   1.00
C1622  C     0.35444   0.79080   0.83085   0.00000  Uiso   1.00
C1623  C     0.64562   0.87584   0.82999   0.00000  Uiso   1.00
C1624  C     0.64556   0.79080   0.83583   0.00000  Uiso   1.00
Cu1625 Cu    0.50000   0.88022   0.83333   0.00000  Uiso   1.00
Cu1626 Cu    0.50000   0.78645   0.83333   0.00000  Uiso   1.00
H1627  H     0.47232   0.70987   0.76297   0.00000  Uiso   1.00
H1628  H     0.60783   0.89608   0.75208   0.00000  Uiso   1.00
H1629  H     0.65441   0.92995   0.75506   0.00000  Uiso   1.00
H1630  H     0.59784   0.97651   0.72069   0.00000  Uiso   1.00
H1631  H     0.56756   0.96545   0.77457   0.00000  Uiso   1.00
H1632  H     0.61311   0.66709   0.77937   0.00000  Uiso   1.00
H1633  H     0.60119   0.74945   0.90971   0.00000  Uiso   1.00
H1634  H     0.65601   0.74313   0.90882   0.00000  Uiso   1.00
H1635  H     0.64962   0.99804   0.87264   0.00000  Uiso   1.00
H1636  H     0.62254   0.66865   0.93016   0.00000  Uiso   1.00
H1637  H     0.59538   0.66921   0.87219   0.00000  Uiso   1.00
H1638  H     0.52820   0.95679   0.90341   0.00000  Uiso   1.00
H1639  H     0.39221   0.89609   0.91456   0.00000  Uiso   1.00
H1640  H     0.34562   0.92995   0.91162   0.00000  Uiso   1.00
H1641  H     0.38686   0.66710   0.88735   0.00000  Uiso   1.00
H1642  H     0.40223   0.97651   0.94594   0.00000  Uiso   1.00
H1643  H     0.43241   0.96550   0.89202   0.00000  Uiso   1.00
H1644  H     0.52768   0.70988   0.90370   0.00000  Uiso   1.00
H1645  H     0.47180   0.95678   0.76325   0.00000  Uiso   1.00
H1646  H     0.39882   0.74946   0.75696   0.00000  Uiso   1.00
H1647  H     0.34399   0.74314   0.75784   0.00000  Uiso   1.00
H1648  H     0.35038   0.99804   0.79401   0.00000  Uiso   1.00
H1649  H     0.37747   0.66865   0.73650   0.00000  Uiso   1.00
H1650  H     0.40462   0.66921   0.79447   0.00000  Uiso   1.00
N1651  N     0.50000   0.95069   0.83333   0.00000  Uiso   1.00
N1652  N     0.50000   0.71598   0.83333   0.00000  Uiso   1.00
O1653  O     0.43988   0.87291   0.83333   0.00000  Uiso   1.00
O1654  O     0.62602   0.91805   0.82233   0.00000  Uiso   1.00
O1655  O     0.62582   0.74826   0.83984   0.00000  Uiso   1.00
O1656  O     0.37398   0.91805   0.84433   0.00000  Uiso   1.00
O1657  O     0.56012   0.79375   0.83334   0.00000  Uiso   1.00
O1658  O     0.56012   0.87291   0.83334   0.00000  Uiso   1.00
O1659  O     0.43988   0.79375   0.83333   0.00000  Uiso   1.00
O1660  O     0.50000   0.87292   0.76280   0.00000  Uiso   1.00
O1661  O     0.50000   0.79375   0.90387   0.00000  Uiso   1.00
O1662  O     0.50000   0.87292   0.90387   0.00000  Uiso   1.00
O1663  O     0.50000   0.79375   0.76280   0.00000  Uiso   1.00
O1664  O     0.37417   0.74826   0.82683   0.00000  Uiso   1.00
C1665  C     0.75404   0.83332   0.83360   0.00000  Uiso   1.00
C1666  C     0.68771   0.87584   0.83668   0.00000  Uiso   1.00
C1667  C     0.95726   0.83330   0.83283   0.00000  Uiso   1.00
C1668  C     0.70940   0.83330   0.83385   0.00000  Uiso   1.00
C1669  C     0.81815   0.69142   0.79425   0.00000  Uiso   1.00
C1670  C     0.84879   0.97524   0.87228   0.00000  Uiso   1.00
C1671  C     0.84852   0.69143   0.87242   0.00000  Uiso   1.00
C1672  C     0.81788   0.97524   0.79439   0.00000  Uiso   1.00
C1673  C     0.70625   0.73363   0.77718   0.00000  Uiso   1.00
C1674  C     0.71001   0.68075   0.77525   0.00000  Uiso   1.00
C1675  C     0.95682   0.92566   0.77105   0.00000  Uiso   1.00
C1676  C     0.91263   0.83332   0.83307   0.00000  Uiso   1.00
C1677  C     0.93237   0.96983   0.76087   0.00000  Uiso   1.00
C1678  C     0.96042   0.73363   0.88949   0.00000  Uiso   1.00
C1679  C     0.95666   0.68075   0.89142   0.00000  Uiso   1.00
C1680  C     0.70986   0.92567   0.89561   0.00000  Uiso   1.00
C1681  C     0.73431   0.96984   0.90578   0.00000  Uiso   1.00
C1682  C     0.83332   0.83333   0.74021   0.00000  Uiso   1.00
C1683  C     0.83335   0.83334   0.92646   0.00000  Uiso   1.00
C1684  C     0.83333   0.83334   0.68852   0.00000  Uiso   1.00
C1685  C     0.83334   0.83334   0.97815   0.00000  Uiso   1.00
C1686  C     0.68777   0.79080   0.83085   0.00000  Uiso   1.00
C1687  C     0.97896   0.87584   0.82999   0.00000  Uiso   1.00
C1688  C     0.97889   0.79080   0.83583   0.00000  Uiso   1.00
Cu1689 Cu    0.83333   0.88022   0.83333   0.00000  Uiso   1.00
Cu1690 Cu    0.83333   0.78645   0.83333   0.00000  Uiso   1.00
H1691  H     0.80565   0.70987   0.76297   0.00000  Uiso   1.00
H1692  H     0.94116   0.89608   0.75208   0.00000  Uiso   1.00
H1693  H     0.98774   0.92995   0.75506   0.00000  Uiso   1.00
H1694  H     0.93118   0.97651   0.72069   0.00000  Uiso   1.00
H1695  H     0.90090   0.96545   0.77457   0.00000  Uiso   1.00
H1696  H     0.94645   0.66709   0.77937   0.00000  Uiso   1.00
H1697  H     0.93452   0.74945   0.90971   0.00000  Uiso   1.00
H1698  H     0.98934   0.74313   0.90882   0.00000  Uiso   1.00
H1699  H     0.98296   0.99804   0.87264   0.00000  Uiso   1.00
H1700  H     0.95587   0.66865   0.93016   0.00000  Uiso   1.00
H1701  H     0.92871   0.66921   0.87219   0.00000  Uiso   1.00
H1702  H     0.86154   0.95679   0.90341   0.00000  Uiso   1.00
H1703  H     0.72554   0.89609   0.91456   0.00000  Uiso   1.00
H1704  H     0.67895   0.92995   0.91162   0.00000  Uiso   1.00
H1705  H     0.72020   0.66710   0.88735   0.00000  Uiso   1.00
H1706  H     0.73556   0.97651   0.94594   0.00000  Uiso   1.00
H1707  H     0.76574   0.96550   0.89202   0.00000  Uiso   1.00
H1708  H     0.86101   0.70988   0.90370   0.00000  Uiso   1.00
H1709  H     0.80513   0.95678   0.76325   0.00000  Uiso   1.00
H1710  H     0.73215   0.74946   0.75696   0.00000  Uiso   1.00
H1711  H     0.67733   0.74314   0.75784   0.00000  Uiso   1.00
H1712  H     0.68371   0.99804   0.79401   0.00000  Uiso   1.00
H1713  H     0.71081   0.66865   0.73650   0.00000  Uiso   1.00
H1714  H     0.73795   0.66921   0.79447   0.00000  Uiso   1.00
N1715  N     0.83333   0.95069   0.83333   0.00000  Uiso   1.00
N1716  N     0.83333   0.71598   0.83333   0.00000  Uiso   1.00
O1717  O     0.77321   0.87291   0.83333   0.00000  Uiso   1.00
O1718  O     0.95935   0.91805   0.82233   0.00000  Uiso   1.00
O1719  O     0.95916   0.74826   0.83984   0.00000  Uiso   1.00
O1720  O     0.70732   0.91805   0.84433   0.00000  Uiso   1.00
O1721  O     0.89345   0.79375   0.83334   0.00000  Uiso   1.00
O1722  O     0.89345   0.87291   0.83334   0.00000  Uiso   1.00
O1723  O     0.77321   0.79375   0.83333   0.00000  Uiso   1.00
O1724  O     0.83333   0.87292   0.76280   0.00000  Uiso   1.00
O1725  O     0.83333   0.79375   0.90387   0.00000  Uiso   1.00
O1726  O     0.83333   0.87292   0.90387   0.00000  Uiso   1.00
O1727  O     0.83333   0.79375   0.76280   0.00000  Uiso   1.00
O1728  O     0.70751   0.74826   0.82683   0.00000  Uiso   1.00
loop_
_geom_bond_atom_site_label_1
_geom_bond_atom_site_label_2
_geom_bond_distance
_geom_bond_site_symmetry_2
_ccdc_geom_bond_type
C1     C4      1.466   .     S
C1     O59     1.295   .     A
C1     O53     1.296   .     A
C2     C4      1.412   .     A
C2     O56     1.383   .     S
C2     C151    1.393   1_455 S
C3     C23     1.412   .     A
C3     C24     1.410   .     A
C3     C12     1.466   .     S
C4     C22     1.410   .     A
C5     N52     1.367   .     A
C5     H27     1.081   .     S
C5     C392    1.416   1_545 S
C6     N51     1.367   .     A
C6     H38     1.081   .     S
C6     C199    1.416   .     S
C7     H44     1.081   .     S
C7     N52     1.367   .     A
C7     C390    1.416   1_545 S
C8     N51     1.367   .     A
C8     H45     1.081   .     S
C8     C197    1.416   .     S
C9     O64     1.415   .     S
C9     C10     1.518   .     S
C9     H46     1.112   .     S
C9     H47     1.117   .     S
C10    H50     1.105   .     S
C10    H49     1.110   .     S
C10    H432    1.105   1_545 S
C11    C13     1.521   .     S
C11    O54     1.415   .     S
C11    H28     1.115   .     S
C11    H29     1.114   .     S
C12    O58     1.296   .     A
C12    O57     1.295   .     A
C13    H30     1.111   .     S
C13    H31     1.108   .     S
C13    H224    1.109   .     S
C14    H34     1.117   .     S
C14    C15     1.518   .     S
C14    H33     1.112   .     S
C14    O55     1.415   .     S
C15    H36     1.110   .     S
C15    H37     1.105   .     S
C15    H419    1.105   1_545 S
C16    O56     1.415   .     S
C16    H40     1.114   .     S
C16    H39     1.115   .     S
C16    C17     1.521   .     S
C17    H43     1.107   .     S
C17    H42     1.110   .     S
C17    H233    1.109   .     S
C18    O60     1.288   .     A
C18    C20     1.407   .     S
C18    O63     1.288   .     A
C19    C21     1.407   .     S
C19    O61     1.288   .     A
C19    O62     1.288   .     A
C20    C1173   1.190   1_554 S
C21    C596    1.190   .     S
C22    O64     1.383   .     S
C22    C152    1.394   1_455 S
C23    O54     1.383   .     S
C23    C66     1.393   .     S
C24    O55     1.383   .     S
C24    C86     1.394   .     S
Cu25   O60     1.931   .     S
Cu25   N51     2.015   .     S
Cu25   O62     1.931   .     S
Cu25   O58     1.985   .     S
Cu25   Cu26    2.681   .     S
Cu25   O53     1.985   .     S
Cu26   O63     1.931   .     S
Cu26   N52     2.015   .     S
Cu26   O61     1.931   .     S
Cu26   O57     1.985   .     S
Cu26   O59     1.985   .     S
H32    C397    1.109   1_545 S
H35    C207    1.105   .     S
H41    C401    1.109   1_545 S
H48    C202    1.105   .     S
C65    C68     1.466   .     S
C65    O123    1.295   .     A
C65    O117    1.296   .     A
C66    C68     1.412   .     A
C66    O120    1.383   .     S
C67    C87     1.412   .     A
C67    C88     1.410   .     A
C67    C76     1.466   .     S
C68    C86     1.410   .     A
C69    N116    1.367   .     A
C69    H91     1.081   .     S
C69    C456    1.416   1_545 S
C70    N115    1.367   .     A
C70    H102    1.081   .     S
C70    C263    1.416   .     S
C71    H108    1.081   .     S
C71    N116    1.367   .     A
C71    C454    1.416   1_545 S
C72    N115    1.367   .     A
C72    H109    1.081   .     S
C72    C261    1.416   .     S
C73    O128    1.415   .     S
C73    C74     1.518   .     S
C73    H110    1.112   .     S
C73    H111    1.117   .     S
C74    H114    1.105   .     S
C74    H113    1.110   .     S
C74    H496    1.105   1_545 S
C75    C77     1.521   .     S
C75    O118    1.415   .     S
C75    H92     1.115   .     S
C75    H93     1.114   .     S
C76    O122    1.296   .     A
C76    O121    1.295   .     A
C77    H94     1.111   .     S
C77    H95     1.108   .     S
C77    H288    1.109   .     S
C78    H98     1.117   .     S
C78    C79     1.518   .     S
C78    H97     1.112   .     S
C78    O119    1.415   .     S
C79    H100    1.110   .     S
C79    H101    1.105   .     S
C79    H483    1.105   1_545 S
C80    O120    1.415   .     S
C80    H104    1.114   .     S
C80    H103    1.115   .     S
C80    C81     1.521   .     S
C81    H107    1.107   .     S
C81    H106    1.110   .     S
C81    H297    1.109   .     S
C82    O124    1.288   .     A
C82    C84     1.407   .     S
C82    O127    1.288   .     A
C83    C85     1.407   .     S
C83    O125    1.288   .     A
C83    O126    1.288   .     A
C84    C1237   1.190   1_554 S
C85    C660    1.190   .     S
C86    O128    1.383   .     S
C87    O118    1.383   .     S
C87    C130    1.393   .     S
C88    O119    1.383   .     S
C88    C150    1.394   .     S
Cu89   O124    1.931   .     S
Cu89   N115    2.015   .     S
Cu89   O126    1.931   .     S
Cu89   O122    1.985   .     S
Cu89   Cu90    2.681   .     S
Cu89   O117    1.985   .     S
Cu90   O127    1.931   .     S
Cu90   N116    2.015   .     S
Cu90   O125    1.931   .     S
Cu90   O121    1.985   .     S
Cu90   O123    1.985   .     S
H96    C461    1.109   1_545 S
H99    C271    1.105   .     S
H105   C465    1.109   1_545 S
H112   C266    1.105   .     S
C129   C132    1.466   .     S
C129   O187    1.295   .     A
C129   O181    1.296   .     A
C130   C132    1.412   .     A
C130   O184    1.383   .     S
C131   C151    1.412   .     A
C131   C152    1.410   .     A
C131   C140    1.466   .     S
C132   C150    1.410   .     A
C133   N180    1.367   .     A
C133   H155    1.081   .     S
C133   C520    1.416   1_545 S
C134   N179    1.367   .     A
C134   H166    1.081   .     S
C134   C327    1.416   .     S
C135   H172    1.081   .     S
C135   N180    1.367   .     A
C135   C518    1.416   1_545 S
C136   N179    1.367   .     A
C136   H173    1.081   .     S
C136   C325    1.416   .     S
C137   O192    1.415   .     S
C137   C138    1.518   .     S
C137   H174    1.112   .     S
C137   H175    1.117   .     S
C138   H178    1.105   .     S
C138   H177    1.110   .     S
C138   H560    1.105   1_545 S
C139   C141    1.521   .     S
C139   O182    1.415   .     S
C139   H156    1.115   .     S
C139   H157    1.114   .     S
C140   O186    1.296   .     A
C140   O185    1.295   .     A
C141   H158    1.111   .     S
C141   H159    1.108   .     S
C141   H352    1.109   .     S
C142   H162    1.117   .     S
C142   C143    1.518   .     S
C142   H161    1.112   .     S
C142   O183    1.415   .     S
C143   H164    1.110   .     S
C143   H165    1.105   .     S
C143   H547    1.105   1_545 S
C144   O184    1.415   .     S
C144   H168    1.114   .     S
C144   H167    1.115   .     S
C144   C145    1.521   .     S
C145   H171    1.107   .     S
C145   H170    1.110   .     S
C145   H361    1.109   .     S
C146   O188    1.288   .     A
C146   C148    1.407   .     S
C146   O191    1.288   .     A
C147   C149    1.407   .     S
C147   O189    1.288   .     A
C147   O190    1.288   .     A
C148   C1301   1.190   1_554 S
C149   C724    1.190   .     S
C150   O192    1.383   .     S
C151   O182    1.383   .     S
C151   C2      1.393   1_655 S
C152   O183    1.383   .     S
C152   C22     1.394   1_655 S
Cu153  O188    1.931   .     S
Cu153  N179    2.015   .     S
Cu153  O190    1.931   .     S
Cu153  O186    1.985   .     S
Cu153  Cu154   2.681   .     S
Cu153  O181    1.985   .     S
Cu154  O191    1.931   .     S
Cu154  N180    2.015   .     S
Cu154  O189    1.931   .     S
Cu154  O185    1.985   .     S
Cu154  O187    1.985   .     S
H160   C525    1.109   1_545 S
H163   C335    1.105   .     S
H169   C529    1.109   1_545 S
H176   C330    1.105   .     S
C193   C196    1.466   .     S
C193   O251    1.295   .     A
C193   O245    1.296   .     A
C194   C196    1.412   .     A
C194   O248    1.383   .     S
C194   C343    1.393   1_455 S
C195   C215    1.412   .     A
C195   C216    1.410   .     A
C195   C204    1.466   .     S
C196   C214    1.410   .     A
C197   N244    1.367   .     A
C197   H219    1.081   .     S
C198   N243    1.367   .     A
C198   H230    1.081   .     S
C198   C391    1.416   .     S
C199   H236    1.081   .     S
C199   N244    1.367   .     A
C200   N243    1.367   .     A
C200   H237    1.081   .     S
C200   C389    1.416   .     S
C201   O256    1.415   .     S
C201   C202    1.518   .     S
C201   H238    1.112   .     S
C201   H239    1.117   .     S
C202   H242    1.105   .     S
C202   H241    1.110   .     S
C203   C205    1.521   .     S
C203   O246    1.415   .     S
C203   H220    1.115   .     S
C203   H221    1.114   .     S
C204   O250    1.296   .     A
C204   O249    1.295   .     A
C205   H222    1.111   .     S
C205   H223    1.108   .     S
C205   H416    1.109   .     S
C206   H226    1.117   .     S
C206   C207    1.518   .     S
C206   H225    1.112   .     S
C206   O247    1.415   .     S
C207   H228    1.110   .     S
C207   H229    1.105   .     S
C208   O248    1.415   .     S
C208   H232    1.114   .     S
C208   H231    1.115   .     S
C208   C209    1.521   .     S
C209   H235    1.107   .     S
C209   H234    1.110   .     S
C209   H425    1.109   .     S
C210   O252    1.288   .     A
C210   C212    1.407   .     S
C210   O255    1.288   .     A
C211   C213    1.407   .     S
C211   O253    1.288   .     A
C211   O254    1.288   .     A
C212   C1365   1.190   1_554 S
C213   C788    1.190   .     S
C214   O256    1.383   .     S
C214   C344    1.394   1_455 S
C215   O246    1.383   .     S
C215   C258    1.393   .     S
C216   O247    1.383   .     S
C216   C278    1.394   .     S
Cu217  O252    1.931   .     S
Cu217  N243    2.015   .     S
Cu217  O254    1.931   .     S
Cu217  O250    1.985   .     S
Cu217  Cu218   2.681   .     S
Cu217  O245    1.985   .     S
Cu218  O255    1.931   .     S
Cu218  N244    2.015   .     S
Cu218  O253    1.931   .     S
Cu218  O249    1.985   .     S
Cu218  O251    1.985   .     S
H227   C399    1.105   .     S
H240   C394    1.105   .     S
C257   C260    1.466   .     S
C257   O315    1.295   .     A
C257   O309    1.296   .     A
C258   C260    1.412   .     A
C258   O312    1.383   .     S
C259   C279    1.412   .     A
C259   C280    1.410   .     A
C259   C268    1.466   .     S
C260   C278    1.410   .     A
C261   N308    1.367   .     A
C261   H283    1.081   .     S
C262   N307    1.367   .     A
C262   H294    1.081   .     S
C262   C455    1.416   .     S
C263   H300    1.081   .     S
C263   N308    1.367   .     A
C264   N307    1.367   .     A
C264   H301    1.081   .     S
C264   C453    1.416   .     S
C265   O320    1.415   .     S
C265   C266    1.518   .     S
C265   H302    1.112   .     S
C265   H303    1.117   .     S
C266   H306    1.105   .     S
C266   H305    1.110   .     S
C267   C269    1.521   .     S
C267   O310    1.415   .     S
C267   H284    1.115   .     S
C267   H285    1.114   .     S
C268   O314    1.296   .     A
C268   O313    1.295   .     A
C269   H286    1.111   .     S
C269   H287    1.108   .     S
C269   H480    1.109   .     S
C270   H290    1.117   .     S
C270   C271    1.518   .     S
C270   H289    1.112   .     S
C270   O311    1.415   .     S
C271   H292    1.110   .     S
C271   H293    1.105   .     S
C272   O312    1.415   .     S
C272   H296    1.114   .     S
C272   H295    1.115   .     S
C272   C273    1.521   .     S
C273   H299    1.107   .     S
C273   H298    1.110   .     S
C273   H489    1.109   .     S
C274   O316    1.288   .     A
C274   C276    1.407   .     S
C274   O319    1.288   .     A
C275   C277    1.407   .     S
C275   O317    1.288   .     A
C275   O318    1.288   .     A
C276   C1429   1.190   1_554 S
C277   C852    1.190   .     S
C278   O320    1.383   .     S
C279   O310    1.383   .     S
C279   C322    1.393   .     S
C280   O311    1.383   .     S
C280   C342    1.394   .     S
Cu281  O316    1.931   .     S
Cu281  N307    2.015   .     S
Cu281  O318    1.931   .     S
Cu281  O314    1.985   .     S
Cu281  Cu282   2.681   .     S
Cu281  O309    1.985   .     S
Cu282  O319    1.931   .     S
Cu282  N308    2.015   .     S
Cu282  O317    1.931   .     S
Cu282  O313    1.985   .     S
Cu282  O315    1.985   .     S
H291   C463    1.105   .     S
H304   C458    1.105   .     S
C321   C324    1.466   .     S
C321   O379    1.295   .     A
C321   O373    1.296   .     A
C322   C324    1.412   .     A
C322   O376    1.383   .     S
C323   C343    1.412   .     A
C323   C344    1.410   .     A
C323   C332    1.466   .     S
C324   C342    1.410   .     A
C325   N372    1.367   .     A
C325   H347    1.081   .     S
C326   N371    1.367   .     A
C326   H358    1.081   .     S
C326   C519    1.416   .     S
C327   H364    1.081   .     S
C327   N372    1.367   .     A
C328   N371    1.367   .     A
C328   H365    1.081   .     S
C328   C517    1.416   .     S
C329   O384    1.415   .     S
C329   C330    1.518   .     S
C329   H366    1.112   .     S
C329   H367    1.117   .     S
C330   H370    1.105   .     S
C330   H369    1.110   .     S
C331   C333    1.521   .     S
C331   O374    1.415   .     S
C331   H348    1.115   .     S
C331   H349    1.114   .     S
C332   O378    1.296   .     A
C332   O377    1.295   .     A
C333   H350    1.111   .     S
C333   H351    1.108   .     S
C333   H544    1.109   .     S
C334   H354    1.117   .     S
C334   C335    1.518   .     S
C334   H353    1.112   .     S
C334   O375    1.415   .     S
C335   H356    1.110   .     S
C335   H357    1.105   .     S
C336   O376    1.415   .     S
C336   H360    1.114   .     S
C336   H359    1.115   .     S
C336   C337    1.521   .     S
C337   H363    1.107   .     S
C337   H362    1.110   .     S
C337   H553    1.109   .     S
C338   O380    1.288   .     A
C338   C340    1.407   .     S
C338   O383    1.288   .     A
C339   C341    1.407   .     S
C339   O381    1.288   .     A
C339   O382    1.288   .     A
C340   C1493   1.190   1_554 S
C341   C916    1.190   .     S
C342   O384    1.383   .     S
C343   O374    1.383   .     S
C343   C194    1.393   1_655 S
C344   O375    1.383   .     S
C344   C214    1.394   1_655 S
Cu345  O380    1.931   .     S
Cu345  N371    2.015   .     S
Cu345  O382    1.931   .     S
Cu345  O378    1.985   .     S
Cu345  Cu346   2.681   .     S
Cu345  O373    1.985   .     S
Cu346  O383    1.931   .     S
Cu346  N372    2.015   .     S
Cu346  O381    1.931   .     S
Cu346  O377    1.985   .     S
Cu346  O379    1.985   .     S
H355   C527    1.105   .     S
H368   C522    1.105   .     S
C385   C388    1.466   .     S
C385   O443    1.295   .     A
C385   O437    1.296   .     A
C386   C388    1.412   .     A
C386   O440    1.383   .     S
C386   C535    1.393   1_455 S
C387   C407    1.412   .     A
C387   C408    1.410   .     A
C387   C396    1.466   .     S
C388   C406    1.410   .     A
C389   N436    1.367   .     A
C389   H411    1.081   .     S
C390   N435    1.367   .     A
C390   H422    1.081   .     S
C390   C7      1.416   1_565 S
C391   H428    1.081   .     S
C391   N436    1.367   .     A
C392   N435    1.367   .     A
C392   H429    1.081   .     S
C392   C5      1.416   1_565 S
C393   O448    1.415   .     S
C393   C394    1.518   .     S
C393   H430    1.112   .     S
C393   H431    1.117   .     S
C394   H434    1.105   .     S
C394   H433    1.110   .     S
C395   C397    1.521   .     S
C395   O438    1.415   .     S
C395   H412    1.115   .     S
C395   H413    1.114   .     S
C396   O442    1.296   .     A
C396   O441    1.295   .     A
C397   H414    1.111   .     S
C397   H415    1.108   .     S
C397   H32     1.109   1_565 S
C398   H418    1.117   .     S
C398   C399    1.518   .     S
C398   H417    1.112   .     S
C398   O439    1.415   .     S
C399   H420    1.110   .     S
C399   H421    1.105   .     S
C400   O440    1.415   .     S
C400   H424    1.114   .     S
C400   H423    1.115   .     S
C400   C401    1.521   .     S
C401   H427    1.107   .     S
C401   H426    1.110   .     S
C401   H41     1.109   1_565 S
C402   O444    1.288   .     A
C402   C404    1.407   .     S
C402   O447    1.288   .     A
C403   C405    1.407   .     S
C403   O445    1.288   .     A
C403   O446    1.288   .     A
C404   C1557   1.190   1_554 S
C405   C980    1.190   .     S
C406   O448    1.383   .     S
C406   C536    1.394   1_455 S
C407   O438    1.383   .     S
C407   C450    1.393   .     S
C408   O439    1.383   .     S
C408   C470    1.394   .     S
Cu409  O444    1.931   .     S
Cu409  N435    2.015   .     S
Cu409  O446    1.931   .     S
Cu409  O442    1.985   .     S
Cu409  Cu410   2.681   .     S
Cu409  O437    1.985   .     S
Cu410  O447    1.931   .     S
Cu410  N436    2.015   .     S
Cu410  O445    1.931   .     S
Cu410  O441    1.985   .     S
Cu410  O443    1.985   .     S
H419   C15     1.105   1_565 S
H432   C10     1.105   1_565 S
C449   C452    1.466   .     S
C449   O507    1.295   .     A
C449   O501    1.296   .     A
C450   C452    1.412   .     A
C450   O504    1.383   .     S
C451   C471    1.412   .     A
C451   C472    1.410   .     A
C451   C460    1.466   .     S
C452   C470    1.410   .     A
C453   N500    1.367   .     A
C453   H475    1.081   .     S
C454   N499    1.367   .     A
C454   H486    1.081   .     S
C454   C71     1.416   1_565 S
C455   H492    1.081   .     S
C455   N500    1.367   .     A
C456   N499    1.367   .     A
C456   H493    1.081   .     S
C456   C69     1.416   1_565 S
C457   O512    1.415   .     S
C457   C458    1.518   .     S
C457   H494    1.112   .     S
C457   H495    1.117   .     S
C458   H498    1.105   .     S
C458   H497    1.110   .     S
C459   C461    1.521   .     S
C459   O502    1.415   .     S
C459   H476    1.115   .     S
C459   H477    1.114   .     S
C460   O506    1.296   .     A
C460   O505    1.295   .     A
C461   H478    1.111   .     S
C461   H479    1.108   .     S
C461   H96     1.109   1_565 S
C462   H482    1.117   .     S
C462   C463    1.518   .     S
C462   H481    1.112   .     S
C462   O503    1.415   .     S
C463   H484    1.110   .     S
C463   H485    1.105   .     S
C464   O504    1.415   .     S
C464   H488    1.114   .     S
C464   H487    1.115   .     S
C464   C465    1.521   .     S
C465   H491    1.107   .     S
C465   H490    1.110   .     S
C465   H105    1.109   1_565 S
C466   O508    1.288   .     A
C466   C468    1.407   .     S
C466   O511    1.288   .     A
C467   C469    1.407   .     S
C467   O509    1.288   .     A
C467   O510    1.288   .     A
C468   C1621   1.190   1_554 S
C469   C1044   1.190   .     S
C470   O512    1.383   .     S
C471   O502    1.383   .     S
C471   C514    1.393   .     S
C472   O503    1.383   .     S
C472   C534    1.394   .     S
Cu473  O508    1.931   .     S
Cu473  N499    2.015   .     S
Cu473  O510    1.931   .     S
Cu473  O506    1.985   .     S
Cu473  Cu474   2.681   .     S
Cu473  O501    1.985   .     S
Cu474  O511    1.931   .     S
Cu474  N500    2.015   .     S
Cu474  O509    1.931   .     S
Cu474  O505    1.985   .     S
Cu474  O507    1.985   .     S
H483   C79     1.105   1_565 S
H496   C74     1.105   1_565 S
C513   C516    1.466   .     S
C513   O571    1.295   .     A
C513   O565    1.296   .     A
C514   C516    1.412   .     A
C514   O568    1.383   .     S
C515   C535    1.412   .     A
C515   C536    1.410   .     A
C515   C524    1.466   .     S
C516   C534    1.410   .     A
C517   N564    1.367   .     A
C517   H539    1.081   .     S
C518   N563    1.367   .     A
C518   H550    1.081   .     S
C518   C135    1.416   1_565 S
C519   H556    1.081   .     S
C519   N564    1.367   .     A
C520   N563    1.367   .     A
C520   H557    1.081   .     S
C520   C133    1.416   1_565 S
C521   O576    1.415   .     S
C521   C522    1.518   .     S
C521   H558    1.112   .     S
C521   H559    1.117   .     S
C522   H562    1.105   .     S
C522   H561    1.110   .     S
C523   C525    1.521   .     S
C523   O566    1.415   .     S
C523   H540    1.115   .     S
C523   H541    1.114   .     S
C524   O570    1.296   .     A
C524   O569    1.295   .     A
C525   H542    1.111   .     S
C525   H543    1.108   .     S
C525   H160    1.109   1_565 S
C526   H546    1.117   .     S
C526   C527    1.518   .     S
C526   H545    1.112   .     S
C526   O567    1.415   .     S
C527   H548    1.110   .     S
C527   H549    1.105   .     S
C528   O568    1.415   .     S
C528   H552    1.114   .     S
C528   H551    1.115   .     S
C528   C529    1.521   .     S
C529   H555    1.107   .     S
C529   H554    1.110   .     S
C529   H169    1.109   1_565 S
C530   O572    1.288   .     A
C530   C532    1.407   .     S
C530   O575    1.288   .     A
C531   C533    1.407   .     S
C531   O573    1.288   .     A
C531   O574    1.288   .     A
C532   C1685   1.190   1_554 S
C533   C1108   1.190   .     S
C534   O576    1.383   .     S
C535   O566    1.383   .     S
C535   C386    1.393   1_655 S
C536   O567    1.383   .     S
C536   C406    1.394   1_655 S
Cu537  O572    1.931   .     S
Cu537  N563    2.015   .     S
Cu537  O574    1.931   .     S
Cu537  O570    1.985   .     S
Cu537  Cu538   2.681   .     S
Cu537  O565    1.985   .     S
Cu538  O575    1.931   .     S
Cu538  N564    2.015   .     S
Cu538  O573    1.931   .     S
Cu538  O569    1.985   .     S
Cu538  O571    1.985   .     S
H547   C143    1.105   1_565 S
H560   C138    1.105   1_565 S
C577   C580    1.466   .     S
C577   O635    1.295   .     A
C577   O629    1.296   .     A
C578   C580    1.412   .     A
C578   O632    1.383   .     S
C578   C727    1.393   1_455 S
C579   C599    1.412   .     A
C579   C600    1.410   .     A
C579   C588    1.466   .     S
C580   C598    1.410   .     A
C581   N628    1.367   .     A
C581   H603    1.081   .     S
C581   C968    1.416   1_545 S
C582   N627    1.367   .     A
C582   H614    1.081   .     S
C582   C775    1.416   .     S
C583   H620    1.081   .     S
C583   N628    1.367   .     A
C583   C966    1.416   1_545 S
C584   N627    1.367   .     A
C584   H621    1.081   .     S
C584   C773    1.416   .     S
C585   O640    1.415   .     S
C585   C586    1.518   .     S
C585   H622    1.112   .     S
C585   H623    1.117   .     S
C586   H626    1.105   .     S
C586   H625    1.110   .     S
C586   H1008   1.105   1_545 S
C587   C589    1.521   .     S
C587   O630    1.415   .     S
C587   H604    1.115   .     S
C587   H605    1.114   .     S
C588   O634    1.296   .     A
C588   O633    1.295   .     A
C589   H606    1.111   .     S
C589   H607    1.108   .     S
C589   H800    1.109   .     S
C590   H610    1.117   .     S
C590   C591    1.518   .     S
C590   H609    1.112   .     S
C590   O631    1.415   .     S
C591   H612    1.110   .     S
C591   H613    1.105   .     S
C591   H995    1.105   1_545 S
C592   O632    1.415   .     S
C592   H616    1.114   .     S
C592   H615    1.115   .     S
C592   C593    1.521   .     S
C593   H619    1.107   .     S
C593   H618    1.110   .     S
C593   H809    1.109   .     S
C594   O636    1.288   .     A
C594   C596    1.407   .     S
C594   O639    1.288   .     A
C595   C597    1.407   .     S
C595   O637    1.288   .     A
C595   O638    1.288   .     A
C597   C1172   1.190   .     S
C598   O640    1.383   .     S
C598   C728    1.394   1_455 S
C599   O630    1.383   .     S
C599   C642    1.393   .     S
C600   O631    1.383   .     S
C600   C662    1.394   .     S
Cu601  O636    1.931   .     S
Cu601  N627    2.015   .     S
Cu601  O638    1.931   .     S
Cu601  O634    1.985   .     S
Cu601  Cu602   2.681   .     S
Cu601  O629    1.985   .     S
Cu602  O639    1.931   .     S
Cu602  N628    2.015   .     S
Cu602  O637    1.931   .     S
Cu602  O633    1.985   .     S
Cu602  O635    1.985   .     S
H608   C973    1.109   1_545 S
H611   C783    1.105   .     S
H617   C977    1.109   1_545 S
H624   C778    1.105   .     S
C641   C644    1.466   .     S
C641   O699    1.295   .     A
C641   O693    1.296   .     A
C642   C644    1.412   .     A
C642   O696    1.383   .     S
C643   C663    1.412   .     A
C643   C664    1.410   .     A
C643   C652    1.466   .     S
C644   C662    1.410   .     A
C645   N692    1.367   .     A
C645   H667    1.081   .     S
C645   C1032   1.416   1_545 S
C646   N691    1.367   .     A
C646   H678    1.081   .     S
C646   C839    1.416   .     S
C647   H684    1.081   .     S
C647   N692    1.367   .     A
C647   C1030   1.416   1_545 S
C648   N691    1.367   .     A
C648   H685    1.081   .     S
C648   C837    1.416   .     S
C649   O704    1.415   .     S
C649   C650    1.518   .     S
C649   H686    1.112   .     S
C649   H687    1.117   .     S
C650   H690    1.105   .     S
C650   H689    1.110   .     S
C650   H1072   1.105   1_545 S
C651   C653    1.521   .     S
C651   O694    1.415   .     S
C651   H668    1.115   .     S
C651   H669    1.114   .     S
C652   O698    1.296   .     A
C652   O697    1.295   .     A
C653   H670    1.111   .     S
C653   H671    1.108   .     S
C653   H864    1.109   .     S
C654   H674    1.117   .     S
C654   C655    1.518   .     S
C654   H673    1.112   .     S
C654   O695    1.415   .     S
C655   H676    1.110   .     S
C655   H677    1.105   .     S
C655   H1059   1.105   1_545 S
C656   O696    1.415   .     S
C656   H680    1.114   .     S
C656   H679    1.115   .     S
C656   C657    1.521   .     S
C657   H683    1.107   .     S
C657   H682    1.110   .     S
C657   H873    1.109   .     S
C658   O700    1.288   .     A
C658   C660    1.407   .     S
C658   O703    1.288   .     A
C659   C661    1.407   .     S
C659   O701    1.288   .     A
C659   O702    1.288   .     A
C661   C1236   1.190   .     S
C662   O704    1.383   .     S
C663   O694    1.383   .     S
C663   C706    1.393   .     S
C664   O695    1.383   .     S
C664   C726    1.394   .     S
Cu665  O700    1.931   .     S
Cu665  N691    2.015   .     S
Cu665  O702    1.931   .     S
Cu665  O698    1.985   .     S
Cu665  Cu666   2.681   .     S
Cu665  O693    1.985   .     S
Cu666  O703    1.931   .     S
Cu666  N692    2.015   .     S
Cu666  O701    1.931   .     S
Cu666  O697    1.985   .     S
Cu666  O699    1.985   .     S
H672   C1037   1.109   1_545 S
H675   C847    1.105   .     S
H681   C1041   1.109   1_545 S
H688   C842    1.105   .     S
C705   C708    1.466   .     S
C705   O763    1.295   .     A
C705   O757    1.296   .     A
C706   C708    1.412   .     A
C706   O760    1.383   .     S
C707   C727    1.412   .     A
C707   C728    1.410   .     A
C707   C716    1.466   .     S
C708   C726    1.410   .     A
C709   N756    1.367   .     A
C709   H731    1.081   .     S
C709   C1096   1.416   1_545 S
C710   N755    1.367   .     A
C710   H742    1.081   .     S
C710   C903    1.416   .     S
C711   H748    1.081   .     S
C711   N756    1.367   .     A
C711   C1094   1.416   1_545 S
C712   N755    1.367   .     A
C712   H749    1.081   .     S
C712   C901    1.416   .     S
C713   O768    1.415   .     S
C713   C714    1.518   .     S
C713   H750    1.112   .     S
C713   H751    1.117   .     S
C714   H754    1.105   .     S
C714   H753    1.110   .     S
C714   H1136   1.105   1_545 S
C715   C717    1.521   .     S
C715   O758    1.415   .     S
C715   H732    1.115   .     S
C715   H733    1.114   .     S
C716   O762    1.296   .     A
C716   O761    1.295   .     A
C717   H734    1.111   .     S
C717   H735    1.108   .     S
C717   H928    1.109   .     S
C718   H738    1.117   .     S
C718   C719    1.518   .     S
C718   H737    1.112   .     S
C718   O759    1.415   .     S
C719   H740    1.110   .     S
C719   H741    1.105   .     S
C719   H1123   1.105   1_545 S
C720   O760    1.415   .     S
C720   H744    1.114   .     S
C720   H743    1.115   .     S
C720   C721    1.521   .     S
C721   H747    1.107   .     S
C721   H746    1.110   .     S
C721   H937    1.109   .     S
C722   O764    1.288   .     A
C722   C724    1.407   .     S
C722   O767    1.288   .     A
C723   C725    1.407   .     S
C723   O765    1.288   .     A
C723   O766    1.288   .     A
C725   C1300   1.190   .     S
C726   O768    1.383   .     S
C727   O758    1.383   .     S
C727   C578    1.393   1_655 S
C728   O759    1.383   .     S
C728   C598    1.394   1_655 S
Cu729  O764    1.931   .     S
Cu729  N755    2.015   .     S
Cu729  O766    1.931   .     S
Cu729  O762    1.985   .     S
Cu729  Cu730   2.681   .     S
Cu729  O757    1.985   .     S
Cu730  O767    1.931   .     S
Cu730  N756    2.015   .     S
Cu730  O765    1.931   .     S
Cu730  O761    1.985   .     S
Cu730  O763    1.985   .     S
H736   C1101   1.109   1_545 S
H739   C911    1.105   .     S
H745   C1105   1.109   1_545 S
H752   C906    1.105   .     S
C769   C772    1.466   .     S
C769   O827    1.295   .     A
C769   O821    1.296   .     A
C770   C772    1.412   .     A
C770   O824    1.383   .     S
C770   C919    1.393   1_455 S
C771   C791    1.412   .     A
C771   C792    1.410   .     A
C771   C780    1.466   .     S
C772   C790    1.410   .     A
C773   N820    1.367   .     A
C773   H795    1.081   .     S
C774   N819    1.367   .     A
C774   H806    1.081   .     S
C774   C967    1.416   .     S
C775   H812    1.081   .     S
C775   N820    1.367   .     A
C776   N819    1.367   .     A
C776   H813    1.081   .     S
C776   C965    1.416   .     S
C777   O832    1.415   .     S
C777   C778    1.518   .     S
C777   H814    1.112   .     S
C777   H815    1.117   .     S
C778   H818    1.105   .     S
C778   H817    1.110   .     S
C779   C781    1.521   .     S
C779   O822    1.415   .     S
C779   H796    1.115   .     S
C779   H797    1.114   .     S
C780   O826    1.296   .     A
C780   O825    1.295   .     A
C781   H798    1.111   .     S
C781   H799    1.108   .     S
C781   H992    1.109   .     S
C782   H802    1.117   .     S
C782   C783    1.518   .     S
C782   H801    1.112   .     S
C782   O823    1.415   .     S
C783   H804    1.110   .     S
C783   H805    1.105   .     S
C784   O824    1.415   .     S
C784   H808    1.114   .     S
C784   H807    1.115   .     S
C784   C785    1.521   .     S
C785   H811    1.107   .     S
C785   H810    1.110   .     S
C785   H1001   1.109   .     S
C786   O828    1.288   .     A
C786   C788    1.407   .     S
C786   O831    1.288   .     A
C787   C789    1.407   .     S
C787   O829    1.288   .     A
C787   O830    1.288   .     A
C789   C1364   1.190   .     S
C790   O832    1.383   .     S
C790   C920    1.394   1_455 S
C791   O822    1.383   .     S
C791   C834    1.393   .     S
C792   O823    1.383   .     S
C792   C854    1.394   .     S
Cu793  O828    1.931   .     S
Cu793  N819    2.015   .     S
Cu793  O830    1.931   .     S
Cu793  O826    1.985   .     S
Cu793  Cu794   2.681   .     S
Cu793  O821    1.985   .     S
Cu794  O831    1.931   .     S
Cu794  N820    2.015   .     S
Cu794  O829    1.931   .     S
Cu794  O825    1.985   .     S
Cu794  O827    1.985   .     S
H803   C975    1.105   .     S
H816   C970    1.105   .     S
C833   C836    1.466   .     S
C833   O891    1.295   .     A
C833   O885    1.296   .     A
C834   C836    1.412   .     A
C834   O888    1.383   .     S
C835   C855    1.412   .     A
C835   C856    1.410   .     A
C835   C844    1.466   .     S
C836   C854    1.410   .     A
C837   N884    1.367   .     A
C837   H859    1.081   .     S
C838   N883    1.367   .     A
C838   H870    1.081   .     S
C838   C1031   1.416   .     S
C839   H876    1.081   .     S
C839   N884    1.367   .     A
C840   N883    1.367   .     A
C840   H877    1.081   .     S
C840   C1029   1.416   .     S
C841   O896    1.415   .     S
C841   C842    1.518   .     S
C841   H878    1.112   .     S
C841   H879    1.117   .     S
C842   H882    1.105   .     S
C842   H881    1.110   .     S
C843   C845    1.521   .     S
C843   O886    1.415   .     S
C843   H860    1.115   .     S
C843   H861    1.114   .     S
C844   O890    1.296   .     A
C844   O889    1.295   .     A
C845   H862    1.111   .     S
C845   H863    1.108   .     S
C845   H1056   1.109   .     S
C846   H866    1.117   .     S
C846   C847    1.518   .     S
C846   H865    1.112   .     S
C846   O887    1.415   .     S
C847   H868    1.110   .     S
C847   H869    1.105   .     S
C848   O888    1.415   .     S
C848   H872    1.114   .     S
C848   H871    1.115   .     S
C848   C849    1.521   .     S
C849   H875    1.107   .     S
C849   H874    1.110   .     S
C849   H1065   1.109   .     S
C850   O892    1.288   .     A
C850   C852    1.407   .     S
C850   O895    1.288   .     A
C851   C853    1.407   .     S
C851   O893    1.288   .     A
C851   O894    1.288   .     A
C853   C1428   1.190   .     S
C854   O896    1.383   .     S
C855   O886    1.383   .     S
C855   C898    1.393   .     S
C856   O887    1.383   .     S
C856   C918    1.394   .     S
Cu857  O892    1.931   .     S
Cu857  N883    2.015   .     S
Cu857  O894    1.931   .     S
Cu857  O890    1.985   .     S
Cu857  Cu858   2.681   .     S
Cu857  O885    1.985   .     S
Cu858  O895    1.931   .     S
Cu858  N884    2.015   .     S
Cu858  O893    1.931   .     S
Cu858  O889    1.985   .     S
Cu858  O891    1.985   .     S
H867   C1039   1.105   .     S
H880   C1034   1.105   .     S
C897   C900    1.466   .     S
C897   O955    1.295   .     A
C897   O949    1.296   .     A
C898   C900    1.412   .     A
C898   O952    1.383   .     S
C899   C919    1.412   .     A
C899   C920    1.410   .     A
C899   C908    1.466   .     S
C900   C918    1.410   .     A
C901   N948    1.367   .     A
C901   H923    1.081   .     S
C902   N947    1.367   .     A
C902   H934    1.081   .     S
C902   C1095   1.416   .     S
C903   H940    1.081   .     S
C903   N948    1.367   .     A
C904   N947    1.367   .     A
C904   H941    1.081   .     S
C904   C1093   1.416   .     S
C905   O960    1.415   .     S
C905   C906    1.518   .     S
C905   H942    1.112   .     S
C905   H943    1.117   .     S
C906   H946    1.105   .     S
C906   H945    1.110   .     S
C907   C909    1.521   .     S
C907   O950    1.415   .     S
C907   H924    1.115   .     S
C907   H925    1.114   .     S
C908   O954    1.296   .     A
C908   O953    1.295   .     A
C909   H926    1.111   .     S
C909   H927    1.108   .     S
C909   H1120   1.109   .     S
C910   H930    1.117   .     S
C910   C911    1.518   .     S
C910   H929    1.112   .     S
C910   O951    1.415   .     S
C911   H932    1.110   .     S
C911   H933    1.105   .     S
C912   O952    1.415   .     S
C912   H936    1.114   .     S
C912   H935    1.115   .     S
C912   C913    1.521   .     S
C913   H939    1.107   .     S
C913   H938    1.110   .     S
C913   H1129   1.109   .     S
C914   O956    1.288   .     A
C914   C916    1.407   .     S
C914   O959    1.288   .     A
C915   C917    1.407   .     S
C915   O957    1.288   .     A
C915   O958    1.288   .     A
C917   C1492   1.190   .     S
C918   O960    1.383   .     S
C919   O950    1.383   .     S
C919   C770    1.393   1_655 S
C920   O951    1.383   .     S
C920   C790    1.394   1_655 S
Cu921  O956    1.931   .     S
Cu921  N947    2.015   .     S
Cu921  O958    1.931   .     S
Cu921  O954    1.985   .     S
Cu921  Cu922   2.681   .     S
Cu921  O949    1.985   .     S
Cu922  O959    1.931   .     S
Cu922  N948    2.015   .     S
Cu922  O957    1.931   .     S
Cu922  O953    1.985   .     S
Cu922  O955    1.985   .     S
H931   C1103   1.105   .     S
H944   C1098   1.105   .     S
C961   C964    1.466   .     S
C961   O1019   1.295   .     A
C961   O1013   1.296   .     A
C962   C964    1.412   .     A
C962   O1016   1.383   .     S
C962   C1111   1.393   1_455 S
C963   C983    1.412   .     A
C963   C984    1.410   .     A
C963   C972    1.466   .     S
C964   C982    1.410   .     A
C965   N1012   1.367   .     A
C965   H987    1.081   .     S
C966   N1011   1.367   .     A
C966   H998    1.081   .     S
C966   C583    1.416   1_565 S
C967   H1004   1.081   .     S
C967   N1012   1.367   .     A
C968   N1011   1.367   .     A
C968   H1005   1.081   .     S
C968   C581    1.416   1_565 S
C969   O1024   1.415   .     S
C969   C970    1.518   .     S
C969   H1006   1.112   .     S
C969   H1007   1.117   .     S
C970   H1010   1.105   .     S
C970   H1009   1.110   .     S
C971   C973    1.521   .     S
C971   O1014   1.415   .     S
C971   H988    1.115   .     S
C971   H989    1.114   .     S
C972   O1018   1.296   .     A
C972   O1017   1.295   .     A
C973   H990    1.111   .     S
C973   H991    1.108   .     S
C973   H608    1.109   1_565 S
C974   H994    1.117   .     S
C974   C975    1.518   .     S
C974   H993    1.112   .     S
C974   O1015   1.415   .     S
C975   H996    1.110   .     S
C975   H997    1.105   .     S
C976   O1016   1.415   .     S
C976   H1000   1.114   .     S
C976   H999    1.115   .     S
C976   C977    1.521   .     S
C977   H1003   1.107   .     S
C977   H1002   1.110   .     S
C977   H617    1.109   1_565 S
C978   O1020   1.288   .     A
C978   C980    1.407   .     S
C978   O1023   1.288   .     A
C979   C981    1.407   .     S
C979   O1021   1.288   .     A
C979   O1022   1.288   .     A
C981   C1556   1.190   .     S
C982   O1024   1.383   .     S
C982   C1112   1.394   1_455 S
C983   O1014   1.383   .     S
C983   C1026   1.393   .     S
C984   O1015   1.383   .     S
C984   C1046   1.394   .     S
Cu985  O1020   1.931   .     S
Cu985  N1011   2.015   .     S
Cu985  O1022   1.931   .     S
Cu985  O1018   1.985   .     S
Cu985  Cu986   2.681   .     S
Cu985  O1013   1.985   .     S
Cu986  O1023   1.931   .     S
Cu986  N1012   2.015   .     S
Cu986  O1021   1.931   .     S
Cu986  O1017   1.985   .     S
Cu986  O1019   1.985   .     S
H995   C591    1.105   1_565 S
H1008  C586    1.105   1_565 S
C1025  C1028   1.466   .     S
C1025  O1083   1.295   .     A
C1025  O1077   1.296   .     A
C1026  C1028   1.412   .     A
C1026  O1080   1.383   .     S
C1027  C1047   1.412   .     A
C1027  C1048   1.410   .     A
C1027  C1036   1.466   .     S
C1028  C1046   1.410   .     A
C1029  N1076   1.367   .     A
C1029  H1051   1.081   .     S
C1030  N1075   1.367   .     A
C1030  H1062   1.081   .     S
C1030  C647    1.416   1_565 S
C1031  H1068   1.081   .     S
C1031  N1076   1.367   .     A
C1032  N1075   1.367   .     A
C1032  H1069   1.081   .     S
C1032  C645    1.416   1_565 S
C1033  O1088   1.415   .     S
C1033  C1034   1.518   .     S
C1033  H1070   1.112   .     S
C1033  H1071   1.117   .     S
C1034  H1074   1.105   .     S
C1034  H1073   1.110   .     S
C1035  C1037   1.521   .     S
C1035  O1078   1.415   .     S
C1035  H1052   1.115   .     S
C1035  H1053   1.114   .     S
C1036  O1082   1.296   .     A
C1036  O1081   1.295   .     A
C1037  H1054   1.111   .     S
C1037  H1055   1.108   .     S
C1037  H672    1.109   1_565 S
C1038  H1058   1.117   .     S
C1038  C1039   1.518   .     S
C1038  H1057   1.112   .     S
C1038  O1079   1.415   .     S
C1039  H1060   1.110   .     S
C1039  H1061   1.105   .     S
C1040  O1080   1.415   .     S
C1040  H1064   1.114   .     S
C1040  H1063   1.115   .     S
C1040  C1041   1.521   .     S
C1041  H1067   1.107   .     S
C1041  H1066   1.110   .     S
C1041  H681    1.109   1_565 S
C1042  O1084   1.288   .     A
C1042  C1044   1.407   .     S
C1042  O1087   1.288   .     A
C1043  C1045   1.407   .     S
C1043  O1085   1.288   .     A
C1043  O1086   1.288   .     A
C1045  C1620   1.190   .     S
C1046  O1088   1.383   .     S
C1047  O1078   1.383   .     S
C1047  C1090   1.393   .     S
C1048  O1079   1.383   .     S
C1048  C1110   1.394   .     S
Cu1049 O1084   1.931   .     S
Cu1049 N1075   2.015   .     S
Cu1049 O1086   1.931   .     S
Cu1049 O1082   1.985   .     S
Cu1049 Cu1050  2.681   .     S
Cu1049 O1077   1.985   .     S
Cu1050 O1087   1.931   .     S
Cu1050 N1076   2.015   .     S
Cu1050 O1085   1.931   .     S
Cu1050 O1081   1.985   .     S
Cu1050 O1083   1.985   .     S
H1059  C655    1.105   1_565 S
H1072  C650    1.105   1_565 S
C1089  C1092   1.466   .     S
C1089  O1147   1.295   .     A
C1089  O1141   1.296   .     A
C1090  C1092   1.412   .     A
C1090  O1144   1.383   .     S
C1091  C1111   1.412   .     A
C1091  C1112   1.410   .     A
C1091  C1100   1.466   .     S
C1092  C1110   1.410   .     A
C1093  N1140   1.367   .     A
C1093  H1115   1.081   .     S
C1094  N1139   1.367   .     A
C1094  H1126   1.081   .     S
C1094  C711    1.416   1_565 S
C1095  H1132   1.081   .     S
C1095  N1140   1.367   .     A
C1096  N1139   1.367   .     A
C1096  H1133   1.081   .     S
C1096  C709    1.416   1_565 S
C1097  O1152   1.415   .     S
C1097  C1098   1.518   .     S
C1097  H1134   1.112   .     S
C1097  H1135   1.117   .     S
C1098  H1138   1.105   .     S
C1098  H1137   1.110   .     S
C1099  C1101   1.521   .     S
C1099  O1142   1.415   .     S
C1099  H1116   1.115   .     S
C1099  H1117   1.114   .     S
C1100  O1146   1.296   .     A
C1100  O1145   1.295   .     A
C1101  H1118   1.111   .     S
C1101  H1119   1.108   .     S
C1101  H736    1.109   1_565 S
C1102  H1122   1.117   .     S
C1102  C1103   1.518   .     S
C1102  H1121   1.112   .     S
C1102  O1143   1.415   .     S
C1103  H1124   1.110   .     S
C1103  H1125   1.105   .     S
C1104  O1144   1.415   .     S
C1104  H1128   1.114   .     S
C1104  H1127   1.115   .     S
C1104  C1105   1.521   .     S
C1105  H1131   1.107   .     S
C1105  H1130   1.110   .     S
C1105  H745    1.109   1_565 S
C1106  O1148   1.288   .     A
C1106  C1108   1.407   .     S
C1106  O1151   1.288   .     A
C1107  C1109   1.407   .     S
C1107  O1149   1.288   .     A
C1107  O1150   1.288   .     A
C1109  C1684   1.190   .     S
C1110  O1152   1.383   .     S
C1111  O1142   1.383   .     S
C1111  C962    1.393   1_655 S
C1112  O1143   1.383   .     S
C1112  C982    1.394   1_655 S
Cu1113 O1148   1.931   .     S
Cu1113 N1139   2.015   .     S
Cu1113 O1150   1.931   .     S
Cu1113 O1146   1.985   .     S
Cu1113 Cu1114  2.681   .     S
Cu1113 O1141   1.985   .     S
Cu1114 O1151   1.931   .     S
Cu1114 N1140   2.015   .     S
Cu1114 O1149   1.931   .     S
Cu1114 O1145   1.985   .     S
Cu1114 O1147   1.985   .     S
H1123  C719    1.105   1_565 S
H1136  C714    1.105   1_565 S
C1153  C1156   1.466   .     S
C1153  O1211   1.295   .     A
C1153  O1205   1.296   .     A
C1154  C1156   1.412   .     A
C1154  O1208   1.383   .     S
C1154  C1303   1.393   1_455 S
C1155  C1175   1.412   .     A
C1155  C1176   1.410   .     A
C1155  C1164   1.466   .     S
C1156  C1174   1.410   .     A
C1157  N1204   1.367   .     A
C1157  H1179   1.081   .     S
C1157  C1544   1.416   1_545 S
C1158  N1203   1.367   .     A
C1158  H1190   1.081   .     S
C1158  C1351   1.416   .     S
C1159  H1196   1.081   .     S
C1159  N1204   1.367   .     A
C1159  C1542   1.416   1_545 S
C1160  N1203   1.367   .     A
C1160  H1197   1.081   .     S
C1160  C1349   1.416   .     S
C1161  O1216   1.415   .     S
C1161  C1162   1.518   .     S
C1161  H1198   1.112   .     S
C1161  H1199   1.117   .     S
C1162  H1202   1.105   .     S
C1162  H1201   1.110   .     S
C1162  H1584   1.105   1_545 S
C1163  C1165   1.521   .     S
C1163  O1206   1.415   .     S
C1163  H1180   1.115   .     S
C1163  H1181   1.114   .     S
C1164  O1210   1.296   .     A
C1164  O1209   1.295   .     A
C1165  H1182   1.111   .     S
C1165  H1183   1.108   .     S
C1165  H1376   1.109   .     S
C1166  H1186   1.117   .     S
C1166  C1167   1.518   .     S
C1166  H1185   1.112   .     S
C1166  O1207   1.415   .     S
C1167  H1188   1.110   .     S
C1167  H1189   1.105   .     S
C1167  H1571   1.105   1_545 S
C1168  O1208   1.415   .     S
C1168  H1192   1.114   .     S
C1168  H1191   1.115   .     S
C1168  C1169   1.521   .     S
C1169  H1195   1.107   .     S
C1169  H1194   1.110   .     S
C1169  H1385   1.109   .     S
C1170  O1212   1.288   .     A
C1170  C1172   1.407   .     S
C1170  O1215   1.288   .     A
C1171  C1173   1.407   .     S
C1171  O1213   1.288   .     A
C1171  O1214   1.288   .     A
C1173  C20     1.190   1_556 S
C1174  O1216   1.383   .     S
C1174  C1304   1.394   1_455 S
C1175  O1206   1.383   .     S
C1175  C1218   1.393   .     S
C1176  O1207   1.383   .     S
C1176  C1238   1.394   .     S
Cu1177 O1212   1.931   .     S
Cu1177 N1203   2.015   .     S
Cu1177 O1214   1.931   .     S
Cu1177 O1210   1.985   .     S
Cu1177 Cu1178  2.681   .     S
Cu1177 O1205   1.985   .     S
Cu1178 O1215   1.931   .     S
Cu1178 N1204   2.015   .     S
Cu1178 O1213   1.931   .     S
Cu1178 O1209   1.985   .     S
Cu1178 O1211   1.985   .     S
H1184  C1549   1.109   1_545 S
H1187  C1359   1.105   .     S
H1193  C1553   1.109   1_545 S
H1200  C1354   1.105   .     S
C1217  C1220   1.466   .     S
C1217  O1275   1.295   .     A
C1217  O1269   1.296   .     A
C1218  C1220   1.412   .     A
C1218  O1272   1.383   .     S
C1219  C1239   1.412   .     A
C1219  C1240   1.410   .     A
C1219  C1228   1.466   .     S
C1220  C1238   1.410   .     A
C1221  N1268   1.367   .     A
C1221  H1243   1.081   .     S
C1221  C1608   1.416   1_545 S
C1222  N1267   1.367   .     A
C1222  H1254   1.081   .     S
C1222  C1415   1.416   .     S
C1223  H1260   1.081   .     S
C1223  N1268   1.367   .     A
C1223  C1606   1.416   1_545 S
C1224  N1267   1.367   .     A
C1224  H1261   1.081   .     S
C1224  C1413   1.416   .     S
C1225  O1280   1.415   .     S
C1225  C1226   1.518   .     S
C1225  H1262   1.112   .     S
C1225  H1263   1.117   .     S
C1226  H1266   1.105   .     S
C1226  H1265   1.110   .     S
C1226  H1648   1.105   1_545 S
C1227  C1229   1.521   .     S
C1227  O1270   1.415   .     S
C1227  H1244   1.115   .     S
C1227  H1245   1.114   .     S
C1228  O1274   1.296   .     A
C1228  O1273   1.295   .     A
C1229  H1246   1.111   .     S
C1229  H1247   1.108   .     S
C1229  H1440   1.109   .     S
C1230  H1250   1.117   .     S
C1230  C1231   1.518   .     S
C1230  H1249   1.112   .     S
C1230  O1271   1.415   .     S
C1231  H1252   1.110   .     S
C1231  H1253   1.105   .     S
C1231  H1635   1.105   1_545 S
C1232  O1272   1.415   .     S
C1232  H1256   1.114   .     S
C1232  H1255   1.115   .     S
C1232  C1233   1.521   .     S
C1233  H1259   1.107   .     S
C1233  H1258   1.110   .     S
C1233  H1449   1.109   .     S
C1234  O1276   1.288   .     A
C1234  C1236   1.407   .     S
C1234  O1279   1.288   .     A
C1235  C1237   1.407   .     S
C1235  O1277   1.288   .     A
C1235  O1278   1.288   .     A
C1237  C84     1.190   1_556 S
C1238  O1280   1.383   .     S
C1239  O1270   1.383   .     S
C1239  C1282   1.393   .     S
C1240  O1271   1.383   .     S
C1240  C1302   1.394   .     S
Cu1241 O1276   1.931   .     S
Cu1241 N1267   2.015   .     S
Cu1241 O1278   1.931   .     S
Cu1241 O1274   1.985   .     S
Cu1241 Cu1242  2.681   .     S
Cu1241 O1269   1.985   .     S
Cu1242 O1279   1.931   .     S
Cu1242 N1268   2.015   .     S
Cu1242 O1277   1.931   .     S
Cu1242 O1273   1.985   .     S
Cu1242 O1275   1.985   .     S
H1248  C1613   1.109   1_545 S
H1251  C1423   1.105   .     S
H1257  C1617   1.109   1_545 S
H1264  C1418   1.105   .     S
C1281  C1284   1.466   .     S
C1281  O1339   1.295   .     A
C1281  O1333   1.296   .     A
C1282  C1284   1.412   .     A
C1282  O1336   1.383   .     S
C1283  C1303   1.412   .     A
C1283  C1304   1.410   .     A
C1283  C1292   1.466   .     S
C1284  C1302   1.410   .     A
C1285  N1332   1.367   .     A
C1285  H1307   1.081   .     S
C1285  C1672   1.416   1_545 S
C1286  N1331   1.367   .     A
C1286  H1318   1.081   .     S
C1286  C1479   1.416   .     S
C1287  H1324   1.081   .     S
C1287  N1332   1.367   .     A
C1287  C1670   1.416   1_545 S
C1288  N1331   1.367   .     A
C1288  H1325   1.081   .     S
C1288  C1477   1.416   .     S
C1289  O1344   1.415   .     S
C1289  C1290   1.518   .     S
C1289  H1326   1.112   .     S
C1289  H1327   1.117   .     S
C1290  H1330   1.105   .     S
C1290  H1329   1.110   .     S
C1290  H1712   1.105   1_545 S
C1291  C1293   1.521   .     S
C1291  O1334   1.415   .     S
C1291  H1308   1.115   .     S
C1291  H1309   1.114   .     S
C1292  O1338   1.296   .     A
C1292  O1337   1.295   .     A
C1293  H1310   1.111   .     S
C1293  H1311   1.108   .     S
C1293  H1504   1.109   .     S
C1294  H1314   1.117   .     S
C1294  C1295   1.518   .     S
C1294  H1313   1.112   .     S
C1294  O1335   1.415   .     S
C1295  H1316   1.110   .     S
C1295  H1317   1.105   .     S
C1295  H1699   1.105   1_545 S
C1296  O1336   1.415   .     S
C1296  H1320   1.114   .     S
C1296  H1319   1.115   .     S
C1296  C1297   1.521   .     S
C1297  H1323   1.107   .     S
C1297  H1322   1.110   .     S
C1297  H1513   1.109   .     S
C1298  O1340   1.288   .     A
C1298  C1300   1.407   .     S
C1298  O1343   1.288   .     A
C1299  C1301   1.407   .     S
C1299  O1341   1.288   .     A
C1299  O1342   1.288   .     A
C1301  C148    1.190   1_556 S
C1302  O1344   1.383   .     S
C1303  O1334   1.383   .     S
C1303  C1154   1.393   1_655 S
C1304  O1335   1.383   .     S
C1304  C1174   1.394   1_655 S
Cu1305 O1340   1.931   .     S
Cu1305 N1331   2.015   .     S
Cu1305 O1342   1.931   .     S
Cu1305 O1338   1.985   .     S
Cu1305 Cu1306  2.681   .     S
Cu1305 O1333   1.985   .     S
Cu1306 O1343   1.931   .     S
Cu1306 N1332   2.015   .     S
Cu1306 O1341   1.931   .     S
Cu1306 O1337   1.985   .     S
Cu1306 O1339   1.985   .     S
H1312  C1677   1.109   1_545 S
H1315  C1487   1.105   .     S
H1321  C1681   1.109   1_545 S
H1328  C1482   1.105   .     S
C1345  C1348   1.466   .     S
C1345  O1403   1.295   .     A
C1345  O1397   1.296   .     A
C1346  C1348   1.412   .     A
C1346  O1400   1.383   .     S
C1346  C1495   1.393   1_455 S
C1347  C1367   1.412   .     A
C1347  C1368   1.410   .     A
C1347  C1356   1.466   .     S
C1348  C1366   1.410   .     A
C1349  N1396   1.367   .     A
C1349  H1371   1.081   .     S
C1350  N1395   1.367   .     A
C1350  H1382   1.081   .     S
C1350  C1543   1.416   .     S
C1351  H1388   1.081   .     S
C1351  N1396   1.367   .     A
C1352  N1395   1.367   .     A
C1352  H1389   1.081   .     S
C1352  C1541   1.416   .     S
C1353  O1408   1.415   .     S
C1353  C1354   1.518   .     S
C1353  H1390   1.112   .     S
C1353  H1391   1.117   .     S
C1354  H1394   1.105   .     S
C1354  H1393   1.110   .     S
C1355  C1357   1.521   .     S
C1355  O1398   1.415   .     S
C1355  H1372   1.115   .     S
C1355  H1373   1.114   .     S
C1356  O1402   1.296   .     A
C1356  O1401   1.295   .     A
C1357  H1374   1.111   .     S
C1357  H1375   1.108   .     S
C1357  H1568   1.109   .     S
C1358  H1378   1.117   .     S
C1358  C1359   1.518   .     S
C1358  H1377   1.112   .     S
C1358  O1399   1.415   .     S
C1359  H1380   1.110   .     S
C1359  H1381   1.105   .     S
C1360  O1400   1.415   .     S
C1360  H1384   1.114   .     S
C1360  H1383   1.115   .     S
C1360  C1361   1.521   .     S
C1361  H1387   1.107   .     S
C1361  H1386   1.110   .     S
C1361  H1577   1.109   .     S
C1362  O1404   1.288   .     A
C1362  C1364   1.407   .     S
C1362  O1407   1.288   .     A
C1363  C1365   1.407   .     S
C1363  O1405   1.288   .     A
C1363  O1406   1.288   .     A
C1365  C212    1.190   1_556 S
C1366  O1408   1.383   .     S
C1366  C1496   1.394   1_455 S
C1367  O1398   1.383   .     S
C1367  C1410   1.393   .     S
C1368  O1399   1.383   .     S
C1368  C1430   1.394   .     S
Cu1369 O1404   1.931   .     S
Cu1369 N1395   2.015   .     S
Cu1369 O1406   1.931   .     S
Cu1369 O1402   1.985   .     S
Cu1369 Cu1370  2.681   .     S
Cu1369 O1397   1.985   .     S
Cu1370 O1407   1.931   .     S
Cu1370 N1396   2.015   .     S
Cu1370 O1405   1.931   .     S
Cu1370 O1401   1.985   .     S
Cu1370 O1403   1.985   .     S
H1379  C1551   1.105   .     S
H1392  C1546   1.105   .     S
C1409  C1412   1.466   .     S
C1409  O1467   1.295   .     A
C1409  O1461   1.296   .     A
C1410  C1412   1.412   .     A
C1410  O1464   1.383   .     S
C1411  C1431   1.412   .     A
C1411  C1432   1.410   .     A
C1411  C1420   1.466   .     S
C1412  C1430   1.410   .     A
C1413  N1460   1.367   .     A
C1413  H1435   1.081   .     S
C1414  N1459   1.367   .     A
C1414  H1446   1.081   .     S
C1414  C1607   1.416   .     S
C1415  H1452   1.081   .     S
C1415  N1460   1.367   .     A
C1416  N1459   1.367   .     A
C1416  H1453   1.081   .     S
C1416  C1605   1.416   .     S
C1417  O1472   1.415   .     S
C1417  C1418   1.518   .     S
C1417  H1454   1.112   .     S
C1417  H1455   1.117   .     S
C1418  H1458   1.105   .     S
C1418  H1457   1.110   .     S
C1419  C1421   1.521   .     S
C1419  O1462   1.415   .     S
C1419  H1436   1.115   .     S
C1419  H1437   1.114   .     S
C1420  O1466   1.296   .     A
C1420  O1465   1.295   .     A
C1421  H1438   1.111   .     S
C1421  H1439   1.108   .     S
C1421  H1632   1.109   .     S
C1422  H1442   1.117   .     S
C1422  C1423   1.518   .     S
C1422  H1441   1.112   .     S
C1422  O1463   1.415   .     S
C1423  H1444   1.110   .     S
C1423  H1445   1.105   .     S
C1424  O1464   1.415   .     S
C1424  H1448   1.114   .     S
C1424  H1447   1.115   .     S
C1424  C1425   1.521   .     S
C1425  H1451   1.107   .     S
C1425  H1450   1.110   .     S
C1425  H1641   1.109   .     S
C1426  O1468   1.288   .     A
C1426  C1428   1.407   .     S
C1426  O1471   1.288   .     A
C1427  C1429   1.407   .     S
C1427  O1469   1.288   .     A
C1427  O1470   1.288   .     A
C1429  C276    1.190   1_556 S
C1430  O1472   1.383   .     S
C1431  O1462   1.383   .     S
C1431  C1474   1.393   .     S
C1432  O1463   1.383   .     S
C1432  C1494   1.394   .     S
Cu1433 O1468   1.931   .     S
Cu1433 N1459   2.015   .     S
Cu1433 O1470   1.931   .     S
Cu1433 O1466   1.985   .     S
Cu1433 Cu1434  2.681   .     S
Cu1433 O1461   1.985   .     S
Cu1434 O1471   1.931   .     S
Cu1434 N1460   2.015   .     S
Cu1434 O1469   1.931   .     S
Cu1434 O1465   1.985   .     S
Cu1434 O1467   1.985   .     S
H1443  C1615   1.105   .     S
H1456  C1610   1.105   .     S
C1473  C1476   1.466   .     S
C1473  O1531   1.295   .     A
C1473  O1525   1.296   .     A
C1474  C1476   1.412   .     A
C1474  O1528   1.383   .     S
C1475  C1495   1.412   .     A
C1475  C1496   1.410   .     A
C1475  C1484   1.466   .     S
C1476  C1494   1.410   .     A
C1477  N1524   1.367   .     A
C1477  H1499   1.081   .     S
C1478  N1523   1.367   .     A
C1478  H1510   1.081   .     S
C1478  C1671   1.416   .     S
C1479  H1516   1.081   .     S
C1479  N1524   1.367   .     A
C1480  N1523   1.367   .     A
C1480  H1517   1.081   .     S
C1480  C1669   1.416   .     S
C1481  O1536   1.415   .     S
C1481  C1482   1.518   .     S
C1481  H1518   1.112   .     S
C1481  H1519   1.117   .     S
C1482  H1522   1.105   .     S
C1482  H1521   1.110   .     S
C1483  C1485   1.521   .     S
C1483  O1526   1.415   .     S
C1483  H1500   1.115   .     S
C1483  H1501   1.114   .     S
C1484  O1530   1.296   .     A
C1484  O1529   1.295   .     A
C1485  H1502   1.111   .     S
C1485  H1503   1.108   .     S
C1485  H1696   1.109   .     S
C1486  H1506   1.117   .     S
C1486  C1487   1.518   .     S
C1486  H1505   1.112   .     S
C1486  O1527   1.415   .     S
C1487  H1508   1.110   .     S
C1487  H1509   1.105   .     S
C1488  O1528   1.415   .     S
C1488  H1512   1.114   .     S
C1488  H1511   1.115   .     S
C1488  C1489   1.521   .     S
C1489  H1515   1.107   .     S
C1489  H1514   1.110   .     S
C1489  H1705   1.109   .     S
C1490  O1532   1.288   .     A
C1490  C1492   1.407   .     S
C1490  O1535   1.288   .     A
C1491  C1493   1.407   .     S
C1491  O1533   1.288   .     A
C1491  O1534   1.288   .     A
C1493  C340    1.190   1_556 S
C1494  O1536   1.383   .     S
C1495  O1526   1.383   .     S
C1495  C1346   1.393   1_655 S
C1496  O1527   1.383   .     S
C1496  C1366   1.394   1_655 S
Cu1497 O1532   1.931   .     S
Cu1497 N1523   2.015   .     S
Cu1497 O1534   1.931   .     S
Cu1497 O1530   1.985   .     S
Cu1497 Cu1498  2.681   .     S
Cu1497 O1525   1.985   .     S
Cu1498 O1535   1.931   .     S
Cu1498 N1524   2.015   .     S
Cu1498 O1533   1.931   .     S
Cu1498 O1529   1.985   .     S
Cu1498 O1531   1.985   .     S
H1507  C1679   1.105   .     S
H1520  C1674   1.105   .     S
C1537  C1540   1.466   .     S
C1537  O1595   1.295   .     A
C1537  O1589   1.296   .     A
C1538  C1540   1.412   .     A
C1538  O1592   1.383   .     S
C1538  C1687   1.393   1_455 S
C1539  C1559   1.412   .     A
C1539  C1560   1.410   .     A
C1539  C1548   1.466   .     S
C1540  C1558   1.410   .     A
C1541  N1588   1.367   .     A
C1541  H1563   1.081   .     S
C1542  N1587   1.367   .     A
C1542  H1574   1.081   .     S
C1542  C1159   1.416   1_565 S
C1543  H1580   1.081   .     S
C1543  N1588   1.367   .     A
C1544  N1587   1.367   .     A
C1544  H1581   1.081   .     S
C1544  C1157   1.416   1_565 S
C1545  O1600   1.415   .     S
C1545  C1546   1.518   .     S
C1545  H1582   1.112   .     S
C1545  H1583   1.117   .     S
C1546  H1586   1.105   .     S
C1546  H1585   1.110   .     S
C1547  C1549   1.521   .     S
C1547  O1590   1.415   .     S
C1547  H1564   1.115   .     S
C1547  H1565   1.114   .     S
C1548  O1594   1.296   .     A
C1548  O1593   1.295   .     A
C1549  H1566   1.111   .     S
C1549  H1567   1.108   .     S
C1549  H1184   1.109   1_565 S
C1550  H1570   1.117   .     S
C1550  C1551   1.518   .     S
C1550  H1569   1.112   .     S
C1550  O1591   1.415   .     S
C1551  H1572   1.110   .     S
C1551  H1573   1.105   .     S
C1552  O1592   1.415   .     S
C1552  H1576   1.114   .     S
C1552  H1575   1.115   .     S
C1552  C1553   1.521   .     S
C1553  H1579   1.107   .     S
C1553  H1578   1.110   .     S
C1553  H1193   1.109   1_565 S
C1554  O1596   1.288   .     A
C1554  C1556   1.407   .     S
C1554  O1599   1.288   .     A
C1555  C1557   1.407   .     S
C1555  O1597   1.288   .     A
C1555  O1598   1.288   .     A
C1557  C404    1.190   1_556 S
C1558  O1600   1.383   .     S
C1558  C1688   1.394   1_455 S
C1559  O1590   1.383   .     S
C1559  C1602   1.393   .     S
C1560  O1591   1.383   .     S
C1560  C1622   1.394   .     S
Cu1561 O1596   1.931   .     S
Cu1561 N1587   2.015   .     S
Cu1561 O1598   1.931   .     S
Cu1561 O1594   1.985   .     S
Cu1561 Cu1562  2.681   .     S
Cu1561 O1589   1.985   .     S
Cu1562 O1599   1.931   .     S
Cu1562 N1588   2.015   .     S
Cu1562 O1597   1.931   .     S
Cu1562 O1593   1.985   .     S
Cu1562 O1595   1.985   .     S
H1571  C1167   1.105   1_565 S
H1584  C1162   1.105   1_565 S
C1601  C1604   1.466   .     S
C1601  O1659   1.295   .     A
C1601  O1653   1.296   .     A
C1602  C1604   1.412   .     A
C1602  O1656   1.383   .     S
C1603  C1623   1.412   .     A
C1603  C1624   1.410   .     A
C1603  C1612   1.466   .     S
C1604  C1622   1.410   .     A
C1605  N1652   1.367   .     A
C1605  H1627   1.081   .     S
C1606  N1651   1.367   .     A
C1606  H1638   1.081   .     S
C1606  C1223   1.416   1_565 S
C1607  H1644   1.081   .     S
C1607  N1652   1.367   .     A
C1608  N1651   1.367   .     A
C1608  H1645   1.081   .     S
C1608  C1221   1.416   1_565 S
C1609  O1664   1.415   .     S
C1609  C1610   1.518   .     S
C1609  H1646   1.112   .     S
C1609  H1647   1.117   .     S
C1610  H1650   1.105   .     S
C1610  H1649   1.110   .     S
C1611  C1613   1.521   .     S
C1611  O1654   1.415   .     S
C1611  H1628   1.115   .     S
C1611  H1629   1.114   .     S
C1612  O1658   1.296   .     A
C1612  O1657   1.295   .     A
C1613  H1630   1.111   .     S
C1613  H1631   1.108   .     S
C1613  H1248   1.109   1_565 S
C1614  H1634   1.117   .     S
C1614  C1615   1.518   .     S
C1614  H1633   1.112   .     S
C1614  O1655   1.415   .     S
C1615  H1636   1.110   .     S
C1615  H1637   1.105   .     S
C1616  O1656   1.415   .     S
C1616  H1640   1.114   .     S
C1616  H1639   1.115   .     S
C1616  C1617   1.521   .     S
C1617  H1643   1.107   .     S
C1617  H1642   1.110   .     S
C1617  H1257   1.109   1_565 S
C1618  O1660   1.288   .     A
C1618  C1620   1.407   .     S
C1618  O1663   1.288   .     A
C1619  C1621   1.407   .     S
C1619  O1661   1.288   .     A
C1619  O1662   1.288   .     A
C1621  C468    1.190   1_556 S
C1622  O1664   1.383   .     S
C1623  O1654   1.383   .     S
C1623  C1666   1.393   .     S
C1624  O1655   1.383   .     S
C1624  C1686   1.394   .     S
Cu1625 O1660   1.931   .     S
Cu1625 N1651   2.015   .     S
Cu1625 O1662   1.931   .     S
Cu1625 O1658   1.985   .     S
Cu1625 Cu1626  2.681   .     S
Cu1625 O1653   1.985   .     S
Cu1626 O1663   1.931   .     S
Cu1626 N1652   2.015   .     S
Cu1626 O1661   1.931   .     S
Cu1626 O1657   1.985   .     S
Cu1626 O1659   1.985   .     S
H1635  C1231   1.105   1_565 S
H1648  C1226   1.105   1_565 S
C1665  C1668   1.466   .     S
C1665  O1723   1.295   .     A
C1665  O1717   1.296   .     A
C1666  C1668   1.412   .     A
C1666  O1720   1.383   .     S
C1667  C1687   1.412   .     A
C1667  C1688   1.410   .     A
C1667  C1676   1.466   .     S
C1668  C1686   1.410   .     A
C1669  N1716   1.367   .     A
C1669  H1691   1.081   .     S
C1670  N1715   1.367   .     A
C1670  H1702   1.081   .     S
C1670  C1287   1.416   1_565 S
C1671  H1708   1.081   .     S
C1671  N1716   1.367   .     A
C1672  N1715   1.367   .     A
C1672  H1709   1.081   .     S
C1672  C1285   1.416   1_565 S
C1673  O1728   1.415   .     S
C1673  C1674   1.518   .     S
C1673  H1710   1.112   .     S
C1673  H1711   1.117   .     S
C1674  H1714   1.105   .     S
C1674  H1713   1.110   .     S
C1675  C1677   1.521   .     S
C1675  O1718   1.415   .     S
C1675  H1692   1.115   .     S
C1675  H1693   1.114   .     S
C1676  O1722   1.296   .     A
C1676  O1721   1.295   .     A
C1677  H1694   1.111   .     S
C1677  H1695   1.108   .     S
C1677  H1312   1.109   1_565 S
C1678  H1698   1.117   .     S
C1678  C1679   1.518   .     S
C1678  H1697   1.112   .     S
C1678  O1719   1.415   .     S
C1679  H1700   1.110   .     S
C1679  H1701   1.105   .     S
C1680  O1720   1.415   .     S
C1680  H1704   1.114   .     S
C1680  H1703   1.115   .     S
C1680  C1681   1.521   .     S
C1681  H1707   1.107   .     S
C1681  H1706   1.110   .     S
C1681  H1321   1.109   1_565 S
C1682  O1724   1.288   .     A
C1682  C1684   1.407   .     S
C1682  O1727   1.288   .     A
C1683  C1685   1.407   .     S
C1683  O1725   1.288   .     A
C1683  O1726   1.288   .     A
C1685  C532    1.190   1_556 S
C1686  O1728   1.383   .     S
C1687  O1718   1.383   .     S
C1687  C1538   1.393   1_655 S
C1688  O1719   1.383   .     S
C1688  C1558   1.394   1_655 S
Cu1689 O1724   1.931   .     S
Cu1689 N1715   2.015   .     S
Cu1689 O1726   1.931   .     S
Cu1689 O1722   1.985   .     S
Cu1689 Cu1690  2.681   .     S
Cu1689 O1717   1.985   .     S
Cu1690 O1727   1.931   .     S
Cu1690 N1716   2.015   .     S
Cu1690 O1725   1.931   .     S
Cu1690 O1721   1.985   .     S
Cu1690 O1723   1.985   .     S
H1699  C1295   1.105   1_565 S
H1712  C1290   1.105   1_565 S
