data_str_m1_o1_o2_pcu_sym.88
_audit_creation_date              2020-01-03
_audit_creation_method            'Materials Studio'
_symmetry_space_group_name_H-M    'P1'
_symmetry_Int_Tables_number       1
_symmetry_cell_setting            triclinic
loop_
_symmetry_equiv_pos_as_xyz
  x,y,z
_cell_length_a                    36.6079
_cell_length_b                    36.6079
_cell_length_c                    34.5755
_cell_angle_alpha                 90.0303
_cell_angle_beta                  90.0302
_cell_angle_gamma                 90.0028
loop_
_atom_site_label
_atom_site_type_symbol
_atom_site_fract_x
_atom_site_fract_y
_atom_site_fract_z
_atom_site_U_iso_or_equiv
_atom_site_adp_type
_atom_site_occupancy
C1     C     0.21905   0.48876   0.04106   0.00000  Uiso   1.00
C2     C     0.02950   0.23506   0.45863   0.00000  Uiso   1.00
C3     C     0.34804   0.40196   0.75000   0.00000  Uiso   1.00
C4     C     0.40222   0.15164   0.25016   0.00000  Uiso   1.00
C5     C     0.09802   0.34805   0.75000   0.00000  Uiso   1.00
C6     C     0.34810   0.40190   0.25000   0.00000  Uiso   1.00
C7     C     0.15196   0.09804   0.75000   0.00000  Uiso   1.00
C8     C     0.09810   0.15190   0.75000   0.00000  Uiso   1.00
C9     C     0.40196   0.34804   0.25000   0.00000  Uiso   1.00
C10    C     0.15191   0.40188   0.75000   0.00000  Uiso   1.00
C11    C     0.34780   0.09834   0.24982   0.00000  Uiso   1.00
C12    C     0.40190   0.34810   0.75000   0.00000  Uiso   1.00
C13    C     0.26581   0.47106   0.54146   0.00000  Uiso   1.00
C14    C     0.09804   0.15196   0.25000   0.00000  Uiso   1.00
C15    C     0.34812   0.09809   0.75000   0.00000  Uiso   1.00
C16    C     0.15167   0.40220   0.25018   0.00000  Uiso   1.00
C17    C     0.24998   0.00021   0.10207   0.00000  Uiso   1.00
C18    C     0.25003   0.00011   0.89768   0.00000  Uiso   1.00
C19    C     0.49997   0.24998   0.10224   0.00000  Uiso   1.00
C20    C     0.49998   0.25001   0.89786   0.00000  Uiso   1.00
C21    C     0.49999   0.25002   0.60215   0.00000  Uiso   1.00
C22    C     0.00002   0.25003   0.39776   0.00000  Uiso   1.00
C23    C     0.24988   0.49997   0.60232   0.00000  Uiso   1.00
C24    C     0.26121   0.03096   0.45894   0.00000  Uiso   1.00
C25    C     0.24979   0.00002   0.39793   0.00000  Uiso   1.00
C26    C     0.17789   0.39018   0.16548   0.00000  Uiso   1.00
C27    C     0.32355   0.10823   0.83542   0.00000  Uiso   1.00
C28    C     0.10863   0.18145   0.16819   0.00000  Uiso   1.00
C29    C     0.39160   0.32339   0.83533   0.00000  Uiso   1.00
C30    C     0.31849   0.10885   0.16806   0.00000  Uiso   1.00
C31    C     0.17658   0.39181   0.83540   0.00000  Uiso   1.00
C32    C     0.39156   0.31882   0.16799   0.00000  Uiso   1.00
C33    C     0.10848   0.17668   0.83533   0.00000  Uiso   1.00
C34    C     0.18086   0.10832   0.83217   0.00000  Uiso   1.00
C35    C     0.03029   0.26325   0.54126   0.00000  Uiso   1.00
C36    C     0.32287   0.39097   0.16491   0.00000  Uiso   1.00
C37    C     0.10824   0.31935   0.83226   0.00000  Uiso   1.00
C38    C     0.39086   0.17750   0.16517   0.00000  Uiso   1.00
C39    C     0.31923   0.39176   0.83218   0.00000  Uiso   1.00
C40    C     0.17741   0.10930   0.16510   0.00000  Uiso   1.00
C41    C     0.39181   0.18076   0.83224   0.00000  Uiso   1.00
C42    C     0.10897   0.31810   0.16838   0.00000  Uiso   1.00
C43    C     0.43065   0.14177   0.66774   0.00000  Uiso   1.00
C44    C     0.07241   0.35925   0.33478   0.00000  Uiso   1.00
C45    C     0.35825   0.43077   0.66782   0.00000  Uiso   1.00
C46    C     0.47053   0.26500   0.45861   0.00000  Uiso   1.00
C47    C     0.14067   0.07258   0.33489   0.00000  Uiso   1.00
C48    C     0.06924   0.35819   0.66776   0.00000  Uiso   1.00
C49    C     0.43186   0.14105   0.33165   0.00000  Uiso   1.00
C50    C     0.14168   0.06915   0.66782   0.00000  Uiso   1.00
C51    C     0.35903   0.42713   0.33508   0.00000  Uiso   1.00
C52    C     0.43118   0.35844   0.33201   0.00000  Uiso   1.00
C53    C     0.07332   0.14152   0.66466   0.00000  Uiso   1.00
C54    C     0.35977   0.07216   0.33455   0.00000  Uiso   1.00
C55    C     0.14176   0.42646   0.66458   0.00000  Uiso   1.00
C56    C     0.06855   0.14139   0.33181   0.00000  Uiso   1.00
C57    C     0.23361   0.02883   0.54155   0.00000  Uiso   1.00
C58    C     0.42660   0.35839   0.66466   0.00000  Uiso   1.00
C59    C     0.14117   0.43157   0.33190   0.00000  Uiso   1.00
C60    C     0.35819   0.07342   0.66460   0.00000  Uiso   1.00
C61    C     0.15931   0.00121   0.09756   0.00000  Uiso   1.00
C62    C     0.34001   0.48634   0.90238   0.00000  Uiso   1.00
C63    C     0.01030   0.15964   0.09765   0.00000  Uiso   1.00
C64    C     0.00437   0.34071   0.90235   0.00000  Uiso   1.00
C65    C     0.34071   0.49973   0.09773   0.00000  Uiso   1.00
C66    C     0.16006   0.01394   0.90229   0.00000  Uiso   1.00
C67    C     0.48949   0.34035   0.09771   0.00000  Uiso   1.00
C68    C     0.23808   0.46905   0.45881   0.00000  Uiso   1.00
C69    C     0.49555   0.15931   0.90224   0.00000  Uiso   1.00
C70    C     0.40930   0.24547   0.59765   0.00000  Uiso   1.00
C71    C     0.09038   0.23984   0.40235   0.00000  Uiso   1.00
C72    C     0.26369   0.41000   0.59762   0.00000  Uiso   1.00
C73    C     0.24872   0.09068   0.40243   0.00000  Uiso   1.00
C74    C     0.09068   0.25461   0.59776   0.00000  Uiso   1.00
C75    C     0.40964   0.26035   0.40229   0.00000  Uiso   1.00
C76    C     0.23602   0.08994   0.59771   0.00000  Uiso   1.00
C77    C     0.25033   0.40929   0.40227   0.00000  Uiso   1.00
C78    C     0.21840   0.48928   0.08146   0.00000  Uiso   1.00
C79    C     0.27962   0.48459   0.91812   0.00000  Uiso   1.00
C80    C     0.01449   0.21987   0.08179   0.00000  Uiso   1.00
C81    C     0.27895   0.48420   0.95854   0.00000  Uiso   1.00
C82    C     0.01263   0.28096   0.91839   0.00000  Uiso   1.00
C83    C     0.28155   0.01131   0.08159   0.00000  Uiso   1.00
C84    C     0.22046   0.01577   0.91804   0.00000  Uiso   1.00
C85    C     0.48543   0.28009   0.08181   0.00000  Uiso   1.00
C86    C     0.48731   0.21906   0.91833   0.00000  Uiso   1.00
C87    C     0.46906   0.23732   0.58162   0.00000  Uiso   1.00
C88    C     0.03016   0.23555   0.41822   0.00000  Uiso   1.00
C89    C     0.26542   0.47039   0.58188   0.00000  Uiso   1.00
C90    C     0.26069   0.03161   0.41854   0.00000  Uiso   1.00
C91    C     0.03092   0.26274   0.58167   0.00000  Uiso   1.00
C92    C     0.01498   0.22053   0.04137   0.00000  Uiso   1.00
C93    C     0.46988   0.26452   0.41819   0.00000  Uiso   1.00
C94    C     0.23422   0.02953   0.58196   0.00000  Uiso   1.00
C95    C     0.23871   0.46845   0.41841   0.00000  Uiso   1.00
C96    C     0.25002   0.00034   0.02097   0.00000  Uiso   1.00
C97    C     0.25006   0.00032   0.97866   0.00000  Uiso   1.00
C98    C     0.49997   0.24999   0.02123   0.00000  Uiso   1.00
C99    C     0.49997   0.25000   0.97892   0.00000  Uiso   1.00
C100   C    -0.00000   0.25002   0.52108   0.00000  Uiso   1.00
C101   C     0.00001   0.25003   0.47877   0.00000  Uiso   1.00
C102   C     0.24967   0.49994   0.52134   0.00000  Uiso   1.00
C103   C     0.01314   0.28033   0.95880   0.00000  Uiso   1.00
C104   C     0.24965   0.49998   0.47903   0.00000  Uiso   1.00
C105   C     0.24995   0.00001   0.35532   0.00000  Uiso   1.00
C106   C     0.24999   0.49999   0.64477   0.00000  Uiso   1.00
C107   C     0.00001   0.25001   0.35526   0.00000  Uiso   1.00
C108   C     0.49999   0.25001   0.64471   0.00000  Uiso   1.00
C109   C     0.49999   0.25001   0.85529   0.00000  Uiso   1.00
C110   C     0.49999   0.24999   0.14474   0.00000  Uiso   1.00
C111   C     0.25001   0.00001   0.85523   0.00000  Uiso   1.00
C112   C     0.24999   0.00005   0.14468   0.00000  Uiso   1.00
C113   C     0.17997   0.07003   0.25000   0.00000  Uiso   1.00
C114   C     0.28094   0.01193   0.04119   0.00000  Uiso   1.00
C115   C     0.32001   0.42999   0.75000   0.00000  Uiso   1.00
C116   C     0.43009   0.17988   0.25010   0.00000  Uiso   1.00
C117   C     0.07000   0.32001   0.75000   0.00000  Uiso   1.00
C118   C     0.32002   0.42998   0.25000   0.00000  Uiso   1.00
C119   C     0.17999   0.07001   0.75000   0.00000  Uiso   1.00
C120   C     0.07012   0.31991   0.24990   0.00000  Uiso   1.00
C121   C     0.42999   0.18000   0.75000   0.00000  Uiso   1.00
C122   C     0.17998   0.42997   0.75000   0.00000  Uiso   1.00
C123   C     0.31991   0.07012   0.24989   0.00000  Uiso   1.00
C124   C     0.42997   0.32003   0.75000   0.00000  Uiso   1.00
C125   C     0.22116   0.01637   0.95845   0.00000  Uiso   1.00
C126   C     0.07001   0.17999   0.25000   0.00000  Uiso   1.00
C127   C     0.32003   0.07002   0.75000   0.00000  Uiso   1.00
C128   C     0.17988   0.43009   0.25011   0.00000  Uiso   1.00
C129   C     0.07002   0.17998   0.75000   0.00000  Uiso   1.00
C130   C     0.42999   0.32001   0.25000   0.00000  Uiso   1.00
C131   C     0.13655   0.39050   0.21475   0.00000  Uiso   1.00
C132   C     0.36400   0.10913   0.78527   0.00000  Uiso   1.00
C133   C     0.10973   0.13670   0.21460   0.00000  Uiso   1.00
C134   C     0.39086   0.36394   0.78528   0.00000  Uiso   1.00
C135   C     0.36324   0.10991   0.21451   0.00000  Uiso   1.00
C136   C     0.48495   0.27945   0.04140   0.00000  Uiso   1.00
C137   C     0.13606   0.39089   0.78527   0.00000  Uiso   1.00
C138   C     0.39038   0.36341   0.21462   0.00000  Uiso   1.00
C139   C     0.10918   0.13610   0.78528   0.00000  Uiso   1.00
C140   C     0.13646   0.10949   0.78536   0.00000  Uiso   1.00
C141   C     0.36374   0.39066   0.21470   0.00000  Uiso   1.00
C142   C     0.10945   0.36361   0.78536   0.00000  Uiso   1.00
C143   C     0.39062   0.13643   0.21473   0.00000  Uiso   1.00
C144   C     0.36358   0.39054   0.78536   0.00000  Uiso   1.00
C145   C     0.13637   0.10945   0.21468   0.00000  Uiso   1.00
C146   C     0.39057   0.13644   0.78536   0.00000  Uiso   1.00
C147   C     0.48680   0.21969   0.95874   0.00000  Uiso   1.00
C148   C     0.11000   0.36316   0.21453   0.00000  Uiso   1.00
C149   C     0.38639   0.14055   0.71464   0.00000  Uiso   1.00
C150   C     0.11354   0.35941   0.28527   0.00000  Uiso   1.00
C151   C     0.35946   0.38642   0.71464   0.00000  Uiso   1.00
C152   C     0.14055   0.11363   0.28532   0.00000  Uiso   1.00
C153   C     0.11356   0.35943   0.71464   0.00000  Uiso   1.00
C154   C     0.38682   0.14002   0.28547   0.00000  Uiso   1.00
C155   C     0.14051   0.11354   0.71464   0.00000  Uiso   1.00
C156   C     0.35934   0.38626   0.28530   0.00000  Uiso   1.00
C157   C     0.38659   0.35962   0.28538   0.00000  Uiso   1.00
C158   C     0.46970   0.23681   0.54121   0.00000  Uiso   1.00
C159   C     0.11391   0.14083   0.71472   0.00000  Uiso   1.00
C160   C     0.35948   0.11347   0.28525   0.00000  Uiso   1.00
C161   C     0.14087   0.38600   0.71473   0.00000  Uiso   1.00
C162   C     0.11330   0.14027   0.28540   0.00000  Uiso   1.00
C163   C     0.38606   0.35914   0.71472   0.00000  Uiso   1.00
C164   C     0.14007   0.38678   0.28549   0.00000  Uiso   1.00
C165   C     0.35911   0.11394   0.71473   0.00000  Uiso   1.00
C166   C     0.09836   0.34778   0.24984   0.00000  Uiso   1.00
C167   C     0.40195   0.15198   0.75000   0.00000  Uiso   1.00
C168   C     0.15190   0.09810   0.25000   0.00000  Uiso   1.00
H169   H     0.19545   0.47880   0.02533   0.00000  Uiso   1.00
H170   H     0.05180   0.22247   0.47435   0.00000  Uiso   1.00
H171   H     0.11399   0.42040   0.65346   0.00000  Uiso   1.00
H172   H     0.04632   0.15999   0.32246   0.00000  Uiso   1.00
H173   H     0.06776   0.14020   0.36386   0.00000  Uiso   1.00
H174   H     0.06286   0.11330   0.32085   0.00000  Uiso   1.00
H175   H     0.43577   0.34188   0.63956   0.00000  Uiso   1.00
H176   H     0.44962   0.35924   0.68567   0.00000  Uiso   1.00
H177   H     0.42060   0.38630   0.65393   0.00000  Uiso   1.00
H178   H     0.15955   0.45381   0.32210   0.00000  Uiso   1.00
H179   H     0.14041   0.43261   0.36396   0.00000  Uiso   1.00
H180   H     0.11290   0.43703   0.32132   0.00000  Uiso   1.00
H181   H     0.27926   0.44927   0.52573   0.00000  Uiso   1.00
H182   H     0.35931   0.05045   0.68565   0.00000  Uiso   1.00
H183   H     0.38598   0.07944   0.65354   0.00000  Uiso   1.00
H184   H     0.34145   0.06412   0.63971   0.00000  Uiso   1.00
H185   H     0.16769   0.02889   0.10763   0.00000  Uiso   1.00
H186   H     0.13655   0.49204   0.11638   0.00000  Uiso   1.00
H187   H     0.14873   0.00252   0.06746   0.00000  Uiso   1.00
H188   H     0.33659   0.01538   0.89342   0.00000  Uiso   1.00
H189   H     0.36076   0.47396   0.88303   0.00000  Uiso   1.00
H190   H     0.35074   0.48479   0.93241   0.00000  Uiso   1.00
H191   H     0.48150   0.16426   0.10686   0.00000  Uiso   1.00
H192   H     0.27115   0.05456   0.47467   0.00000  Uiso   1.00
H193   H     0.02196   0.13837   0.11689   0.00000  Uiso   1.00
H194   H     0.01118   0.14887   0.06760   0.00000  Uiso   1.00
H195   H     0.47610   0.33409   0.89266   0.00000  Uiso   1.00
H196   H     0.01476   0.36278   0.88333   0.00000  Uiso   1.00
H197   H     0.00408   0.35145   0.93242   0.00000  Uiso   1.00
H198   H     0.33252   0.47192   0.10752   0.00000  Uiso   1.00
H199   H     0.36336   0.00893   0.11670   0.00000  Uiso   1.00
H200   H     0.35138   0.49870   0.06765   0.00000  Uiso   1.00
H201   H     0.16347   0.48486   0.89346   0.00000  Uiso   1.00
H202   H     0.13929   0.02623   0.88287   0.00000  Uiso   1.00
H203   H     0.05330   0.27450   0.52558   0.00000  Uiso   1.00
H204   H     0.14934   0.01565   0.93231   0.00000  Uiso   1.00
H205   H     0.01833   0.33580   0.10686   0.00000  Uiso   1.00
H206   H     0.47783   0.36158   0.11699   0.00000  Uiso   1.00
H207   H     0.48850   0.35112   0.06767   0.00000  Uiso   1.00
H208   H     0.02383   0.16592   0.89262   0.00000  Uiso   1.00
H209   H     0.48516   0.13725   0.88316   0.00000  Uiso   1.00
H210   H     0.49580   0.14856   0.93230   0.00000  Uiso   1.00
H211   H     0.41586   0.27376   0.60733   0.00000  Uiso   1.00
H212   H     0.38724   0.23505   0.61667   0.00000  Uiso   1.00
H213   H     0.39856   0.24573   0.56758   0.00000  Uiso   1.00
H214   H     0.44823   0.27760   0.47431   0.00000  Uiso   1.00
H215   H     0.08571   0.26863   0.39312   0.00000  Uiso   1.00
H216   H     0.11166   0.22822   0.38312   0.00000  Uiso   1.00
H217   H     0.10115   0.23900   0.43240   0.00000  Uiso   1.00
H218   H     0.23465   0.41340   0.60658   0.00000  Uiso   1.00
H219   H     0.27609   0.38925   0.61697   0.00000  Uiso   1.00
H220   H     0.26526   0.39926   0.56759   0.00000  Uiso   1.00
H221   H     0.22105   0.08229   0.39236   0.00000  Uiso   1.00
H222   H     0.25786   0.11345   0.38363   0.00000  Uiso   1.00
H223   H     0.24738   0.10127   0.43254   0.00000  Uiso   1.00
H224   H     0.08413   0.22630   0.60736   0.00000  Uiso   1.00
H225   H     0.22010   0.05062   0.52589   0.00000  Uiso   1.00
H226   H     0.11273   0.26502   0.61684   0.00000  Uiso   1.00
H227   H     0.10144   0.25438   0.56770   0.00000  Uiso   1.00
H228   H     0.41424   0.23152   0.39312   0.00000  Uiso   1.00
H229   H     0.38838   0.27198   0.38301   0.00000  Uiso   1.00
H230   H     0.39886   0.26129   0.43232   0.00000  Uiso   1.00
H231   H     0.26510   0.08654   0.60654   0.00000  Uiso   1.00
H232   H     0.22372   0.11070   0.61713   0.00000  Uiso   1.00
H233   H     0.23430   0.10065   0.56769   0.00000  Uiso   1.00
H234   H     0.27813   0.41750   0.39249   0.00000  Uiso   1.00
H235   H     0.24115   0.38663   0.38330   0.00000  Uiso   1.00
H236   H     0.22807   0.44545   0.47446   0.00000  Uiso   1.00
H237   H     0.25136   0.39863   0.43235   0.00000  Uiso   1.00
H238   H     0.20077   0.39029   0.18668   0.00000  Uiso   1.00
H239   H     0.18714   0.40570   0.13974   0.00000  Uiso   1.00
H240   H     0.17210   0.36183   0.15593   0.00000  Uiso   1.00
H241   H     0.30074   0.47076   0.97427   0.00000  Uiso   1.00
H242   H     0.31426   0.09148   0.86027   0.00000  Uiso   1.00
H243   H     0.30057   0.10939   0.81437   0.00000  Uiso   1.00
H244   H     0.32961   0.13600   0.84655   0.00000  Uiso   1.00
H245   H     0.09010   0.20370   0.17763   0.00000  Uiso   1.00
H246   H     0.10974   0.18227   0.13614   0.00000  Uiso   1.00
H247   H     0.13677   0.18707   0.17907   0.00000  Uiso   1.00
H248   H     0.40806   0.31426   0.86048   0.00000  Uiso   1.00
H249   H     0.39082   0.30035   0.81434   0.00000  Uiso   1.00
H250   H     0.36366   0.32937   0.84599   0.00000  Uiso   1.00
H251   H     0.29619   0.09063   0.17805   0.00000  Uiso   1.00
H252   H     0.02760   0.19825   0.02566   0.00000  Uiso   1.00
H253   H     0.31739   0.10939   0.13601   0.00000  Uiso   1.00
H254   H     0.31317   0.13721   0.17843   0.00000  Uiso   1.00
H255   H     0.19954   0.39068   0.81435   0.00000  Uiso   1.00
H256   H     0.17055   0.36403   0.84648   0.00000  Uiso   1.00
H257   H     0.18588   0.40856   0.86028   0.00000  Uiso   1.00
H258   H     0.36342   0.31314   0.17879   0.00000  Uiso   1.00
H259   H     0.41009   0.29652   0.17733   0.00000  Uiso   1.00
H260   H     0.39047   0.31814   0.13593   0.00000  Uiso   1.00
H261   H     0.10922   0.19971   0.81435   0.00000  Uiso   1.00
H262   H     0.13645   0.17073   0.84597   0.00000  Uiso   1.00
H263   H     0.02435   0.30336   0.97453   0.00000  Uiso   1.00
H264   H     0.09207   0.18583   0.86050   0.00000  Uiso   1.00
H265   H     0.18643   0.13654   0.82157   0.00000  Uiso   1.00
H266   H     0.20327   0.08995   0.82279   0.00000  Uiso   1.00
H267   H     0.18144   0.10924   0.86424   0.00000  Uiso   1.00
H268   H     0.31367   0.40708   0.13955   0.00000  Uiso   1.00
H269   H     0.29991   0.39053   0.18599   0.00000  Uiso   1.00
H270   H     0.32876   0.36287   0.15465   0.00000  Uiso   1.00
H271   H     0.13667   0.31404   0.82215   0.00000  Uiso   1.00
H272   H     0.09020   0.29683   0.82243   0.00000  Uiso   1.00
H273   H     0.10862   0.31866   0.86433   0.00000  Uiso   1.00
H274   H     0.30454   0.02196   0.02554   0.00000  Uiso   1.00
H275   H     0.40736   0.18722   0.14031   0.00000  Uiso   1.00
H276   H     0.38976   0.20019   0.18659   0.00000  Uiso   1.00
H277   H     0.36303   0.17145   0.15421   0.00000  Uiso   1.00
H278   H     0.29680   0.41010   0.82278   0.00000  Uiso   1.00
H279   H     0.31867   0.39089   0.86424   0.00000  Uiso   1.00
H280   H     0.31366   0.36351   0.82159   0.00000  Uiso   1.00
H281   H     0.18675   0.09325   0.13975   0.00000  Uiso   1.00
H282   H     0.20028   0.10975   0.18631   0.00000  Uiso   1.00
H283   H     0.17152   0.13741   0.15488   0.00000  Uiso   1.00
H284   H     0.40981   0.20328   0.82237   0.00000  Uiso   1.00
H285   H     0.19937   0.02987   0.97411   0.00000  Uiso   1.00
H286   H     0.39149   0.18152   0.86431   0.00000  Uiso   1.00
H287   H     0.36335   0.18603   0.82216   0.00000  Uiso   1.00
H288   H     0.09011   0.29605   0.17763   0.00000  Uiso   1.00
H289   H     0.13691   0.31227   0.17970   0.00000  Uiso   1.00
H290   H     0.11050   0.31712   0.13636   0.00000  Uiso   1.00
H291   H     0.43597   0.11333   0.67786   0.00000  Uiso   1.00
H292   H     0.45317   0.15981   0.67756   0.00000  Uiso   1.00
H293   H     0.43134   0.14138   0.63567   0.00000  Uiso   1.00
H294   H     0.06288   0.34300   0.35990   0.00000  Uiso   1.00
H295   H     0.04965   0.35996   0.31344   0.00000  Uiso   1.00
H296   H     0.47231   0.30172   0.02569   0.00000  Uiso   1.00
H297   H     0.07836   0.38725   0.34533   0.00000  Uiso   1.00
H298   H     0.33994   0.45321   0.67726   0.00000  Uiso   1.00
H299   H     0.35908   0.43134   0.63576   0.00000  Uiso   1.00
H300   H     0.38652   0.43631   0.67837   0.00000  Uiso   1.00
H301   H     0.15662   0.06333   0.36035   0.00000  Uiso   1.00
H302   H     0.14039   0.04966   0.31372   0.00000  Uiso   1.00
H303   H     0.11249   0.07841   0.34493   0.00000  Uiso   1.00
H304   H     0.04672   0.34018   0.67762   0.00000  Uiso   1.00
H305   H     0.06849   0.35851   0.63568   0.00000  Uiso   1.00
H306   H     0.06396   0.38665   0.67784   0.00000  Uiso   1.00
H307   H     0.47559   0.19666   0.97442   0.00000  Uiso   1.00
H308   H     0.45392   0.15987   0.32235   0.00000  Uiso   1.00
H309   H     0.43765   0.11308   0.32040   0.00000  Uiso   1.00
H310   H     0.43284   0.13960   0.36368   0.00000  Uiso   1.00
H311   H     0.11345   0.06358   0.67842   0.00000  Uiso   1.00
H312   H     0.16004   0.04673   0.67722   0.00000  Uiso   1.00
H313   H     0.14077   0.06856   0.63576   0.00000  Uiso   1.00
H314   H     0.35947   0.45009   0.31401   0.00000  Uiso   1.00
H315   H     0.38713   0.42124   0.34534   0.00000  Uiso   1.00
H316   H     0.34293   0.43634   0.36045   0.00000  Uiso   1.00
H317   H     0.43686   0.38658   0.32121   0.00000  Uiso   1.00
H318   H     0.44668   0.22556   0.52548   0.00000  Uiso   1.00
H319   H     0.45348   0.33991   0.32266   0.00000  Uiso   1.00
H320   H     0.43187   0.35952   0.36406   0.00000  Uiso   1.00
H321   H     0.05029   0.14077   0.68565   0.00000  Uiso   1.00
H322   H     0.07928   0.11357   0.65401   0.00000  Uiso   1.00
H323   H     0.06417   0.15795   0.63951   0.00000  Uiso   1.00
H324   H     0.35980   0.04930   0.31332   0.00000  Uiso   1.00
H325   H     0.34415   0.06285   0.36020   0.00000  Uiso   1.00
H326   H     0.38806   0.07800   0.34425   0.00000  Uiso   1.00
H327   H     0.15851   0.43574   0.63972   0.00000  Uiso   1.00
H328   H     0.14061   0.44944   0.68563   0.00000  Uiso   1.00
O329   O     0.25000   0.00000   0.25000   0.00000  Uiso   1.00
O330   O     0.25000   0.46964   0.66317   0.00000  Uiso   1.00
O331   O     0.22515   0.43830   0.39894   0.00000  Uiso   1.00
O332   O     0.46964   0.25000   0.33683   0.00000  Uiso   1.00
O333   O     0.03036   0.25000   0.66317   0.00000  Uiso   1.00
O334   O     0.00000   0.21964   0.83683   0.00000  Uiso   1.00
O335   O     0.00000   0.28036   0.16317   0.00000  Uiso   1.00
O336   O     0.28036   0.00000   0.83683   0.00000  Uiso   1.00
O337   O     0.21964   0.00000   0.16317   0.00000  Uiso   1.00
O338   O     0.00000   0.28036   0.83683   0.00000  Uiso   1.00
O339   O     0.00000   0.21964   0.16317   0.00000  Uiso   1.00
O340   O     0.21964   0.00000   0.83683   0.00000  Uiso   1.00
O341   O     0.25000   0.00000   0.75000   0.00000  Uiso   1.00
O342   O     0.28036   0.00000   0.16317   0.00000  Uiso   1.00
O343   O     0.20726   0.07307   0.27282   0.00000  Uiso   1.00
O344   O     0.29275   0.42693   0.72718   0.00000  Uiso   1.00
O345   O     0.42693   0.20726   0.27282   0.00000  Uiso   1.00
O346   O     0.07307   0.29275   0.72718   0.00000  Uiso   1.00
O347   O     0.29275   0.42693   0.27282   0.00000  Uiso   1.00
O348   O     0.20726   0.07307   0.72718   0.00000  Uiso   1.00
O349   O     0.07307   0.29275   0.27282   0.00000  Uiso   1.00
O350   O     0.42693   0.20726   0.72718   0.00000  Uiso   1.00
O351   O     0.20726   0.42693   0.72718   0.00000  Uiso   1.00
O352   O     0.00000   0.25000   0.25000   0.00000  Uiso   1.00
O353   O     0.29275   0.07307   0.27282   0.00000  Uiso   1.00
O354   O     0.42693   0.29275   0.72718   0.00000  Uiso   1.00
O355   O     0.07307   0.20726   0.27282   0.00000  Uiso   1.00
O356   O     0.29275   0.07307   0.72718   0.00000  Uiso   1.00
O357   O     0.20726   0.42693   0.27282   0.00000  Uiso   1.00
O358   O     0.07307   0.20726   0.72718   0.00000  Uiso   1.00
O359   O     0.42693   0.29275   0.27282   0.00000  Uiso   1.00
O360   O     0.45726   0.32307   0.77282   0.00000  Uiso   1.00
O361   O     0.04275   0.17693   0.22718   0.00000  Uiso   1.00
O362   O     0.17693   0.45726   0.77282   0.00000  Uiso   1.00
O363   O     0.00000   0.25000   0.75000   0.00000  Uiso   1.00
O364   O     0.32307   0.04275   0.22718   0.00000  Uiso   1.00
O365   O     0.04275   0.17693   0.77282   0.00000  Uiso   1.00
O366   O     0.45726   0.32307   0.22718   0.00000  Uiso   1.00
O367   O     0.32307   0.04275   0.77282   0.00000  Uiso   1.00
O368   O     0.17693   0.45726   0.22718   0.00000  Uiso   1.00
O369   O     0.45726   0.17693   0.22718   0.00000  Uiso   1.00
O370   O     0.04275   0.32307   0.77282   0.00000  Uiso   1.00
O371   O     0.17693   0.04275   0.22718   0.00000  Uiso   1.00
O372   O     0.32307   0.45726   0.77282   0.00000  Uiso   1.00
O373   O     0.04275   0.32307   0.22718   0.00000  Uiso   1.00
O374   O     0.25000   0.46964   0.33683   0.00000  Uiso   1.00
O375   O     0.45726   0.17693   0.77282   0.00000  Uiso   1.00
O376   O     0.32307   0.45726   0.22718   0.00000  Uiso   1.00
O377   O     0.17693   0.04275   0.77282   0.00000  Uiso   1.00
O378   O     0.14616   0.40708   0.18021   0.00000  Uiso   1.00
O379   O     0.35516   0.09191   0.81970   0.00000  Uiso   1.00
O380   O     0.09453   0.14710   0.17955   0.00000  Uiso   1.00
O381   O     0.40801   0.35500   0.81973   0.00000  Uiso   1.00
O382   O     0.35286   0.09477   0.17941   0.00000  Uiso   1.00
O383   O     0.14495   0.40813   0.81970   0.00000  Uiso   1.00
O384   O     0.40567   0.35311   0.17959   0.00000  Uiso   1.00
O385   O     0.25000   0.03036   0.66317   0.00000  Uiso   1.00
O386   O     0.09205   0.14506   0.81973   0.00000  Uiso   1.00
O387   O     0.14666   0.09411   0.82038   0.00000  Uiso   1.00
O388   O     0.35455   0.40757   0.18020   0.00000  Uiso   1.00
O389   O     0.09401   0.35349   0.82037   0.00000  Uiso   1.00
O390   O     0.40747   0.14577   0.18026   0.00000  Uiso   1.00
O391   O     0.35340   0.40596   0.82038   0.00000  Uiso   1.00
O392   O     0.14569   0.09265   0.18015   0.00000  Uiso   1.00
O393   O     0.40603   0.14661   0.82037   0.00000  Uiso   1.00
O394   O     0.09502   0.35262   0.17941   0.00000  Uiso   1.00
O395   O     0.39651   0.15599   0.67963   0.00000  Uiso   1.00
O396   O     0.03036   0.25000   0.33683   0.00000  Uiso   1.00
O397   O     0.10416   0.34261   0.31976   0.00000  Uiso   1.00
O398   O     0.34404   0.39660   0.67962   0.00000  Uiso   1.00
O399   O     0.15734   0.10430   0.31986   0.00000  Uiso   1.00
O400   O     0.10339   0.34397   0.67963   0.00000  Uiso   1.00
O401   O     0.39734   0.15501   0.32059   0.00000  Uiso   1.00
O402   O     0.15589   0.10334   0.67962   0.00000  Uiso   1.00
O403   O     0.34243   0.39546   0.31980   0.00000  Uiso   1.00
O404   O     0.39689   0.34433   0.32041   0.00000  Uiso   1.00
O405   O     0.10494   0.15795   0.68027   0.00000  Uiso   1.00
O406   O     0.34288   0.10388   0.31978   0.00000  Uiso   1.00
O407   O     0.46964   0.25000   0.66317   0.00000  Uiso   1.00
O408   O     0.15809   0.39484   0.68030   0.00000  Uiso   1.00
O409   O     0.10291   0.15547   0.32045   0.00000  Uiso   1.00
O410   O     0.39499   0.34198   0.68027   0.00000  Uiso   1.00
O411   O     0.15520   0.39717   0.32059   0.00000  Uiso   1.00
O412   O     0.34188   0.10505   0.68030   0.00000  Uiso   1.00
O413   O     0.18815   0.47582   0.10079   0.00000  Uiso   1.00
O414   O     0.30718   0.46649   0.89850   0.00000  Uiso   1.00
O415   O     0.03153   0.19162   0.10137   0.00000  Uiso   1.00
O416   O     0.02783   0.31030   0.89893   0.00000  Uiso   1.00
O417   O     0.31168   0.02489   0.10106   0.00000  Uiso   1.00
O418   O     0.25000   0.03036   0.33683   0.00000  Uiso   1.00
O419   O     0.19289   0.03377   0.89833   0.00000  Uiso   1.00
O420   O     0.46836   0.30832   0.10142   0.00000  Uiso   1.00
O421   O     0.47210   0.18973   0.89881   0.00000  Uiso   1.00
O422   O     0.43975   0.22207   0.60108   0.00000  Uiso   1.00
O423   O     0.05843   0.21856   0.39863   0.00000  Uiso   1.00
O424   O     0.28353   0.44284   0.60150   0.00000  Uiso   1.00
O425   O     0.27413   0.06187   0.39922   0.00000  Uiso   1.00
O426   O     0.06022   0.27799   0.60119   0.00000  Uiso   1.00
O427   O     0.44163   0.28155   0.39858   0.00000  Uiso   1.00
O428   O     0.21620   0.05710   0.60167   0.00000  Uiso   1.00
Zn429  Zn    0.20660   0.00000   0.21760   0.00000  Uiso   1.00
Zn430  Zn    0.04340   0.25000   0.28240   0.00000  Uiso   1.00
Zn431  Zn    0.25000   0.45660   0.71760   0.00000  Uiso   1.00
Zn432  Zn    0.25000   0.04340   0.28240   0.00000  Uiso   1.00
Zn433  Zn    0.04340   0.25000   0.71760   0.00000  Uiso   1.00
Zn434  Zn    0.45660   0.25000   0.28240   0.00000  Uiso   1.00
Zn435  Zn    0.25000   0.04340   0.71760   0.00000  Uiso   1.00
Zn436  Zn    0.25000   0.45660   0.28240   0.00000  Uiso   1.00
Zn437  Zn    0.29340   0.00000   0.78240   0.00000  Uiso   1.00
Zn438  Zn    0.00000   0.20660   0.21760   0.00000  Uiso   1.00
Zn439  Zn    0.00000   0.29340   0.78240   0.00000  Uiso   1.00
Zn440  Zn    0.29340   0.00000   0.21760   0.00000  Uiso   1.00
Zn441  Zn    0.20660   0.00000   0.78240   0.00000  Uiso   1.00
Zn442  Zn    0.00000   0.29340   0.21760   0.00000  Uiso   1.00
Zn443  Zn    0.00000   0.20660   0.78240   0.00000  Uiso   1.00
Zn444  Zn    0.45660   0.25000   0.71760   0.00000  Uiso   1.00
C445   C     0.71905   0.48876   0.04106   0.00000  Uiso   1.00
C446   C     0.52950   0.23506   0.45863   0.00000  Uiso   1.00
C447   C     0.84804   0.40196   0.75000   0.00000  Uiso   1.00
C448   C     0.90222   0.15164   0.25016   0.00000  Uiso   1.00
C449   C     0.59802   0.34805   0.75000   0.00000  Uiso   1.00
C450   C     0.84810   0.40190   0.25000   0.00000  Uiso   1.00
C451   C     0.65196   0.09804   0.75000   0.00000  Uiso   1.00
C452   C     0.59810   0.15190   0.75000   0.00000  Uiso   1.00
C453   C     0.90196   0.34804   0.25000   0.00000  Uiso   1.00
C454   C     0.65191   0.40188   0.75000   0.00000  Uiso   1.00
C455   C     0.84780   0.09834   0.24982   0.00000  Uiso   1.00
C456   C     0.90190   0.34810   0.75000   0.00000  Uiso   1.00
C457   C     0.76581   0.47106   0.54146   0.00000  Uiso   1.00
C458   C     0.59804   0.15196   0.25000   0.00000  Uiso   1.00
C459   C     0.84812   0.09809   0.75000   0.00000  Uiso   1.00
C460   C     0.65167   0.40220   0.25018   0.00000  Uiso   1.00
C461   C     0.74998   0.00021   0.10207   0.00000  Uiso   1.00
C462   C     0.75003   0.00011   0.89768   0.00000  Uiso   1.00
C463   C     0.99997   0.24998   0.10224   0.00000  Uiso   1.00
C464   C     0.99998   0.25001   0.89786   0.00000  Uiso   1.00
C465   C     0.99999   0.25002   0.60215   0.00000  Uiso   1.00
C466   C     0.50002   0.25003   0.39776   0.00000  Uiso   1.00
C467   C     0.74988   0.49997   0.60232   0.00000  Uiso   1.00
C468   C     0.76121   0.03096   0.45894   0.00000  Uiso   1.00
C469   C     0.74979   0.00002   0.39793   0.00000  Uiso   1.00
C470   C     0.67789   0.39018   0.16548   0.00000  Uiso   1.00
C471   C     0.82355   0.10823   0.83542   0.00000  Uiso   1.00
C472   C     0.60863   0.18145   0.16819   0.00000  Uiso   1.00
C473   C     0.89160   0.32339   0.83533   0.00000  Uiso   1.00
C474   C     0.81849   0.10885   0.16806   0.00000  Uiso   1.00
C475   C     0.67658   0.39181   0.83540   0.00000  Uiso   1.00
C476   C     0.89156   0.31882   0.16799   0.00000  Uiso   1.00
C477   C     0.60848   0.17668   0.83533   0.00000  Uiso   1.00
C478   C     0.68086   0.10832   0.83217   0.00000  Uiso   1.00
C479   C     0.53029   0.26325   0.54126   0.00000  Uiso   1.00
C480   C     0.82287   0.39097   0.16491   0.00000  Uiso   1.00
C481   C     0.60824   0.31935   0.83226   0.00000  Uiso   1.00
C482   C     0.89086   0.17750   0.16517   0.00000  Uiso   1.00
C483   C     0.81923   0.39176   0.83218   0.00000  Uiso   1.00
C484   C     0.67741   0.10930   0.16510   0.00000  Uiso   1.00
C485   C     0.89181   0.18076   0.83224   0.00000  Uiso   1.00
C486   C     0.60897   0.31810   0.16838   0.00000  Uiso   1.00
C487   C     0.93065   0.14177   0.66774   0.00000  Uiso   1.00
C488   C     0.57241   0.35925   0.33478   0.00000  Uiso   1.00
C489   C     0.85825   0.43077   0.66782   0.00000  Uiso   1.00
C490   C     0.97053   0.26500   0.45861   0.00000  Uiso   1.00
C491   C     0.64067   0.07258   0.33489   0.00000  Uiso   1.00
C492   C     0.56924   0.35819   0.66776   0.00000  Uiso   1.00
C493   C     0.93186   0.14105   0.33165   0.00000  Uiso   1.00
C494   C     0.64168   0.06915   0.66782   0.00000  Uiso   1.00
C495   C     0.85903   0.42713   0.33508   0.00000  Uiso   1.00
C496   C     0.93118   0.35844   0.33201   0.00000  Uiso   1.00
C497   C     0.57332   0.14152   0.66466   0.00000  Uiso   1.00
C498   C     0.85977   0.07216   0.33455   0.00000  Uiso   1.00
C499   C     0.64176   0.42646   0.66458   0.00000  Uiso   1.00
C500   C     0.56855   0.14139   0.33181   0.00000  Uiso   1.00
C501   C     0.73361   0.02883   0.54155   0.00000  Uiso   1.00
C502   C     0.92660   0.35839   0.66466   0.00000  Uiso   1.00
C503   C     0.64117   0.43157   0.33190   0.00000  Uiso   1.00
C504   C     0.85819   0.07342   0.66460   0.00000  Uiso   1.00
C505   C     0.65931   0.00121   0.09756   0.00000  Uiso   1.00
C506   C     0.84001   0.48634   0.90238   0.00000  Uiso   1.00
C507   C     0.51030   0.15964   0.09765   0.00000  Uiso   1.00
C508   C     0.50437   0.34071   0.90235   0.00000  Uiso   1.00
C509   C     0.84071   0.49973   0.09773   0.00000  Uiso   1.00
C510   C     0.66006   0.01394   0.90229   0.00000  Uiso   1.00
C511   C     0.98949   0.34035   0.09771   0.00000  Uiso   1.00
C512   C     0.73808   0.46905   0.45881   0.00000  Uiso   1.00
C513   C     0.99555   0.15931   0.90224   0.00000  Uiso   1.00
C514   C     0.90930   0.24547   0.59765   0.00000  Uiso   1.00
C515   C     0.59038   0.23984   0.40235   0.00000  Uiso   1.00
C516   C     0.76369   0.41000   0.59762   0.00000  Uiso   1.00
C517   C     0.74872   0.09068   0.40243   0.00000  Uiso   1.00
C518   C     0.59068   0.25461   0.59776   0.00000  Uiso   1.00
C519   C     0.90964   0.26035   0.40229   0.00000  Uiso   1.00
C520   C     0.73602   0.08994   0.59771   0.00000  Uiso   1.00
C521   C     0.75033   0.40929   0.40227   0.00000  Uiso   1.00
C522   C     0.71840   0.48928   0.08146   0.00000  Uiso   1.00
C523   C     0.77962   0.48459   0.91812   0.00000  Uiso   1.00
C524   C     0.51449   0.21987   0.08179   0.00000  Uiso   1.00
C525   C     0.77895   0.48420   0.95854   0.00000  Uiso   1.00
C526   C     0.51263   0.28096   0.91839   0.00000  Uiso   1.00
C527   C     0.78155   0.01131   0.08159   0.00000  Uiso   1.00
C528   C     0.72046   0.01577   0.91804   0.00000  Uiso   1.00
C529   C     0.98543   0.28009   0.08181   0.00000  Uiso   1.00
C530   C     0.98731   0.21906   0.91833   0.00000  Uiso   1.00
C531   C     0.96906   0.23732   0.58162   0.00000  Uiso   1.00
C532   C     0.53016   0.23555   0.41822   0.00000  Uiso   1.00
C533   C     0.76542   0.47039   0.58188   0.00000  Uiso   1.00
C534   C     0.76069   0.03161   0.41854   0.00000  Uiso   1.00
C535   C     0.53092   0.26274   0.58167   0.00000  Uiso   1.00
C536   C     0.51498   0.22053   0.04137   0.00000  Uiso   1.00
C537   C     0.96988   0.26452   0.41819   0.00000  Uiso   1.00
C538   C     0.73422   0.02953   0.58196   0.00000  Uiso   1.00
C539   C     0.73871   0.46845   0.41841   0.00000  Uiso   1.00
C540   C     0.75002   0.00034   0.02097   0.00000  Uiso   1.00
C541   C     0.75006   0.00032   0.97866   0.00000  Uiso   1.00
C542   C     0.99997   0.24999   0.02123   0.00000  Uiso   1.00
C543   C     0.99997   0.25000   0.97892   0.00000  Uiso   1.00
C544   C     0.50000   0.25002   0.52108   0.00000  Uiso   1.00
C545   C     0.50001   0.25003   0.47877   0.00000  Uiso   1.00
C546   C     0.74967   0.49994   0.52134   0.00000  Uiso   1.00
C547   C     0.51314   0.28033   0.95880   0.00000  Uiso   1.00
C548   C     0.74965   0.49998   0.47903   0.00000  Uiso   1.00
C549   C     0.74995   0.00001   0.35532   0.00000  Uiso   1.00
C550   C     0.74999   0.49999   0.64477   0.00000  Uiso   1.00
C551   C     0.50001   0.25001   0.35526   0.00000  Uiso   1.00
C552   C     0.99999   0.25001   0.64471   0.00000  Uiso   1.00
C553   C     0.99999   0.25001   0.85529   0.00000  Uiso   1.00
C554   C     0.99999   0.24999   0.14474   0.00000  Uiso   1.00
C555   C     0.75001   0.00001   0.85523   0.00000  Uiso   1.00
C556   C     0.74999   0.00005   0.14468   0.00000  Uiso   1.00
C557   C     0.67997   0.07003   0.25000   0.00000  Uiso   1.00
C558   C     0.78094   0.01193   0.04119   0.00000  Uiso   1.00
C559   C     0.82001   0.42999   0.75000   0.00000  Uiso   1.00
C560   C     0.93009   0.17988   0.25010   0.00000  Uiso   1.00
C561   C     0.57000   0.32001   0.75000   0.00000  Uiso   1.00
C562   C     0.82002   0.42998   0.25000   0.00000  Uiso   1.00
C563   C     0.67999   0.07001   0.75000   0.00000  Uiso   1.00
C564   C     0.57012   0.31991   0.24990   0.00000  Uiso   1.00
C565   C     0.92999   0.18000   0.75000   0.00000  Uiso   1.00
C566   C     0.67998   0.42997   0.75000   0.00000  Uiso   1.00
C567   C     0.81991   0.07012   0.24989   0.00000  Uiso   1.00
C568   C     0.92997   0.32003   0.75000   0.00000  Uiso   1.00
C569   C     0.72116   0.01637   0.95845   0.00000  Uiso   1.00
C570   C     0.57001   0.17999   0.25000   0.00000  Uiso   1.00
C571   C     0.82003   0.07002   0.75000   0.00000  Uiso   1.00
C572   C     0.67988   0.43009   0.25011   0.00000  Uiso   1.00
C573   C     0.57002   0.17998   0.75000   0.00000  Uiso   1.00
C574   C     0.92999   0.32001   0.25000   0.00000  Uiso   1.00
C575   C     0.63655   0.39050   0.21475   0.00000  Uiso   1.00
C576   C     0.86400   0.10913   0.78527   0.00000  Uiso   1.00
C577   C     0.60973   0.13670   0.21460   0.00000  Uiso   1.00
C578   C     0.89086   0.36394   0.78528   0.00000  Uiso   1.00
C579   C     0.86324   0.10991   0.21451   0.00000  Uiso   1.00
C580   C     0.98495   0.27945   0.04140   0.00000  Uiso   1.00
C581   C     0.63606   0.39089   0.78527   0.00000  Uiso   1.00
C582   C     0.89038   0.36341   0.21462   0.00000  Uiso   1.00
C583   C     0.60918   0.13610   0.78528   0.00000  Uiso   1.00
C584   C     0.63646   0.10949   0.78536   0.00000  Uiso   1.00
C585   C     0.86374   0.39066   0.21470   0.00000  Uiso   1.00
C586   C     0.60945   0.36361   0.78536   0.00000  Uiso   1.00
C587   C     0.89062   0.13643   0.21473   0.00000  Uiso   1.00
C588   C     0.86358   0.39054   0.78536   0.00000  Uiso   1.00
C589   C     0.63637   0.10945   0.21468   0.00000  Uiso   1.00
C590   C     0.89057   0.13644   0.78536   0.00000  Uiso   1.00
C591   C     0.98680   0.21969   0.95874   0.00000  Uiso   1.00
C592   C     0.61000   0.36316   0.21453   0.00000  Uiso   1.00
C593   C     0.88639   0.14055   0.71464   0.00000  Uiso   1.00
C594   C     0.61354   0.35941   0.28527   0.00000  Uiso   1.00
C595   C     0.85946   0.38642   0.71464   0.00000  Uiso   1.00
C596   C     0.64055   0.11363   0.28532   0.00000  Uiso   1.00
C597   C     0.61356   0.35943   0.71464   0.00000  Uiso   1.00
C598   C     0.88682   0.14002   0.28547   0.00000  Uiso   1.00
C599   C     0.64051   0.11354   0.71464   0.00000  Uiso   1.00
C600   C     0.85934   0.38626   0.28530   0.00000  Uiso   1.00
C601   C     0.88659   0.35962   0.28538   0.00000  Uiso   1.00
C602   C     0.96970   0.23681   0.54121   0.00000  Uiso   1.00
C603   C     0.61391   0.14083   0.71472   0.00000  Uiso   1.00
C604   C     0.85948   0.11347   0.28525   0.00000  Uiso   1.00
C605   C     0.64087   0.38600   0.71473   0.00000  Uiso   1.00
C606   C     0.61330   0.14027   0.28540   0.00000  Uiso   1.00
C607   C     0.88606   0.35914   0.71472   0.00000  Uiso   1.00
C608   C     0.64007   0.38678   0.28549   0.00000  Uiso   1.00
C609   C     0.85911   0.11394   0.71473   0.00000  Uiso   1.00
C610   C     0.59836   0.34778   0.24984   0.00000  Uiso   1.00
C611   C     0.90195   0.15198   0.75000   0.00000  Uiso   1.00
C612   C     0.65190   0.09810   0.25000   0.00000  Uiso   1.00
H613   H     0.69545   0.47880   0.02533   0.00000  Uiso   1.00
H614   H     0.55180   0.22247   0.47435   0.00000  Uiso   1.00
H615   H     0.61399   0.42040   0.65346   0.00000  Uiso   1.00
H616   H     0.54632   0.15999   0.32246   0.00000  Uiso   1.00
H617   H     0.56776   0.14020   0.36386   0.00000  Uiso   1.00
H618   H     0.56286   0.11330   0.32085   0.00000  Uiso   1.00
H619   H     0.93577   0.34188   0.63956   0.00000  Uiso   1.00
H620   H     0.94962   0.35924   0.68567   0.00000  Uiso   1.00
H621   H     0.92060   0.38630   0.65393   0.00000  Uiso   1.00
H622   H     0.65955   0.45381   0.32210   0.00000  Uiso   1.00
H623   H     0.64041   0.43261   0.36396   0.00000  Uiso   1.00
H624   H     0.61290   0.43703   0.32132   0.00000  Uiso   1.00
H625   H     0.77926   0.44927   0.52573   0.00000  Uiso   1.00
H626   H     0.85931   0.05045   0.68565   0.00000  Uiso   1.00
H627   H     0.88598   0.07944   0.65354   0.00000  Uiso   1.00
H628   H     0.84145   0.06412   0.63971   0.00000  Uiso   1.00
H629   H     0.66769   0.02889   0.10763   0.00000  Uiso   1.00
H630   H     0.63655   0.49204   0.11638   0.00000  Uiso   1.00
H631   H     0.64873   0.00252   0.06746   0.00000  Uiso   1.00
H632   H     0.83659   0.01538   0.89342   0.00000  Uiso   1.00
H633   H     0.86076   0.47396   0.88303   0.00000  Uiso   1.00
H634   H     0.85074   0.48479   0.93241   0.00000  Uiso   1.00
H635   H     0.98150   0.16426   0.10686   0.00000  Uiso   1.00
H636   H     0.77115   0.05456   0.47467   0.00000  Uiso   1.00
H637   H     0.52196   0.13837   0.11689   0.00000  Uiso   1.00
H638   H     0.51118   0.14887   0.06760   0.00000  Uiso   1.00
H639   H     0.97610   0.33409   0.89266   0.00000  Uiso   1.00
H640   H     0.51476   0.36278   0.88333   0.00000  Uiso   1.00
H641   H     0.50408   0.35145   0.93242   0.00000  Uiso   1.00
H642   H     0.83252   0.47192   0.10752   0.00000  Uiso   1.00
H643   H     0.86336   0.00893   0.11670   0.00000  Uiso   1.00
H644   H     0.85138   0.49870   0.06765   0.00000  Uiso   1.00
H645   H     0.66347   0.48486   0.89346   0.00000  Uiso   1.00
H646   H     0.63929   0.02623   0.88287   0.00000  Uiso   1.00
H647   H     0.55330   0.27450   0.52558   0.00000  Uiso   1.00
H648   H     0.64934   0.01565   0.93231   0.00000  Uiso   1.00
H649   H     0.51833   0.33580   0.10686   0.00000  Uiso   1.00
H650   H     0.97783   0.36158   0.11699   0.00000  Uiso   1.00
H651   H     0.98850   0.35112   0.06767   0.00000  Uiso   1.00
H652   H     0.52383   0.16592   0.89262   0.00000  Uiso   1.00
H653   H     0.98516   0.13725   0.88316   0.00000  Uiso   1.00
H654   H     0.99580   0.14856   0.93230   0.00000  Uiso   1.00
H655   H     0.91586   0.27376   0.60733   0.00000  Uiso   1.00
H656   H     0.88724   0.23505   0.61667   0.00000  Uiso   1.00
H657   H     0.89856   0.24573   0.56758   0.00000  Uiso   1.00
H658   H     0.94823   0.27760   0.47431   0.00000  Uiso   1.00
H659   H     0.58571   0.26863   0.39312   0.00000  Uiso   1.00
H660   H     0.61166   0.22822   0.38312   0.00000  Uiso   1.00
H661   H     0.60115   0.23900   0.43240   0.00000  Uiso   1.00
H662   H     0.73465   0.41340   0.60658   0.00000  Uiso   1.00
H663   H     0.77609   0.38925   0.61697   0.00000  Uiso   1.00
H664   H     0.76526   0.39926   0.56759   0.00000  Uiso   1.00
H665   H     0.72105   0.08229   0.39236   0.00000  Uiso   1.00
H666   H     0.75786   0.11345   0.38363   0.00000  Uiso   1.00
H667   H     0.74738   0.10127   0.43254   0.00000  Uiso   1.00
H668   H     0.58413   0.22630   0.60736   0.00000  Uiso   1.00
H669   H     0.72010   0.05062   0.52589   0.00000  Uiso   1.00
H670   H     0.61273   0.26502   0.61684   0.00000  Uiso   1.00
H671   H     0.60144   0.25438   0.56770   0.00000  Uiso   1.00
H672   H     0.91424   0.23152   0.39312   0.00000  Uiso   1.00
H673   H     0.88838   0.27198   0.38301   0.00000  Uiso   1.00
H674   H     0.89886   0.26129   0.43232   0.00000  Uiso   1.00
H675   H     0.76510   0.08654   0.60654   0.00000  Uiso   1.00
H676   H     0.72372   0.11070   0.61713   0.00000  Uiso   1.00
H677   H     0.73430   0.10065   0.56769   0.00000  Uiso   1.00
H678   H     0.77813   0.41750   0.39249   0.00000  Uiso   1.00
H679   H     0.74115   0.38663   0.38330   0.00000  Uiso   1.00
H680   H     0.72807   0.44545   0.47446   0.00000  Uiso   1.00
H681   H     0.75136   0.39863   0.43235   0.00000  Uiso   1.00
H682   H     0.70077   0.39029   0.18668   0.00000  Uiso   1.00
H683   H     0.68714   0.40570   0.13974   0.00000  Uiso   1.00
H684   H     0.67210   0.36183   0.15593   0.00000  Uiso   1.00
H685   H     0.80074   0.47076   0.97427   0.00000  Uiso   1.00
H686   H     0.81426   0.09148   0.86027   0.00000  Uiso   1.00
H687   H     0.80057   0.10939   0.81437   0.00000  Uiso   1.00
H688   H     0.82961   0.13600   0.84655   0.00000  Uiso   1.00
H689   H     0.59010   0.20370   0.17763   0.00000  Uiso   1.00
H690   H     0.60974   0.18227   0.13614   0.00000  Uiso   1.00
H691   H     0.63677   0.18707   0.17907   0.00000  Uiso   1.00
H692   H     0.90806   0.31426   0.86048   0.00000  Uiso   1.00
H693   H     0.89082   0.30035   0.81434   0.00000  Uiso   1.00
H694   H     0.86366   0.32937   0.84599   0.00000  Uiso   1.00
H695   H     0.79619   0.09063   0.17805   0.00000  Uiso   1.00
H696   H     0.52760   0.19825   0.02566   0.00000  Uiso   1.00
H697   H     0.81739   0.10939   0.13601   0.00000  Uiso   1.00
H698   H     0.81317   0.13721   0.17843   0.00000  Uiso   1.00
H699   H     0.69954   0.39068   0.81435   0.00000  Uiso   1.00
H700   H     0.67055   0.36403   0.84648   0.00000  Uiso   1.00
H701   H     0.68588   0.40856   0.86028   0.00000  Uiso   1.00
H702   H     0.86342   0.31314   0.17879   0.00000  Uiso   1.00
H703   H     0.91009   0.29652   0.17733   0.00000  Uiso   1.00
H704   H     0.89047   0.31814   0.13593   0.00000  Uiso   1.00
H705   H     0.60922   0.19971   0.81435   0.00000  Uiso   1.00
H706   H     0.63645   0.17073   0.84597   0.00000  Uiso   1.00
H707   H     0.52435   0.30336   0.97453   0.00000  Uiso   1.00
H708   H     0.59207   0.18583   0.86050   0.00000  Uiso   1.00
H709   H     0.68643   0.13654   0.82157   0.00000  Uiso   1.00
H710   H     0.70327   0.08995   0.82279   0.00000  Uiso   1.00
H711   H     0.68144   0.10924   0.86424   0.00000  Uiso   1.00
H712   H     0.81367   0.40708   0.13955   0.00000  Uiso   1.00
H713   H     0.79991   0.39053   0.18599   0.00000  Uiso   1.00
H714   H     0.82876   0.36287   0.15465   0.00000  Uiso   1.00
H715   H     0.63667   0.31404   0.82215   0.00000  Uiso   1.00
H716   H     0.59020   0.29683   0.82243   0.00000  Uiso   1.00
H717   H     0.60862   0.31866   0.86433   0.00000  Uiso   1.00
H718   H     0.80454   0.02196   0.02554   0.00000  Uiso   1.00
H719   H     0.90736   0.18722   0.14031   0.00000  Uiso   1.00
H720   H     0.88976   0.20019   0.18659   0.00000  Uiso   1.00
H721   H     0.86303   0.17145   0.15421   0.00000  Uiso   1.00
H722   H     0.79680   0.41010   0.82278   0.00000  Uiso   1.00
H723   H     0.81867   0.39089   0.86424   0.00000  Uiso   1.00
H724   H     0.81366   0.36351   0.82159   0.00000  Uiso   1.00
H725   H     0.68675   0.09325   0.13975   0.00000  Uiso   1.00
H726   H     0.70028   0.10975   0.18631   0.00000  Uiso   1.00
H727   H     0.67152   0.13741   0.15488   0.00000  Uiso   1.00
H728   H     0.90981   0.20328   0.82237   0.00000  Uiso   1.00
H729   H     0.69937   0.02987   0.97411   0.00000  Uiso   1.00
H730   H     0.89149   0.18152   0.86431   0.00000  Uiso   1.00
H731   H     0.86335   0.18603   0.82216   0.00000  Uiso   1.00
H732   H     0.59011   0.29605   0.17763   0.00000  Uiso   1.00
H733   H     0.63691   0.31227   0.17970   0.00000  Uiso   1.00
H734   H     0.61050   0.31712   0.13636   0.00000  Uiso   1.00
H735   H     0.93597   0.11333   0.67786   0.00000  Uiso   1.00
H736   H     0.95317   0.15981   0.67756   0.00000  Uiso   1.00
H737   H     0.93134   0.14138   0.63567   0.00000  Uiso   1.00
H738   H     0.56288   0.34300   0.35990   0.00000  Uiso   1.00
H739   H     0.54965   0.35996   0.31344   0.00000  Uiso   1.00
H740   H     0.97231   0.30172   0.02569   0.00000  Uiso   1.00
H741   H     0.57836   0.38725   0.34533   0.00000  Uiso   1.00
H742   H     0.83994   0.45321   0.67726   0.00000  Uiso   1.00
H743   H     0.85908   0.43134   0.63576   0.00000  Uiso   1.00
H744   H     0.88652   0.43631   0.67837   0.00000  Uiso   1.00
H745   H     0.65662   0.06333   0.36035   0.00000  Uiso   1.00
H746   H     0.64039   0.04966   0.31372   0.00000  Uiso   1.00
H747   H     0.61249   0.07841   0.34493   0.00000  Uiso   1.00
H748   H     0.54672   0.34018   0.67762   0.00000  Uiso   1.00
H749   H     0.56849   0.35851   0.63568   0.00000  Uiso   1.00
H750   H     0.56396   0.38665   0.67784   0.00000  Uiso   1.00
H751   H     0.97559   0.19666   0.97442   0.00000  Uiso   1.00
H752   H     0.95392   0.15987   0.32235   0.00000  Uiso   1.00
H753   H     0.93765   0.11308   0.32040   0.00000  Uiso   1.00
H754   H     0.93284   0.13960   0.36368   0.00000  Uiso   1.00
H755   H     0.61345   0.06358   0.67842   0.00000  Uiso   1.00
H756   H     0.66004   0.04673   0.67722   0.00000  Uiso   1.00
H757   H     0.64077   0.06856   0.63576   0.00000  Uiso   1.00
H758   H     0.85947   0.45009   0.31401   0.00000  Uiso   1.00
H759   H     0.88713   0.42124   0.34534   0.00000  Uiso   1.00
H760   H     0.84293   0.43634   0.36045   0.00000  Uiso   1.00
H761   H     0.93686   0.38658   0.32121   0.00000  Uiso   1.00
H762   H     0.94668   0.22556   0.52548   0.00000  Uiso   1.00
H763   H     0.95348   0.33991   0.32266   0.00000  Uiso   1.00
H764   H     0.93187   0.35952   0.36406   0.00000  Uiso   1.00
H765   H     0.55029   0.14077   0.68565   0.00000  Uiso   1.00
H766   H     0.57928   0.11357   0.65401   0.00000  Uiso   1.00
H767   H     0.56417   0.15795   0.63951   0.00000  Uiso   1.00
H768   H     0.85980   0.04930   0.31332   0.00000  Uiso   1.00
H769   H     0.84415   0.06285   0.36020   0.00000  Uiso   1.00
H770   H     0.88806   0.07800   0.34425   0.00000  Uiso   1.00
H771   H     0.65851   0.43574   0.63972   0.00000  Uiso   1.00
H772   H     0.64061   0.44944   0.68563   0.00000  Uiso   1.00
O773   O     0.75000   0.00000   0.25000   0.00000  Uiso   1.00
O774   O     0.75000   0.46964   0.66317   0.00000  Uiso   1.00
O775   O     0.72515   0.43830   0.39894   0.00000  Uiso   1.00
O776   O     0.96964   0.25000   0.33683   0.00000  Uiso   1.00
O777   O     0.53036   0.25000   0.66317   0.00000  Uiso   1.00
O778   O     0.50000   0.21964   0.83683   0.00000  Uiso   1.00
O779   O     0.50000   0.28036   0.16317   0.00000  Uiso   1.00
O780   O     0.78036   0.00000   0.83683   0.00000  Uiso   1.00
O781   O     0.71964   0.00000   0.16317   0.00000  Uiso   1.00
O782   O     0.50000   0.28036   0.83683   0.00000  Uiso   1.00
O783   O     0.50000   0.21964   0.16317   0.00000  Uiso   1.00
O784   O     0.71964   0.00000   0.83683   0.00000  Uiso   1.00
O785   O     0.75000   0.00000   0.75000   0.00000  Uiso   1.00
O786   O     0.78036   0.00000   0.16317   0.00000  Uiso   1.00
O787   O     0.70726   0.07307   0.27282   0.00000  Uiso   1.00
O788   O     0.79275   0.42693   0.72718   0.00000  Uiso   1.00
O789   O     0.92693   0.20726   0.27282   0.00000  Uiso   1.00
O790   O     0.57307   0.29275   0.72718   0.00000  Uiso   1.00
O791   O     0.79275   0.42693   0.27282   0.00000  Uiso   1.00
O792   O     0.70726   0.07307   0.72718   0.00000  Uiso   1.00
O793   O     0.57307   0.29275   0.27282   0.00000  Uiso   1.00
O794   O     0.92693   0.20726   0.72718   0.00000  Uiso   1.00
O795   O     0.70726   0.42693   0.72718   0.00000  Uiso   1.00
O796   O     0.50000   0.25000   0.25000   0.00000  Uiso   1.00
O797   O     0.79275   0.07307   0.27282   0.00000  Uiso   1.00
O798   O     0.92693   0.29275   0.72718   0.00000  Uiso   1.00
O799   O     0.57307   0.20726   0.27282   0.00000  Uiso   1.00
O800   O     0.79275   0.07307   0.72718   0.00000  Uiso   1.00
O801   O     0.70726   0.42693   0.27282   0.00000  Uiso   1.00
O802   O     0.57307   0.20726   0.72718   0.00000  Uiso   1.00
O803   O     0.92693   0.29275   0.27282   0.00000  Uiso   1.00
O804   O     0.95726   0.32307   0.77282   0.00000  Uiso   1.00
O805   O     0.54275   0.17693   0.22718   0.00000  Uiso   1.00
O806   O     0.67693   0.45726   0.77282   0.00000  Uiso   1.00
O807   O     0.50000   0.25000   0.75000   0.00000  Uiso   1.00
O808   O     0.82307   0.04275   0.22718   0.00000  Uiso   1.00
O809   O     0.54275   0.17693   0.77282   0.00000  Uiso   1.00
O810   O     0.95726   0.32307   0.22718   0.00000  Uiso   1.00
O811   O     0.82307   0.04275   0.77282   0.00000  Uiso   1.00
O812   O     0.67693   0.45726   0.22718   0.00000  Uiso   1.00
O813   O     0.95726   0.17693   0.22718   0.00000  Uiso   1.00
O814   O     0.54275   0.32307   0.77282   0.00000  Uiso   1.00
O815   O     0.67693   0.04275   0.22718   0.00000  Uiso   1.00
O816   O     0.82307   0.45726   0.77282   0.00000  Uiso   1.00
O817   O     0.54275   0.32307   0.22718   0.00000  Uiso   1.00
O818   O     0.75000   0.46964   0.33683   0.00000  Uiso   1.00
O819   O     0.95726   0.17693   0.77282   0.00000  Uiso   1.00
O820   O     0.82307   0.45726   0.22718   0.00000  Uiso   1.00
O821   O     0.67693   0.04275   0.77282   0.00000  Uiso   1.00
O822   O     0.64616   0.40708   0.18021   0.00000  Uiso   1.00
O823   O     0.85516   0.09191   0.81970   0.00000  Uiso   1.00
O824   O     0.59453   0.14710   0.17955   0.00000  Uiso   1.00
O825   O     0.90801   0.35500   0.81973   0.00000  Uiso   1.00
O826   O     0.85286   0.09477   0.17941   0.00000  Uiso   1.00
O827   O     0.64495   0.40813   0.81970   0.00000  Uiso   1.00
O828   O     0.90567   0.35311   0.17959   0.00000  Uiso   1.00
O829   O     0.75000   0.03036   0.66317   0.00000  Uiso   1.00
O830   O     0.59205   0.14506   0.81973   0.00000  Uiso   1.00
O831   O     0.64666   0.09411   0.82038   0.00000  Uiso   1.00
O832   O     0.85455   0.40757   0.18020   0.00000  Uiso   1.00
O833   O     0.59401   0.35349   0.82037   0.00000  Uiso   1.00
O834   O     0.90747   0.14577   0.18026   0.00000  Uiso   1.00
O835   O     0.85340   0.40596   0.82038   0.00000  Uiso   1.00
O836   O     0.64569   0.09265   0.18015   0.00000  Uiso   1.00
O837   O     0.90603   0.14661   0.82037   0.00000  Uiso   1.00
O838   O     0.59502   0.35262   0.17941   0.00000  Uiso   1.00
O839   O     0.89651   0.15599   0.67963   0.00000  Uiso   1.00
O840   O     0.53036   0.25000   0.33683   0.00000  Uiso   1.00
O841   O     0.60416   0.34261   0.31976   0.00000  Uiso   1.00
O842   O     0.84404   0.39660   0.67962   0.00000  Uiso   1.00
O843   O     0.65734   0.10430   0.31986   0.00000  Uiso   1.00
O844   O     0.60339   0.34397   0.67963   0.00000  Uiso   1.00
O845   O     0.89734   0.15501   0.32059   0.00000  Uiso   1.00
O846   O     0.65589   0.10334   0.67962   0.00000  Uiso   1.00
O847   O     0.84243   0.39546   0.31980   0.00000  Uiso   1.00
O848   O     0.89689   0.34433   0.32041   0.00000  Uiso   1.00
O849   O     0.60494   0.15795   0.68027   0.00000  Uiso   1.00
O850   O     0.84288   0.10388   0.31978   0.00000  Uiso   1.00
O851   O     0.96964   0.25000   0.66317   0.00000  Uiso   1.00
O852   O     0.65809   0.39484   0.68030   0.00000  Uiso   1.00
O853   O     0.60291   0.15547   0.32045   0.00000  Uiso   1.00
O854   O     0.89499   0.34198   0.68027   0.00000  Uiso   1.00
O855   O     0.65520   0.39717   0.32059   0.00000  Uiso   1.00
O856   O     0.84188   0.10505   0.68030   0.00000  Uiso   1.00
O857   O     0.68815   0.47582   0.10079   0.00000  Uiso   1.00
O858   O     0.80718   0.46649   0.89850   0.00000  Uiso   1.00
O859   O     0.53153   0.19162   0.10137   0.00000  Uiso   1.00
O860   O     0.52783   0.31030   0.89893   0.00000  Uiso   1.00
O861   O     0.81168   0.02489   0.10106   0.00000  Uiso   1.00
O862   O     0.75000   0.03036   0.33683   0.00000  Uiso   1.00
O863   O     0.69289   0.03377   0.89833   0.00000  Uiso   1.00
O864   O     0.96836   0.30832   0.10142   0.00000  Uiso   1.00
O865   O     0.97210   0.18973   0.89881   0.00000  Uiso   1.00
O866   O     0.93975   0.22207   0.60108   0.00000  Uiso   1.00
O867   O     0.55843   0.21856   0.39863   0.00000  Uiso   1.00
O868   O     0.78353   0.44284   0.60150   0.00000  Uiso   1.00
O869   O     0.77413   0.06187   0.39922   0.00000  Uiso   1.00
O870   O     0.56022   0.27799   0.60119   0.00000  Uiso   1.00
O871   O     0.94163   0.28155   0.39858   0.00000  Uiso   1.00
O872   O     0.71620   0.05710   0.60167   0.00000  Uiso   1.00
Zn873  Zn    0.70660   0.00000   0.21760   0.00000  Uiso   1.00
Zn874  Zn    0.54340   0.25000   0.28240   0.00000  Uiso   1.00
Zn875  Zn    0.75000   0.45660   0.71760   0.00000  Uiso   1.00
Zn876  Zn    0.75000   0.04340   0.28240   0.00000  Uiso   1.00
Zn877  Zn    0.54340   0.25000   0.71760   0.00000  Uiso   1.00
Zn878  Zn    0.95660   0.25000   0.28240   0.00000  Uiso   1.00
Zn879  Zn    0.75000   0.04340   0.71760   0.00000  Uiso   1.00
Zn880  Zn    0.75000   0.45660   0.28240   0.00000  Uiso   1.00
Zn881  Zn    0.79340   0.00000   0.78240   0.00000  Uiso   1.00
Zn882  Zn    0.50000   0.20660   0.21760   0.00000  Uiso   1.00
Zn883  Zn    0.50000   0.29340   0.78240   0.00000  Uiso   1.00
Zn884  Zn    0.79340   0.00000   0.21760   0.00000  Uiso   1.00
Zn885  Zn    0.70660   0.00000   0.78240   0.00000  Uiso   1.00
Zn886  Zn    0.50000   0.29340   0.21760   0.00000  Uiso   1.00
Zn887  Zn    0.50000   0.20660   0.78240   0.00000  Uiso   1.00
Zn888  Zn    0.95660   0.25000   0.71760   0.00000  Uiso   1.00
C889   C     0.21905   0.98876   0.04106   0.00000  Uiso   1.00
C890   C     0.02950   0.73506   0.45863   0.00000  Uiso   1.00
C891   C     0.34804   0.90196   0.75000   0.00000  Uiso   1.00
C892   C     0.40222   0.65164   0.25016   0.00000  Uiso   1.00
C893   C     0.09802   0.84805   0.75000   0.00000  Uiso   1.00
C894   C     0.34810   0.90190   0.25000   0.00000  Uiso   1.00
C895   C     0.15196   0.59804   0.75000   0.00000  Uiso   1.00
C896   C     0.09810   0.65190   0.75000   0.00000  Uiso   1.00
C897   C     0.40196   0.84804   0.25000   0.00000  Uiso   1.00
C898   C     0.15191   0.90188   0.75000   0.00000  Uiso   1.00
C899   C     0.34780   0.59834   0.24982   0.00000  Uiso   1.00
C900   C     0.40190   0.84810   0.75000   0.00000  Uiso   1.00
C901   C     0.26581   0.97106   0.54146   0.00000  Uiso   1.00
C902   C     0.09804   0.65196   0.25000   0.00000  Uiso   1.00
C903   C     0.34812   0.59809   0.75000   0.00000  Uiso   1.00
C904   C     0.15167   0.90220   0.25018   0.00000  Uiso   1.00
C905   C     0.24998   0.50021   0.10207   0.00000  Uiso   1.00
C906   C     0.25003   0.50011   0.89768   0.00000  Uiso   1.00
C907   C     0.49997   0.74998   0.10224   0.00000  Uiso   1.00
C908   C     0.49998   0.75001   0.89786   0.00000  Uiso   1.00
C909   C     0.49999   0.75002   0.60215   0.00000  Uiso   1.00
C910   C     0.00002   0.75003   0.39776   0.00000  Uiso   1.00
C911   C     0.24988   0.99997   0.60232   0.00000  Uiso   1.00
C912   C     0.26121   0.53096   0.45894   0.00000  Uiso   1.00
C913   C     0.24979   0.50002   0.39793   0.00000  Uiso   1.00
C914   C     0.17789   0.89018   0.16548   0.00000  Uiso   1.00
C915   C     0.32355   0.60823   0.83542   0.00000  Uiso   1.00
C916   C     0.10863   0.68145   0.16819   0.00000  Uiso   1.00
C917   C     0.39160   0.82339   0.83533   0.00000  Uiso   1.00
C918   C     0.31849   0.60885   0.16806   0.00000  Uiso   1.00
C919   C     0.17658   0.89181   0.83540   0.00000  Uiso   1.00
C920   C     0.39156   0.81882   0.16799   0.00000  Uiso   1.00
C921   C     0.10848   0.67668   0.83533   0.00000  Uiso   1.00
C922   C     0.18086   0.60832   0.83217   0.00000  Uiso   1.00
C923   C     0.03029   0.76325   0.54126   0.00000  Uiso   1.00
C924   C     0.32287   0.89097   0.16491   0.00000  Uiso   1.00
C925   C     0.10824   0.81935   0.83226   0.00000  Uiso   1.00
C926   C     0.39086   0.67750   0.16517   0.00000  Uiso   1.00
C927   C     0.31923   0.89176   0.83218   0.00000  Uiso   1.00
C928   C     0.17741   0.60930   0.16510   0.00000  Uiso   1.00
C929   C     0.39181   0.68076   0.83224   0.00000  Uiso   1.00
C930   C     0.10897   0.81810   0.16838   0.00000  Uiso   1.00
C931   C     0.43065   0.64177   0.66774   0.00000  Uiso   1.00
C932   C     0.07241   0.85925   0.33478   0.00000  Uiso   1.00
C933   C     0.35825   0.93077   0.66782   0.00000  Uiso   1.00
C934   C     0.47053   0.76500   0.45861   0.00000  Uiso   1.00
C935   C     0.14067   0.57258   0.33489   0.00000  Uiso   1.00
C936   C     0.06924   0.85819   0.66776   0.00000  Uiso   1.00
C937   C     0.43186   0.64105   0.33165   0.00000  Uiso   1.00
C938   C     0.14168   0.56915   0.66782   0.00000  Uiso   1.00
C939   C     0.35903   0.92713   0.33508   0.00000  Uiso   1.00
C940   C     0.43118   0.85844   0.33201   0.00000  Uiso   1.00
C941   C     0.07332   0.64152   0.66466   0.00000  Uiso   1.00
C942   C     0.35977   0.57216   0.33455   0.00000  Uiso   1.00
C943   C     0.14176   0.92646   0.66458   0.00000  Uiso   1.00
C944   C     0.06855   0.64139   0.33181   0.00000  Uiso   1.00
C945   C     0.23361   0.52883   0.54155   0.00000  Uiso   1.00
C946   C     0.42660   0.85839   0.66466   0.00000  Uiso   1.00
C947   C     0.14117   0.93157   0.33190   0.00000  Uiso   1.00
C948   C     0.35819   0.57342   0.66460   0.00000  Uiso   1.00
C949   C     0.15931   0.50121   0.09756   0.00000  Uiso   1.00
C950   C     0.34001   0.98634   0.90238   0.00000  Uiso   1.00
C951   C     0.01030   0.65964   0.09765   0.00000  Uiso   1.00
C952   C     0.00437   0.84071   0.90235   0.00000  Uiso   1.00
C953   C     0.34071   0.99973   0.09773   0.00000  Uiso   1.00
C954   C     0.16006   0.51394   0.90229   0.00000  Uiso   1.00
C955   C     0.48949   0.84035   0.09771   0.00000  Uiso   1.00
C956   C     0.23808   0.96905   0.45881   0.00000  Uiso   1.00
C957   C     0.49555   0.65931   0.90224   0.00000  Uiso   1.00
C958   C     0.40930   0.74547   0.59765   0.00000  Uiso   1.00
C959   C     0.09038   0.73984   0.40235   0.00000  Uiso   1.00
C960   C     0.26369   0.91000   0.59762   0.00000  Uiso   1.00
C961   C     0.24872   0.59068   0.40243   0.00000  Uiso   1.00
C962   C     0.09068   0.75461   0.59776   0.00000  Uiso   1.00
C963   C     0.40964   0.76035   0.40229   0.00000  Uiso   1.00
C964   C     0.23602   0.58994   0.59771   0.00000  Uiso   1.00
C965   C     0.25033   0.90929   0.40227   0.00000  Uiso   1.00
C966   C     0.21840   0.98928   0.08146   0.00000  Uiso   1.00
C967   C     0.27962   0.98459   0.91812   0.00000  Uiso   1.00
C968   C     0.01449   0.71987   0.08179   0.00000  Uiso   1.00
C969   C     0.27895   0.98420   0.95854   0.00000  Uiso   1.00
C970   C     0.01263   0.78096   0.91839   0.00000  Uiso   1.00
C971   C     0.28155   0.51131   0.08159   0.00000  Uiso   1.00
C972   C     0.22046   0.51577   0.91804   0.00000  Uiso   1.00
C973   C     0.48543   0.78009   0.08181   0.00000  Uiso   1.00
C974   C     0.48731   0.71906   0.91833   0.00000  Uiso   1.00
C975   C     0.46906   0.73732   0.58162   0.00000  Uiso   1.00
C976   C     0.03016   0.73555   0.41822   0.00000  Uiso   1.00
C977   C     0.26542   0.97039   0.58188   0.00000  Uiso   1.00
C978   C     0.26069   0.53161   0.41854   0.00000  Uiso   1.00
C979   C     0.03092   0.76274   0.58167   0.00000  Uiso   1.00
C980   C     0.01498   0.72053   0.04137   0.00000  Uiso   1.00
C981   C     0.46988   0.76452   0.41819   0.00000  Uiso   1.00
C982   C     0.23422   0.52953   0.58196   0.00000  Uiso   1.00
C983   C     0.23871   0.96845   0.41841   0.00000  Uiso   1.00
C984   C     0.25002   0.50034   0.02097   0.00000  Uiso   1.00
C985   C     0.25006   0.50032   0.97866   0.00000  Uiso   1.00
C986   C     0.49997   0.74999   0.02123   0.00000  Uiso   1.00
C987   C     0.49997   0.75000   0.97892   0.00000  Uiso   1.00
C988   C    -0.00000   0.75002   0.52108   0.00000  Uiso   1.00
C989   C     0.00001   0.75003   0.47877   0.00000  Uiso   1.00
C990   C     0.24967   0.99994   0.52134   0.00000  Uiso   1.00
C991   C     0.01314   0.78033   0.95880   0.00000  Uiso   1.00
C992   C     0.24965   0.99998   0.47903   0.00000  Uiso   1.00
C993   C     0.24995   0.50001   0.35532   0.00000  Uiso   1.00
C994   C     0.24999   0.99999   0.64477   0.00000  Uiso   1.00
C995   C     0.00001   0.75001   0.35526   0.00000  Uiso   1.00
C996   C     0.49999   0.75001   0.64471   0.00000  Uiso   1.00
C997   C     0.49999   0.75001   0.85529   0.00000  Uiso   1.00
C998   C     0.49999   0.74999   0.14474   0.00000  Uiso   1.00
C999   C     0.25001   0.50001   0.85523   0.00000  Uiso   1.00
C1000  C     0.24999   0.50005   0.14468   0.00000  Uiso   1.00
C1001  C     0.17997   0.57003   0.25000   0.00000  Uiso   1.00
C1002  C     0.28094   0.51193   0.04119   0.00000  Uiso   1.00
C1003  C     0.32001   0.92999   0.75000   0.00000  Uiso   1.00
C1004  C     0.43009   0.67988   0.25010   0.00000  Uiso   1.00
C1005  C     0.07000   0.82001   0.75000   0.00000  Uiso   1.00
C1006  C     0.32002   0.92998   0.25000   0.00000  Uiso   1.00
C1007  C     0.17999   0.57001   0.75000   0.00000  Uiso   1.00
C1008  C     0.07012   0.81991   0.24990   0.00000  Uiso   1.00
C1009  C     0.42999   0.68000   0.75000   0.00000  Uiso   1.00
C1010  C     0.17998   0.92997   0.75000   0.00000  Uiso   1.00
C1011  C     0.31991   0.57012   0.24989   0.00000  Uiso   1.00
C1012  C     0.42997   0.82003   0.75000   0.00000  Uiso   1.00
C1013  C     0.22116   0.51637   0.95845   0.00000  Uiso   1.00
C1014  C     0.07001   0.67999   0.25000   0.00000  Uiso   1.00
C1015  C     0.32003   0.57002   0.75000   0.00000  Uiso   1.00
C1016  C     0.17988   0.93009   0.25011   0.00000  Uiso   1.00
C1017  C     0.07002   0.67998   0.75000   0.00000  Uiso   1.00
C1018  C     0.42999   0.82001   0.25000   0.00000  Uiso   1.00
C1019  C     0.13655   0.89050   0.21475   0.00000  Uiso   1.00
C1020  C     0.36400   0.60913   0.78527   0.00000  Uiso   1.00
C1021  C     0.10973   0.63670   0.21460   0.00000  Uiso   1.00
C1022  C     0.39086   0.86394   0.78528   0.00000  Uiso   1.00
C1023  C     0.36324   0.60991   0.21451   0.00000  Uiso   1.00
C1024  C     0.48495   0.77945   0.04140   0.00000  Uiso   1.00
C1025  C     0.13606   0.89089   0.78527   0.00000  Uiso   1.00
C1026  C     0.39038   0.86341   0.21462   0.00000  Uiso   1.00
C1027  C     0.10918   0.63610   0.78528   0.00000  Uiso   1.00
C1028  C     0.13646   0.60949   0.78536   0.00000  Uiso   1.00
C1029  C     0.36374   0.89066   0.21470   0.00000  Uiso   1.00
C1030  C     0.10945   0.86361   0.78536   0.00000  Uiso   1.00
C1031  C     0.39062   0.63643   0.21473   0.00000  Uiso   1.00
C1032  C     0.36358   0.89054   0.78536   0.00000  Uiso   1.00
C1033  C     0.13637   0.60945   0.21468   0.00000  Uiso   1.00
C1034  C     0.39057   0.63644   0.78536   0.00000  Uiso   1.00
C1035  C     0.48680   0.71969   0.95874   0.00000  Uiso   1.00
C1036  C     0.11000   0.86316   0.21453   0.00000  Uiso   1.00
C1037  C     0.38639   0.64055   0.71464   0.00000  Uiso   1.00
C1038  C     0.11354   0.85941   0.28527   0.00000  Uiso   1.00
C1039  C     0.35946   0.88642   0.71464   0.00000  Uiso   1.00
C1040  C     0.14055   0.61363   0.28532   0.00000  Uiso   1.00
C1041  C     0.11356   0.85943   0.71464   0.00000  Uiso   1.00
C1042  C     0.38682   0.64002   0.28547   0.00000  Uiso   1.00
C1043  C     0.14051   0.61354   0.71464   0.00000  Uiso   1.00
C1044  C     0.35934   0.88626   0.28530   0.00000  Uiso   1.00
C1045  C     0.38659   0.85962   0.28538   0.00000  Uiso   1.00
C1046  C     0.46970   0.73681   0.54121   0.00000  Uiso   1.00
C1047  C     0.11391   0.64083   0.71472   0.00000  Uiso   1.00
C1048  C     0.35948   0.61347   0.28525   0.00000  Uiso   1.00
C1049  C     0.14087   0.88600   0.71473   0.00000  Uiso   1.00
C1050  C     0.11330   0.64027   0.28540   0.00000  Uiso   1.00
C1051  C     0.38606   0.85914   0.71472   0.00000  Uiso   1.00
C1052  C     0.14007   0.88678   0.28549   0.00000  Uiso   1.00
C1053  C     0.35911   0.61394   0.71473   0.00000  Uiso   1.00
C1054  C     0.09836   0.84778   0.24984   0.00000  Uiso   1.00
C1055  C     0.40195   0.65198   0.75000   0.00000  Uiso   1.00
C1056  C     0.15190   0.59810   0.25000   0.00000  Uiso   1.00
H1057  H     0.19545   0.97880   0.02533   0.00000  Uiso   1.00
H1058  H     0.05180   0.72247   0.47435   0.00000  Uiso   1.00
H1059  H     0.11399   0.92040   0.65346   0.00000  Uiso   1.00
H1060  H     0.04632   0.65999   0.32246   0.00000  Uiso   1.00
H1061  H     0.06776   0.64020   0.36386   0.00000  Uiso   1.00
H1062  H     0.06286   0.61330   0.32085   0.00000  Uiso   1.00
H1063  H     0.43577   0.84188   0.63956   0.00000  Uiso   1.00
H1064  H     0.44962   0.85924   0.68567   0.00000  Uiso   1.00
H1065  H     0.42060   0.88630   0.65393   0.00000  Uiso   1.00
H1066  H     0.15955   0.95381   0.32210   0.00000  Uiso   1.00
H1067  H     0.14041   0.93261   0.36396   0.00000  Uiso   1.00
H1068  H     0.11290   0.93703   0.32132   0.00000  Uiso   1.00
H1069  H     0.27926   0.94927   0.52573   0.00000  Uiso   1.00
H1070  H     0.35931   0.55045   0.68565   0.00000  Uiso   1.00
H1071  H     0.38598   0.57944   0.65354   0.00000  Uiso   1.00
H1072  H     0.34145   0.56412   0.63971   0.00000  Uiso   1.00
H1073  H     0.16769   0.52889   0.10763   0.00000  Uiso   1.00
H1074  H     0.13655   0.99204   0.11638   0.00000  Uiso   1.00
H1075  H     0.14873   0.50252   0.06746   0.00000  Uiso   1.00
H1076  H     0.33659   0.51538   0.89342   0.00000  Uiso   1.00
H1077  H     0.36076   0.97396   0.88303   0.00000  Uiso   1.00
H1078  H     0.35074   0.98479   0.93241   0.00000  Uiso   1.00
H1079  H     0.48150   0.66426   0.10686   0.00000  Uiso   1.00
H1080  H     0.27115   0.55456   0.47467   0.00000  Uiso   1.00
H1081  H     0.02196   0.63837   0.11689   0.00000  Uiso   1.00
H1082  H     0.01118   0.64887   0.06760   0.00000  Uiso   1.00
H1083  H     0.47610   0.83409   0.89266   0.00000  Uiso   1.00
H1084  H     0.01476   0.86278   0.88333   0.00000  Uiso   1.00
H1085  H     0.00408   0.85145   0.93242   0.00000  Uiso   1.00
H1086  H     0.33252   0.97192   0.10752   0.00000  Uiso   1.00
H1087  H     0.36336   0.50893   0.11670   0.00000  Uiso   1.00
H1088  H     0.35138   0.99870   0.06765   0.00000  Uiso   1.00
H1089  H     0.16347   0.98486   0.89346   0.00000  Uiso   1.00
H1090  H     0.13929   0.52623   0.88287   0.00000  Uiso   1.00
H1091  H     0.05330   0.77450   0.52558   0.00000  Uiso   1.00
H1092  H     0.14934   0.51565   0.93231   0.00000  Uiso   1.00
H1093  H     0.01833   0.83580   0.10686   0.00000  Uiso   1.00
H1094  H     0.47783   0.86158   0.11699   0.00000  Uiso   1.00
H1095  H     0.48850   0.85112   0.06767   0.00000  Uiso   1.00
H1096  H     0.02383   0.66592   0.89262   0.00000  Uiso   1.00
H1097  H     0.48516   0.63725   0.88316   0.00000  Uiso   1.00
H1098  H     0.49580   0.64856   0.93230   0.00000  Uiso   1.00
H1099  H     0.41586   0.77376   0.60733   0.00000  Uiso   1.00
H1100  H     0.38724   0.73505   0.61667   0.00000  Uiso   1.00
H1101  H     0.39856   0.74573   0.56758   0.00000  Uiso   1.00
H1102  H     0.44823   0.77760   0.47431   0.00000  Uiso   1.00
H1103  H     0.08571   0.76863   0.39312   0.00000  Uiso   1.00
H1104  H     0.11166   0.72822   0.38312   0.00000  Uiso   1.00
H1105  H     0.10115   0.73900   0.43240   0.00000  Uiso   1.00
H1106  H     0.23465   0.91340   0.60658   0.00000  Uiso   1.00
H1107  H     0.27609   0.88925   0.61697   0.00000  Uiso   1.00
H1108  H     0.26526   0.89926   0.56759   0.00000  Uiso   1.00
H1109  H     0.22105   0.58229   0.39236   0.00000  Uiso   1.00
H1110  H     0.25786   0.61345   0.38363   0.00000  Uiso   1.00
H1111  H     0.24738   0.60127   0.43254   0.00000  Uiso   1.00
H1112  H     0.08413   0.72630   0.60736   0.00000  Uiso   1.00
H1113  H     0.22010   0.55062   0.52589   0.00000  Uiso   1.00
H1114  H     0.11273   0.76502   0.61684   0.00000  Uiso   1.00
H1115  H     0.10144   0.75438   0.56770   0.00000  Uiso   1.00
H1116  H     0.41424   0.73152   0.39312   0.00000  Uiso   1.00
H1117  H     0.38838   0.77198   0.38301   0.00000  Uiso   1.00
H1118  H     0.39886   0.76129   0.43232   0.00000  Uiso   1.00
H1119  H     0.26510   0.58654   0.60654   0.00000  Uiso   1.00
H1120  H     0.22372   0.61070   0.61713   0.00000  Uiso   1.00
H1121  H     0.23430   0.60065   0.56769   0.00000  Uiso   1.00
H1122  H     0.27813   0.91750   0.39249   0.00000  Uiso   1.00
H1123  H     0.24115   0.88663   0.38330   0.00000  Uiso   1.00
H1124  H     0.22807   0.94545   0.47446   0.00000  Uiso   1.00
H1125  H     0.25136   0.89863   0.43235   0.00000  Uiso   1.00
H1126  H     0.20077   0.89029   0.18668   0.00000  Uiso   1.00
H1127  H     0.18714   0.90570   0.13974   0.00000  Uiso   1.00
H1128  H     0.17210   0.86183   0.15593   0.00000  Uiso   1.00
H1129  H     0.30074   0.97076   0.97427   0.00000  Uiso   1.00
H1130  H     0.31426   0.59148   0.86027   0.00000  Uiso   1.00
H1131  H     0.30057   0.60939   0.81437   0.00000  Uiso   1.00
H1132  H     0.32961   0.63600   0.84655   0.00000  Uiso   1.00
H1133  H     0.09010   0.70370   0.17763   0.00000  Uiso   1.00
H1134  H     0.10974   0.68227   0.13614   0.00000  Uiso   1.00
H1135  H     0.13677   0.68707   0.17907   0.00000  Uiso   1.00
H1136  H     0.40806   0.81426   0.86048   0.00000  Uiso   1.00
H1137  H     0.39082   0.80035   0.81434   0.00000  Uiso   1.00
H1138  H     0.36366   0.82937   0.84599   0.00000  Uiso   1.00
H1139  H     0.29619   0.59063   0.17805   0.00000  Uiso   1.00
H1140  H     0.02760   0.69825   0.02566   0.00000  Uiso   1.00
H1141  H     0.31739   0.60939   0.13601   0.00000  Uiso   1.00
H1142  H     0.31317   0.63721   0.17843   0.00000  Uiso   1.00
H1143  H     0.19954   0.89068   0.81435   0.00000  Uiso   1.00
H1144  H     0.17055   0.86403   0.84648   0.00000  Uiso   1.00
H1145  H     0.18588   0.90856   0.86028   0.00000  Uiso   1.00
H1146  H     0.36342   0.81314   0.17879   0.00000  Uiso   1.00
H1147  H     0.41009   0.79652   0.17733   0.00000  Uiso   1.00
H1148  H     0.39047   0.81814   0.13593   0.00000  Uiso   1.00
H1149  H     0.10922   0.69971   0.81435   0.00000  Uiso   1.00
H1150  H     0.13645   0.67073   0.84597   0.00000  Uiso   1.00
H1151  H     0.02435   0.80336   0.97453   0.00000  Uiso   1.00
H1152  H     0.09207   0.68583   0.86050   0.00000  Uiso   1.00
H1153  H     0.18643   0.63654   0.82157   0.00000  Uiso   1.00
H1154  H     0.20327   0.58995   0.82279   0.00000  Uiso   1.00
H1155  H     0.18144   0.60924   0.86424   0.00000  Uiso   1.00
H1156  H     0.31367   0.90708   0.13955   0.00000  Uiso   1.00
H1157  H     0.29991   0.89053   0.18599   0.00000  Uiso   1.00
H1158  H     0.32876   0.86287   0.15465   0.00000  Uiso   1.00
H1159  H     0.13667   0.81404   0.82215   0.00000  Uiso   1.00
H1160  H     0.09020   0.79683   0.82243   0.00000  Uiso   1.00
H1161  H     0.10862   0.81866   0.86433   0.00000  Uiso   1.00
H1162  H     0.30454   0.52196   0.02554   0.00000  Uiso   1.00
H1163  H     0.40736   0.68722   0.14031   0.00000  Uiso   1.00
H1164  H     0.38976   0.70019   0.18659   0.00000  Uiso   1.00
H1165  H     0.36303   0.67145   0.15421   0.00000  Uiso   1.00
H1166  H     0.29680   0.91010   0.82278   0.00000  Uiso   1.00
H1167  H     0.31867   0.89089   0.86424   0.00000  Uiso   1.00
H1168  H     0.31366   0.86351   0.82159   0.00000  Uiso   1.00
H1169  H     0.18675   0.59325   0.13975   0.00000  Uiso   1.00
H1170  H     0.20028   0.60975   0.18631   0.00000  Uiso   1.00
H1171  H     0.17152   0.63741   0.15488   0.00000  Uiso   1.00
H1172  H     0.40981   0.70328   0.82237   0.00000  Uiso   1.00
H1173  H     0.19937   0.52987   0.97411   0.00000  Uiso   1.00
H1174  H     0.39149   0.68152   0.86431   0.00000  Uiso   1.00
H1175  H     0.36335   0.68603   0.82216   0.00000  Uiso   1.00
H1176  H     0.09011   0.79605   0.17763   0.00000  Uiso   1.00
H1177  H     0.13691   0.81227   0.17970   0.00000  Uiso   1.00
H1178  H     0.11050   0.81712   0.13636   0.00000  Uiso   1.00
H1179  H     0.43597   0.61333   0.67786   0.00000  Uiso   1.00
H1180  H     0.45317   0.65981   0.67756   0.00000  Uiso   1.00
H1181  H     0.43134   0.64138   0.63567   0.00000  Uiso   1.00
H1182  H     0.06288   0.84300   0.35990   0.00000  Uiso   1.00
H1183  H     0.04965   0.85996   0.31344   0.00000  Uiso   1.00
H1184  H     0.47231   0.80172   0.02569   0.00000  Uiso   1.00
H1185  H     0.07836   0.88725   0.34533   0.00000  Uiso   1.00
H1186  H     0.33994   0.95321   0.67726   0.00000  Uiso   1.00
H1187  H     0.35908   0.93134   0.63576   0.00000  Uiso   1.00
H1188  H     0.38652   0.93631   0.67837   0.00000  Uiso   1.00
H1189  H     0.15662   0.56333   0.36035   0.00000  Uiso   1.00
H1190  H     0.14039   0.54966   0.31372   0.00000  Uiso   1.00
H1191  H     0.11249   0.57841   0.34493   0.00000  Uiso   1.00
H1192  H     0.04672   0.84018   0.67762   0.00000  Uiso   1.00
H1193  H     0.06849   0.85851   0.63568   0.00000  Uiso   1.00
H1194  H     0.06396   0.88665   0.67784   0.00000  Uiso   1.00
H1195  H     0.47559   0.69666   0.97442   0.00000  Uiso   1.00
H1196  H     0.45392   0.65987   0.32235   0.00000  Uiso   1.00
H1197  H     0.43765   0.61308   0.32040   0.00000  Uiso   1.00
H1198  H     0.43284   0.63960   0.36368   0.00000  Uiso   1.00
H1199  H     0.11345   0.56358   0.67842   0.00000  Uiso   1.00
H1200  H     0.16004   0.54673   0.67722   0.00000  Uiso   1.00
H1201  H     0.14077   0.56856   0.63576   0.00000  Uiso   1.00
H1202  H     0.35947   0.95009   0.31401   0.00000  Uiso   1.00
H1203  H     0.38713   0.92124   0.34534   0.00000  Uiso   1.00
H1204  H     0.34293   0.93634   0.36045   0.00000  Uiso   1.00
H1205  H     0.43686   0.88658   0.32121   0.00000  Uiso   1.00
H1206  H     0.44668   0.72556   0.52548   0.00000  Uiso   1.00
H1207  H     0.45348   0.83991   0.32266   0.00000  Uiso   1.00
H1208  H     0.43187   0.85952   0.36406   0.00000  Uiso   1.00
H1209  H     0.05029   0.64077   0.68565   0.00000  Uiso   1.00
H1210  H     0.07928   0.61357   0.65401   0.00000  Uiso   1.00
H1211  H     0.06417   0.65795   0.63951   0.00000  Uiso   1.00
H1212  H     0.35980   0.54930   0.31332   0.00000  Uiso   1.00
H1213  H     0.34415   0.56285   0.36020   0.00000  Uiso   1.00
H1214  H     0.38806   0.57800   0.34425   0.00000  Uiso   1.00
H1215  H     0.15851   0.93574   0.63972   0.00000  Uiso   1.00
H1216  H     0.14061   0.94944   0.68563   0.00000  Uiso   1.00
O1217  O     0.25000   0.50000   0.25000   0.00000  Uiso   1.00
O1218  O     0.25000   0.96964   0.66317   0.00000  Uiso   1.00
O1219  O     0.22515   0.93830   0.39894   0.00000  Uiso   1.00
O1220  O     0.46964   0.75000   0.33683   0.00000  Uiso   1.00
O1221  O     0.03036   0.75000   0.66317   0.00000  Uiso   1.00
O1222  O     0.00000   0.71964   0.83683   0.00000  Uiso   1.00
O1223  O     0.00000   0.78036   0.16317   0.00000  Uiso   1.00
O1224  O     0.28036   0.50000   0.83683   0.00000  Uiso   1.00
O1225  O     0.21964   0.50000   0.16317   0.00000  Uiso   1.00
O1226  O     0.00000   0.78036   0.83683   0.00000  Uiso   1.00
O1227  O     0.00000   0.71964   0.16317   0.00000  Uiso   1.00
O1228  O     0.21964   0.50000   0.83683   0.00000  Uiso   1.00
O1229  O     0.25000   0.50000   0.75000   0.00000  Uiso   1.00
O1230  O     0.28036   0.50000   0.16317   0.00000  Uiso   1.00
O1231  O     0.20726   0.57307   0.27282   0.00000  Uiso   1.00
O1232  O     0.29275   0.92693   0.72718   0.00000  Uiso   1.00
O1233  O     0.42693   0.70726   0.27282   0.00000  Uiso   1.00
O1234  O     0.07307   0.79275   0.72718   0.00000  Uiso   1.00
O1235  O     0.29275   0.92693   0.27282   0.00000  Uiso   1.00
O1236  O     0.20726   0.57307   0.72718   0.00000  Uiso   1.00
O1237  O     0.07307   0.79275   0.27282   0.00000  Uiso   1.00
O1238  O     0.42693   0.70726   0.72718   0.00000  Uiso   1.00
O1239  O     0.20726   0.92693   0.72718   0.00000  Uiso   1.00
O1240  O     0.00000   0.75000   0.25000   0.00000  Uiso   1.00
O1241  O     0.29275   0.57307   0.27282   0.00000  Uiso   1.00
O1242  O     0.42693   0.79275   0.72718   0.00000  Uiso   1.00
O1243  O     0.07307   0.70726   0.27282   0.00000  Uiso   1.00
O1244  O     0.29275   0.57307   0.72718   0.00000  Uiso   1.00
O1245  O     0.20726   0.92693   0.27282   0.00000  Uiso   1.00
O1246  O     0.07307   0.70726   0.72718   0.00000  Uiso   1.00
O1247  O     0.42693   0.79275   0.27282   0.00000  Uiso   1.00
O1248  O     0.45726   0.82307   0.77282   0.00000  Uiso   1.00
O1249  O     0.04275   0.67693   0.22718   0.00000  Uiso   1.00
O1250  O     0.17693   0.95726   0.77282   0.00000  Uiso   1.00
O1251  O     0.00000   0.75000   0.75000   0.00000  Uiso   1.00
O1252  O     0.32307   0.54275   0.22718   0.00000  Uiso   1.00
O1253  O     0.04275   0.67693   0.77282   0.00000  Uiso   1.00
O1254  O     0.45726   0.82307   0.22718   0.00000  Uiso   1.00
O1255  O     0.32307   0.54275   0.77282   0.00000  Uiso   1.00
O1256  O     0.17693   0.95726   0.22718   0.00000  Uiso   1.00
O1257  O     0.45726   0.67693   0.22718   0.00000  Uiso   1.00
O1258  O     0.04275   0.82307   0.77282   0.00000  Uiso   1.00
O1259  O     0.17693   0.54275   0.22718   0.00000  Uiso   1.00
O1260  O     0.32307   0.95726   0.77282   0.00000  Uiso   1.00
O1261  O     0.04275   0.82307   0.22718   0.00000  Uiso   1.00
O1262  O     0.25000   0.96964   0.33683   0.00000  Uiso   1.00
O1263  O     0.45726   0.67693   0.77282   0.00000  Uiso   1.00
O1264  O     0.32307   0.95726   0.22718   0.00000  Uiso   1.00
O1265  O     0.17693   0.54275   0.77282   0.00000  Uiso   1.00
O1266  O     0.14616   0.90708   0.18021   0.00000  Uiso   1.00
O1267  O     0.35516   0.59191   0.81970   0.00000  Uiso   1.00
O1268  O     0.09453   0.64710   0.17955   0.00000  Uiso   1.00
O1269  O     0.40801   0.85500   0.81973   0.00000  Uiso   1.00
O1270  O     0.35286   0.59477   0.17941   0.00000  Uiso   1.00
O1271  O     0.14495   0.90813   0.81970   0.00000  Uiso   1.00
O1272  O     0.40567   0.85311   0.17959   0.00000  Uiso   1.00
O1273  O     0.25000   0.53036   0.66317   0.00000  Uiso   1.00
O1274  O     0.09205   0.64506   0.81973   0.00000  Uiso   1.00
O1275  O     0.14666   0.59411   0.82038   0.00000  Uiso   1.00
O1276  O     0.35455   0.90757   0.18020   0.00000  Uiso   1.00
O1277  O     0.09401   0.85349   0.82037   0.00000  Uiso   1.00
O1278  O     0.40747   0.64577   0.18026   0.00000  Uiso   1.00
O1279  O     0.35340   0.90596   0.82038   0.00000  Uiso   1.00
O1280  O     0.14569   0.59265   0.18015   0.00000  Uiso   1.00
O1281  O     0.40603   0.64661   0.82037   0.00000  Uiso   1.00
O1282  O     0.09502   0.85262   0.17941   0.00000  Uiso   1.00
O1283  O     0.39651   0.65599   0.67963   0.00000  Uiso   1.00
O1284  O     0.03036   0.75000   0.33683   0.00000  Uiso   1.00
O1285  O     0.10416   0.84261   0.31976   0.00000  Uiso   1.00
O1286  O     0.34404   0.89660   0.67962   0.00000  Uiso   1.00
O1287  O     0.15734   0.60430   0.31986   0.00000  Uiso   1.00
O1288  O     0.10339   0.84397   0.67963   0.00000  Uiso   1.00
O1289  O     0.39734   0.65501   0.32059   0.00000  Uiso   1.00
O1290  O     0.15589   0.60334   0.67962   0.00000  Uiso   1.00
O1291  O     0.34243   0.89546   0.31980   0.00000  Uiso   1.00
O1292  O     0.39689   0.84433   0.32041   0.00000  Uiso   1.00
O1293  O     0.10494   0.65795   0.68027   0.00000  Uiso   1.00
O1294  O     0.34288   0.60388   0.31978   0.00000  Uiso   1.00
O1295  O     0.46964   0.75000   0.66317   0.00000  Uiso   1.00
O1296  O     0.15809   0.89484   0.68030   0.00000  Uiso   1.00
O1297  O     0.10291   0.65547   0.32045   0.00000  Uiso   1.00
O1298  O     0.39499   0.84198   0.68027   0.00000  Uiso   1.00
O1299  O     0.15520   0.89717   0.32059   0.00000  Uiso   1.00
O1300  O     0.34188   0.60505   0.68030   0.00000  Uiso   1.00
O1301  O     0.18815   0.97582   0.10079   0.00000  Uiso   1.00
O1302  O     0.30718   0.96649   0.89850   0.00000  Uiso   1.00
O1303  O     0.03153   0.69162   0.10137   0.00000  Uiso   1.00
O1304  O     0.02783   0.81030   0.89893   0.00000  Uiso   1.00
O1305  O     0.31168   0.52489   0.10106   0.00000  Uiso   1.00
O1306  O     0.25000   0.53036   0.33683   0.00000  Uiso   1.00
O1307  O     0.19289   0.53377   0.89833   0.00000  Uiso   1.00
O1308  O     0.46836   0.80832   0.10142   0.00000  Uiso   1.00
O1309  O     0.47210   0.68973   0.89881   0.00000  Uiso   1.00
O1310  O     0.43975   0.72207   0.60108   0.00000  Uiso   1.00
O1311  O     0.05843   0.71856   0.39863   0.00000  Uiso   1.00
O1312  O     0.28353   0.94284   0.60150   0.00000  Uiso   1.00
O1313  O     0.27413   0.56187   0.39922   0.00000  Uiso   1.00
O1314  O     0.06022   0.77799   0.60119   0.00000  Uiso   1.00
O1315  O     0.44163   0.78155   0.39858   0.00000  Uiso   1.00
O1316  O     0.21620   0.55710   0.60167   0.00000  Uiso   1.00
Zn1317 Zn    0.20660   0.50000   0.21760   0.00000  Uiso   1.00
Zn1318 Zn    0.04340   0.75000   0.28240   0.00000  Uiso   1.00
Zn1319 Zn    0.25000   0.95660   0.71760   0.00000  Uiso   1.00
Zn1320 Zn    0.25000   0.54340   0.28240   0.00000  Uiso   1.00
Zn1321 Zn    0.04340   0.75000   0.71760   0.00000  Uiso   1.00
Zn1322 Zn    0.45660   0.75000   0.28240   0.00000  Uiso   1.00
Zn1323 Zn    0.25000   0.54340   0.71760   0.00000  Uiso   1.00
Zn1324 Zn    0.25000   0.95660   0.28240   0.00000  Uiso   1.00
Zn1325 Zn    0.29340   0.50000   0.78240   0.00000  Uiso   1.00
Zn1326 Zn    0.00000   0.70660   0.21760   0.00000  Uiso   1.00
Zn1327 Zn    0.00000   0.79340   0.78240   0.00000  Uiso   1.00
Zn1328 Zn    0.29340   0.50000   0.21760   0.00000  Uiso   1.00
Zn1329 Zn    0.20660   0.50000   0.78240   0.00000  Uiso   1.00
Zn1330 Zn    0.00000   0.79340   0.21760   0.00000  Uiso   1.00
Zn1331 Zn    0.00000   0.70660   0.78240   0.00000  Uiso   1.00
Zn1332 Zn    0.45660   0.75000   0.71760   0.00000  Uiso   1.00
C1333  C     0.71905   0.98876   0.04106   0.00000  Uiso   1.00
C1334  C     0.52950   0.73506   0.45863   0.00000  Uiso   1.00
C1335  C     0.84804   0.90196   0.75000   0.00000  Uiso   1.00
C1336  C     0.90222   0.65164   0.25016   0.00000  Uiso   1.00
C1337  C     0.59802   0.84805   0.75000   0.00000  Uiso   1.00
C1338  C     0.84810   0.90190   0.25000   0.00000  Uiso   1.00
C1339  C     0.65196   0.59804   0.75000   0.00000  Uiso   1.00
C1340  C     0.59810   0.65190   0.75000   0.00000  Uiso   1.00
C1341  C     0.90196   0.84804   0.25000   0.00000  Uiso   1.00
C1342  C     0.65191   0.90188   0.75000   0.00000  Uiso   1.00
C1343  C     0.84780   0.59834   0.24982   0.00000  Uiso   1.00
C1344  C     0.90190   0.84810   0.75000   0.00000  Uiso   1.00
C1345  C     0.76581   0.97106   0.54146   0.00000  Uiso   1.00
C1346  C     0.59804   0.65196   0.25000   0.00000  Uiso   1.00
C1347  C     0.84812   0.59809   0.75000   0.00000  Uiso   1.00
C1348  C     0.65167   0.90220   0.25018   0.00000  Uiso   1.00
C1349  C     0.74998   0.50021   0.10207   0.00000  Uiso   1.00
C1350  C     0.75003   0.50011   0.89768   0.00000  Uiso   1.00
C1351  C     0.99997   0.74998   0.10224   0.00000  Uiso   1.00
C1352  C     0.99998   0.75001   0.89786   0.00000  Uiso   1.00
C1353  C     0.99999   0.75002   0.60215   0.00000  Uiso   1.00
C1354  C     0.50002   0.75003   0.39776   0.00000  Uiso   1.00
C1355  C     0.74988   0.99997   0.60232   0.00000  Uiso   1.00
C1356  C     0.76121   0.53096   0.45894   0.00000  Uiso   1.00
C1357  C     0.74979   0.50002   0.39793   0.00000  Uiso   1.00
C1358  C     0.67789   0.89018   0.16548   0.00000  Uiso   1.00
C1359  C     0.82355   0.60823   0.83542   0.00000  Uiso   1.00
C1360  C     0.60863   0.68145   0.16819   0.00000  Uiso   1.00
C1361  C     0.89160   0.82339   0.83533   0.00000  Uiso   1.00
C1362  C     0.81849   0.60885   0.16806   0.00000  Uiso   1.00
C1363  C     0.67658   0.89181   0.83540   0.00000  Uiso   1.00
C1364  C     0.89156   0.81882   0.16799   0.00000  Uiso   1.00
C1365  C     0.60848   0.67668   0.83533   0.00000  Uiso   1.00
C1366  C     0.68086   0.60832   0.83217   0.00000  Uiso   1.00
C1367  C     0.53029   0.76325   0.54126   0.00000  Uiso   1.00
C1368  C     0.82287   0.89097   0.16491   0.00000  Uiso   1.00
C1369  C     0.60824   0.81935   0.83226   0.00000  Uiso   1.00
C1370  C     0.89086   0.67750   0.16517   0.00000  Uiso   1.00
C1371  C     0.81923   0.89176   0.83218   0.00000  Uiso   1.00
C1372  C     0.67741   0.60930   0.16510   0.00000  Uiso   1.00
C1373  C     0.89181   0.68076   0.83224   0.00000  Uiso   1.00
C1374  C     0.60897   0.81810   0.16838   0.00000  Uiso   1.00
C1375  C     0.93065   0.64177   0.66774   0.00000  Uiso   1.00
C1376  C     0.57241   0.85925   0.33478   0.00000  Uiso   1.00
C1377  C     0.85825   0.93077   0.66782   0.00000  Uiso   1.00
C1378  C     0.97053   0.76500   0.45861   0.00000  Uiso   1.00
C1379  C     0.64067   0.57258   0.33489   0.00000  Uiso   1.00
C1380  C     0.56924   0.85819   0.66776   0.00000  Uiso   1.00
C1381  C     0.93186   0.64105   0.33165   0.00000  Uiso   1.00
C1382  C     0.64168   0.56915   0.66782   0.00000  Uiso   1.00
C1383  C     0.85903   0.92713   0.33508   0.00000  Uiso   1.00
C1384  C     0.93118   0.85844   0.33201   0.00000  Uiso   1.00
C1385  C     0.57332   0.64152   0.66466   0.00000  Uiso   1.00
C1386  C     0.85977   0.57216   0.33455   0.00000  Uiso   1.00
C1387  C     0.64176   0.92646   0.66458   0.00000  Uiso   1.00
C1388  C     0.56855   0.64139   0.33181   0.00000  Uiso   1.00
C1389  C     0.73361   0.52883   0.54155   0.00000  Uiso   1.00
C1390  C     0.92660   0.85839   0.66466   0.00000  Uiso   1.00
C1391  C     0.64117   0.93157   0.33190   0.00000  Uiso   1.00
C1392  C     0.85819   0.57342   0.66460   0.00000  Uiso   1.00
C1393  C     0.65931   0.50121   0.09756   0.00000  Uiso   1.00
C1394  C     0.84001   0.98634   0.90238   0.00000  Uiso   1.00
C1395  C     0.51030   0.65964   0.09765   0.00000  Uiso   1.00
C1396  C     0.50437   0.84071   0.90235   0.00000  Uiso   1.00
C1397  C     0.84071   0.99973   0.09773   0.00000  Uiso   1.00
C1398  C     0.66006   0.51394   0.90229   0.00000  Uiso   1.00
C1399  C     0.98949   0.84035   0.09771   0.00000  Uiso   1.00
C1400  C     0.73808   0.96905   0.45881   0.00000  Uiso   1.00
C1401  C     0.99555   0.65931   0.90224   0.00000  Uiso   1.00
C1402  C     0.90930   0.74547   0.59765   0.00000  Uiso   1.00
C1403  C     0.59038   0.73984   0.40235   0.00000  Uiso   1.00
C1404  C     0.76369   0.91000   0.59762   0.00000  Uiso   1.00
C1405  C     0.74872   0.59068   0.40243   0.00000  Uiso   1.00
C1406  C     0.59068   0.75461   0.59776   0.00000  Uiso   1.00
C1407  C     0.90964   0.76035   0.40229   0.00000  Uiso   1.00
C1408  C     0.73602   0.58994   0.59771   0.00000  Uiso   1.00
C1409  C     0.75033   0.90929   0.40227   0.00000  Uiso   1.00
C1410  C     0.71840   0.98928   0.08146   0.00000  Uiso   1.00
C1411  C     0.77962   0.98459   0.91812   0.00000  Uiso   1.00
C1412  C     0.51449   0.71987   0.08179   0.00000  Uiso   1.00
C1413  C     0.77895   0.98420   0.95854   0.00000  Uiso   1.00
C1414  C     0.51263   0.78096   0.91839   0.00000  Uiso   1.00
C1415  C     0.78155   0.51131   0.08159   0.00000  Uiso   1.00
C1416  C     0.72046   0.51577   0.91804   0.00000  Uiso   1.00
C1417  C     0.98543   0.78009   0.08181   0.00000  Uiso   1.00
C1418  C     0.98731   0.71906   0.91833   0.00000  Uiso   1.00
C1419  C     0.96906   0.73732   0.58162   0.00000  Uiso   1.00
C1420  C     0.53016   0.73555   0.41822   0.00000  Uiso   1.00
C1421  C     0.76542   0.97039   0.58188   0.00000  Uiso   1.00
C1422  C     0.76069   0.53161   0.41854   0.00000  Uiso   1.00
C1423  C     0.53092   0.76274   0.58167   0.00000  Uiso   1.00
C1424  C     0.51498   0.72053   0.04137   0.00000  Uiso   1.00
C1425  C     0.96988   0.76452   0.41819   0.00000  Uiso   1.00
C1426  C     0.73422   0.52953   0.58196   0.00000  Uiso   1.00
C1427  C     0.73871   0.96845   0.41841   0.00000  Uiso   1.00
C1428  C     0.75002   0.50034   0.02097   0.00000  Uiso   1.00
C1429  C     0.75006   0.50032   0.97866   0.00000  Uiso   1.00
C1430  C     0.99997   0.74999   0.02123   0.00000  Uiso   1.00
C1431  C     0.99997   0.75000   0.97892   0.00000  Uiso   1.00
C1432  C     0.50000   0.75002   0.52108   0.00000  Uiso   1.00
C1433  C     0.50001   0.75003   0.47877   0.00000  Uiso   1.00
C1434  C     0.74967   0.99994   0.52134   0.00000  Uiso   1.00
C1435  C     0.51314   0.78033   0.95880   0.00000  Uiso   1.00
C1436  C     0.74965   0.99998   0.47903   0.00000  Uiso   1.00
C1437  C     0.74995   0.50001   0.35532   0.00000  Uiso   1.00
C1438  C     0.74999   0.99999   0.64477   0.00000  Uiso   1.00
C1439  C     0.50001   0.75001   0.35526   0.00000  Uiso   1.00
C1440  C     0.99999   0.75001   0.64471   0.00000  Uiso   1.00
C1441  C     0.99999   0.75001   0.85529   0.00000  Uiso   1.00
C1442  C     0.99999   0.74999   0.14474   0.00000  Uiso   1.00
C1443  C     0.75001   0.50001   0.85523   0.00000  Uiso   1.00
C1444  C     0.74999   0.50005   0.14468   0.00000  Uiso   1.00
C1445  C     0.67997   0.57003   0.25000   0.00000  Uiso   1.00
C1446  C     0.78094   0.51193   0.04119   0.00000  Uiso   1.00
C1447  C     0.82001   0.92999   0.75000   0.00000  Uiso   1.00
C1448  C     0.93009   0.67988   0.25010   0.00000  Uiso   1.00
C1449  C     0.57000   0.82001   0.75000   0.00000  Uiso   1.00
C1450  C     0.82002   0.92998   0.25000   0.00000  Uiso   1.00
C1451  C     0.67999   0.57001   0.75000   0.00000  Uiso   1.00
C1452  C     0.57012   0.81991   0.24990   0.00000  Uiso   1.00
C1453  C     0.92999   0.68000   0.75000   0.00000  Uiso   1.00
C1454  C     0.67998   0.92997   0.75000   0.00000  Uiso   1.00
C1455  C     0.81991   0.57012   0.24989   0.00000  Uiso   1.00
C1456  C     0.92997   0.82003   0.75000   0.00000  Uiso   1.00
C1457  C     0.72116   0.51637   0.95845   0.00000  Uiso   1.00
C1458  C     0.57001   0.67999   0.25000   0.00000  Uiso   1.00
C1459  C     0.82003   0.57002   0.75000   0.00000  Uiso   1.00
C1460  C     0.67988   0.93009   0.25011   0.00000  Uiso   1.00
C1461  C     0.57002   0.67998   0.75000   0.00000  Uiso   1.00
C1462  C     0.92999   0.82001   0.25000   0.00000  Uiso   1.00
C1463  C     0.63655   0.89050   0.21475   0.00000  Uiso   1.00
C1464  C     0.86400   0.60913   0.78527   0.00000  Uiso   1.00
C1465  C     0.60973   0.63670   0.21460   0.00000  Uiso   1.00
C1466  C     0.89086   0.86394   0.78528   0.00000  Uiso   1.00
C1467  C     0.86324   0.60991   0.21451   0.00000  Uiso   1.00
C1468  C     0.98495   0.77945   0.04140   0.00000  Uiso   1.00
C1469  C     0.63606   0.89089   0.78527   0.00000  Uiso   1.00
C1470  C     0.89038   0.86341   0.21462   0.00000  Uiso   1.00
C1471  C     0.60918   0.63610   0.78528   0.00000  Uiso   1.00
C1472  C     0.63646   0.60949   0.78536   0.00000  Uiso   1.00
C1473  C     0.86374   0.89066   0.21470   0.00000  Uiso   1.00
C1474  C     0.60945   0.86361   0.78536   0.00000  Uiso   1.00
C1475  C     0.89062   0.63643   0.21473   0.00000  Uiso   1.00
C1476  C     0.86358   0.89054   0.78536   0.00000  Uiso   1.00
C1477  C     0.63637   0.60945   0.21468   0.00000  Uiso   1.00
C1478  C     0.89057   0.63644   0.78536   0.00000  Uiso   1.00
C1479  C     0.98680   0.71969   0.95874   0.00000  Uiso   1.00
C1480  C     0.61000   0.86316   0.21453   0.00000  Uiso   1.00
C1481  C     0.88639   0.64055   0.71464   0.00000  Uiso   1.00
C1482  C     0.61354   0.85941   0.28527   0.00000  Uiso   1.00
C1483  C     0.85946   0.88642   0.71464   0.00000  Uiso   1.00
C1484  C     0.64055   0.61363   0.28532   0.00000  Uiso   1.00
C1485  C     0.61356   0.85943   0.71464   0.00000  Uiso   1.00
C1486  C     0.88682   0.64002   0.28547   0.00000  Uiso   1.00
C1487  C     0.64051   0.61354   0.71464   0.00000  Uiso   1.00
C1488  C     0.85934   0.88626   0.28530   0.00000  Uiso   1.00
C1489  C     0.88659   0.85962   0.28538   0.00000  Uiso   1.00
C1490  C     0.96970   0.73681   0.54121   0.00000  Uiso   1.00
C1491  C     0.61391   0.64083   0.71472   0.00000  Uiso   1.00
C1492  C     0.85948   0.61347   0.28525   0.00000  Uiso   1.00
C1493  C     0.64087   0.88600   0.71473   0.00000  Uiso   1.00
C1494  C     0.61330   0.64027   0.28540   0.00000  Uiso   1.00
C1495  C     0.88606   0.85914   0.71472   0.00000  Uiso   1.00
C1496  C     0.64007   0.88678   0.28549   0.00000  Uiso   1.00
C1497  C     0.85911   0.61394   0.71473   0.00000  Uiso   1.00
C1498  C     0.59836   0.84778   0.24984   0.00000  Uiso   1.00
C1499  C     0.90195   0.65198   0.75000   0.00000  Uiso   1.00
C1500  C     0.65190   0.59810   0.25000   0.00000  Uiso   1.00
H1501  H     0.69545   0.97880   0.02533   0.00000  Uiso   1.00
H1502  H     0.55180   0.72247   0.47435   0.00000  Uiso   1.00
H1503  H     0.61399   0.92040   0.65346   0.00000  Uiso   1.00
H1504  H     0.54632   0.65999   0.32246   0.00000  Uiso   1.00
H1505  H     0.56776   0.64020   0.36386   0.00000  Uiso   1.00
H1506  H     0.56286   0.61330   0.32085   0.00000  Uiso   1.00
H1507  H     0.93577   0.84188   0.63956   0.00000  Uiso   1.00
H1508  H     0.94962   0.85924   0.68567   0.00000  Uiso   1.00
H1509  H     0.92060   0.88630   0.65393   0.00000  Uiso   1.00
H1510  H     0.65955   0.95381   0.32210   0.00000  Uiso   1.00
H1511  H     0.64041   0.93261   0.36396   0.00000  Uiso   1.00
H1512  H     0.61290   0.93703   0.32132   0.00000  Uiso   1.00
H1513  H     0.77926   0.94927   0.52573   0.00000  Uiso   1.00
H1514  H     0.85931   0.55045   0.68565   0.00000  Uiso   1.00
H1515  H     0.88598   0.57944   0.65354   0.00000  Uiso   1.00
H1516  H     0.84145   0.56412   0.63971   0.00000  Uiso   1.00
H1517  H     0.66769   0.52889   0.10763   0.00000  Uiso   1.00
H1518  H     0.63655   0.99204   0.11638   0.00000  Uiso   1.00
H1519  H     0.64873   0.50252   0.06746   0.00000  Uiso   1.00
H1520  H     0.83659   0.51538   0.89342   0.00000  Uiso   1.00
H1521  H     0.86076   0.97396   0.88303   0.00000  Uiso   1.00
H1522  H     0.85074   0.98479   0.93241   0.00000  Uiso   1.00
H1523  H     0.98150   0.66426   0.10686   0.00000  Uiso   1.00
H1524  H     0.77115   0.55456   0.47467   0.00000  Uiso   1.00
H1525  H     0.52196   0.63837   0.11689   0.00000  Uiso   1.00
H1526  H     0.51118   0.64887   0.06760   0.00000  Uiso   1.00
H1527  H     0.97610   0.83409   0.89266   0.00000  Uiso   1.00
H1528  H     0.51476   0.86278   0.88333   0.00000  Uiso   1.00
H1529  H     0.50408   0.85145   0.93242   0.00000  Uiso   1.00
H1530  H     0.83252   0.97192   0.10752   0.00000  Uiso   1.00
H1531  H     0.86336   0.50893   0.11670   0.00000  Uiso   1.00
H1532  H     0.85138   0.99870   0.06765   0.00000  Uiso   1.00
H1533  H     0.66347   0.98486   0.89346   0.00000  Uiso   1.00
H1534  H     0.63929   0.52623   0.88287   0.00000  Uiso   1.00
H1535  H     0.55330   0.77450   0.52558   0.00000  Uiso   1.00
H1536  H     0.64934   0.51565   0.93231   0.00000  Uiso   1.00
H1537  H     0.51833   0.83580   0.10686   0.00000  Uiso   1.00
H1538  H     0.97783   0.86158   0.11699   0.00000  Uiso   1.00
H1539  H     0.98850   0.85112   0.06767   0.00000  Uiso   1.00
H1540  H     0.52383   0.66592   0.89262   0.00000  Uiso   1.00
H1541  H     0.98516   0.63725   0.88316   0.00000  Uiso   1.00
H1542  H     0.99580   0.64856   0.93230   0.00000  Uiso   1.00
H1543  H     0.91586   0.77376   0.60733   0.00000  Uiso   1.00
H1544  H     0.88724   0.73505   0.61667   0.00000  Uiso   1.00
H1545  H     0.89856   0.74573   0.56758   0.00000  Uiso   1.00
H1546  H     0.94823   0.77760   0.47431   0.00000  Uiso   1.00
H1547  H     0.58571   0.76863   0.39312   0.00000  Uiso   1.00
H1548  H     0.61166   0.72822   0.38312   0.00000  Uiso   1.00
H1549  H     0.60115   0.73900   0.43240   0.00000  Uiso   1.00
H1550  H     0.73465   0.91340   0.60658   0.00000  Uiso   1.00
H1551  H     0.77609   0.88925   0.61697   0.00000  Uiso   1.00
H1552  H     0.76526   0.89926   0.56759   0.00000  Uiso   1.00
H1553  H     0.72105   0.58229   0.39236   0.00000  Uiso   1.00
H1554  H     0.75786   0.61345   0.38363   0.00000  Uiso   1.00
H1555  H     0.74738   0.60127   0.43254   0.00000  Uiso   1.00
H1556  H     0.58413   0.72630   0.60736   0.00000  Uiso   1.00
H1557  H     0.72010   0.55062   0.52589   0.00000  Uiso   1.00
H1558  H     0.61273   0.76502   0.61684   0.00000  Uiso   1.00
H1559  H     0.60144   0.75438   0.56770   0.00000  Uiso   1.00
H1560  H     0.91424   0.73152   0.39312   0.00000  Uiso   1.00
H1561  H     0.88838   0.77198   0.38301   0.00000  Uiso   1.00
H1562  H     0.89886   0.76129   0.43232   0.00000  Uiso   1.00
H1563  H     0.76510   0.58654   0.60654   0.00000  Uiso   1.00
H1564  H     0.72372   0.61070   0.61713   0.00000  Uiso   1.00
H1565  H     0.73430   0.60065   0.56769   0.00000  Uiso   1.00
H1566  H     0.77813   0.91750   0.39249   0.00000  Uiso   1.00
H1567  H     0.74115   0.88663   0.38330   0.00000  Uiso   1.00
H1568  H     0.72807   0.94545   0.47446   0.00000  Uiso   1.00
H1569  H     0.75136   0.89863   0.43235   0.00000  Uiso   1.00
H1570  H     0.70077   0.89029   0.18668   0.00000  Uiso   1.00
H1571  H     0.68714   0.90570   0.13974   0.00000  Uiso   1.00
H1572  H     0.67210   0.86183   0.15593   0.00000  Uiso   1.00
H1573  H     0.80074   0.97076   0.97427   0.00000  Uiso   1.00
H1574  H     0.81426   0.59148   0.86027   0.00000  Uiso   1.00
H1575  H     0.80057   0.60939   0.81437   0.00000  Uiso   1.00
H1576  H     0.82961   0.63600   0.84655   0.00000  Uiso   1.00
H1577  H     0.59010   0.70370   0.17763   0.00000  Uiso   1.00
H1578  H     0.60974   0.68227   0.13614   0.00000  Uiso   1.00
H1579  H     0.63677   0.68707   0.17907   0.00000  Uiso   1.00
H1580  H     0.90806   0.81426   0.86048   0.00000  Uiso   1.00
H1581  H     0.89082   0.80035   0.81434   0.00000  Uiso   1.00
H1582  H     0.86366   0.82937   0.84599   0.00000  Uiso   1.00
H1583  H     0.79619   0.59063   0.17805   0.00000  Uiso   1.00
H1584  H     0.52760   0.69825   0.02566   0.00000  Uiso   1.00
H1585  H     0.81739   0.60939   0.13601   0.00000  Uiso   1.00
H1586  H     0.81317   0.63721   0.17843   0.00000  Uiso   1.00
H1587  H     0.69954   0.89068   0.81435   0.00000  Uiso   1.00
H1588  H     0.67055   0.86403   0.84648   0.00000  Uiso   1.00
H1589  H     0.68588   0.90856   0.86028   0.00000  Uiso   1.00
H1590  H     0.86342   0.81314   0.17879   0.00000  Uiso   1.00
H1591  H     0.91009   0.79652   0.17733   0.00000  Uiso   1.00
H1592  H     0.89047   0.81814   0.13593   0.00000  Uiso   1.00
H1593  H     0.60922   0.69971   0.81435   0.00000  Uiso   1.00
H1594  H     0.63645   0.67073   0.84597   0.00000  Uiso   1.00
H1595  H     0.52435   0.80336   0.97453   0.00000  Uiso   1.00
H1596  H     0.59207   0.68583   0.86050   0.00000  Uiso   1.00
H1597  H     0.68643   0.63654   0.82157   0.00000  Uiso   1.00
H1598  H     0.70327   0.58995   0.82279   0.00000  Uiso   1.00
H1599  H     0.68144   0.60924   0.86424   0.00000  Uiso   1.00
H1600  H     0.81367   0.90708   0.13955   0.00000  Uiso   1.00
H1601  H     0.79991   0.89053   0.18599   0.00000  Uiso   1.00
H1602  H     0.82876   0.86287   0.15465   0.00000  Uiso   1.00
H1603  H     0.63667   0.81404   0.82215   0.00000  Uiso   1.00
H1604  H     0.59020   0.79683   0.82243   0.00000  Uiso   1.00
H1605  H     0.60862   0.81866   0.86433   0.00000  Uiso   1.00
H1606  H     0.80454   0.52196   0.02554   0.00000  Uiso   1.00
H1607  H     0.90736   0.68722   0.14031   0.00000  Uiso   1.00
H1608  H     0.88976   0.70019   0.18659   0.00000  Uiso   1.00
H1609  H     0.86303   0.67145   0.15421   0.00000  Uiso   1.00
H1610  H     0.79680   0.91010   0.82278   0.00000  Uiso   1.00
H1611  H     0.81867   0.89089   0.86424   0.00000  Uiso   1.00
H1612  H     0.81366   0.86351   0.82159   0.00000  Uiso   1.00
H1613  H     0.68675   0.59325   0.13975   0.00000  Uiso   1.00
H1614  H     0.70028   0.60975   0.18631   0.00000  Uiso   1.00
H1615  H     0.67152   0.63741   0.15488   0.00000  Uiso   1.00
H1616  H     0.90981   0.70328   0.82237   0.00000  Uiso   1.00
H1617  H     0.69937   0.52987   0.97411   0.00000  Uiso   1.00
H1618  H     0.89149   0.68152   0.86431   0.00000  Uiso   1.00
H1619  H     0.86335   0.68603   0.82216   0.00000  Uiso   1.00
H1620  H     0.59011   0.79605   0.17763   0.00000  Uiso   1.00
H1621  H     0.63691   0.81227   0.17970   0.00000  Uiso   1.00
H1622  H     0.61050   0.81712   0.13636   0.00000  Uiso   1.00
H1623  H     0.93597   0.61333   0.67786   0.00000  Uiso   1.00
H1624  H     0.95317   0.65981   0.67756   0.00000  Uiso   1.00
H1625  H     0.93134   0.64138   0.63567   0.00000  Uiso   1.00
H1626  H     0.56288   0.84300   0.35990   0.00000  Uiso   1.00
H1627  H     0.54965   0.85996   0.31344   0.00000  Uiso   1.00
H1628  H     0.97231   0.80172   0.02569   0.00000  Uiso   1.00
H1629  H     0.57836   0.88725   0.34533   0.00000  Uiso   1.00
H1630  H     0.83994   0.95321   0.67726   0.00000  Uiso   1.00
H1631  H     0.85908   0.93134   0.63576   0.00000  Uiso   1.00
H1632  H     0.88652   0.93631   0.67837   0.00000  Uiso   1.00
H1633  H     0.65662   0.56333   0.36035   0.00000  Uiso   1.00
H1634  H     0.64039   0.54966   0.31372   0.00000  Uiso   1.00
H1635  H     0.61249   0.57841   0.34493   0.00000  Uiso   1.00
H1636  H     0.54672   0.84018   0.67762   0.00000  Uiso   1.00
H1637  H     0.56849   0.85851   0.63568   0.00000  Uiso   1.00
H1638  H     0.56396   0.88665   0.67784   0.00000  Uiso   1.00
H1639  H     0.97559   0.69666   0.97442   0.00000  Uiso   1.00
H1640  H     0.95392   0.65987   0.32235   0.00000  Uiso   1.00
H1641  H     0.93765   0.61308   0.32040   0.00000  Uiso   1.00
H1642  H     0.93284   0.63960   0.36368   0.00000  Uiso   1.00
H1643  H     0.61345   0.56358   0.67842   0.00000  Uiso   1.00
H1644  H     0.66004   0.54673   0.67722   0.00000  Uiso   1.00
H1645  H     0.64077   0.56856   0.63576   0.00000  Uiso   1.00
H1646  H     0.85947   0.95009   0.31401   0.00000  Uiso   1.00
H1647  H     0.88713   0.92124   0.34534   0.00000  Uiso   1.00
H1648  H     0.84293   0.93634   0.36045   0.00000  Uiso   1.00
H1649  H     0.93686   0.88658   0.32121   0.00000  Uiso   1.00
H1650  H     0.94668   0.72556   0.52548   0.00000  Uiso   1.00
H1651  H     0.95348   0.83991   0.32266   0.00000  Uiso   1.00
H1652  H     0.93187   0.85952   0.36406   0.00000  Uiso   1.00
H1653  H     0.55029   0.64077   0.68565   0.00000  Uiso   1.00
H1654  H     0.57928   0.61357   0.65401   0.00000  Uiso   1.00
H1655  H     0.56417   0.65795   0.63951   0.00000  Uiso   1.00
H1656  H     0.85980   0.54930   0.31332   0.00000  Uiso   1.00
H1657  H     0.84415   0.56285   0.36020   0.00000  Uiso   1.00
H1658  H     0.88806   0.57800   0.34425   0.00000  Uiso   1.00
H1659  H     0.65851   0.93574   0.63972   0.00000  Uiso   1.00
H1660  H     0.64061   0.94944   0.68563   0.00000  Uiso   1.00
O1661  O     0.75000   0.50000   0.25000   0.00000  Uiso   1.00
O1662  O     0.75000   0.96964   0.66317   0.00000  Uiso   1.00
O1663  O     0.72515   0.93830   0.39894   0.00000  Uiso   1.00
O1664  O     0.96964   0.75000   0.33683   0.00000  Uiso   1.00
O1665  O     0.53036   0.75000   0.66317   0.00000  Uiso   1.00
O1666  O     0.50000   0.71964   0.83683   0.00000  Uiso   1.00
O1667  O     0.50000   0.78036   0.16317   0.00000  Uiso   1.00
O1668  O     0.78036   0.50000   0.83683   0.00000  Uiso   1.00
O1669  O     0.71964   0.50000   0.16317   0.00000  Uiso   1.00
O1670  O     0.50000   0.78036   0.83683   0.00000  Uiso   1.00
O1671  O     0.50000   0.71964   0.16317   0.00000  Uiso   1.00
O1672  O     0.71964   0.50000   0.83683   0.00000  Uiso   1.00
O1673  O     0.75000   0.50000   0.75000   0.00000  Uiso   1.00
O1674  O     0.78036   0.50000   0.16317   0.00000  Uiso   1.00
O1675  O     0.70726   0.57307   0.27282   0.00000  Uiso   1.00
O1676  O     0.79275   0.92693   0.72718   0.00000  Uiso   1.00
O1677  O     0.92693   0.70726   0.27282   0.00000  Uiso   1.00
O1678  O     0.57307   0.79275   0.72718   0.00000  Uiso   1.00
O1679  O     0.79275   0.92693   0.27282   0.00000  Uiso   1.00
O1680  O     0.70726   0.57307   0.72718   0.00000  Uiso   1.00
O1681  O     0.57307   0.79275   0.27282   0.00000  Uiso   1.00
O1682  O     0.92693   0.70726   0.72718   0.00000  Uiso   1.00
O1683  O     0.70726   0.92693   0.72718   0.00000  Uiso   1.00
O1684  O     0.50000   0.75000   0.25000   0.00000  Uiso   1.00
O1685  O     0.79275   0.57307   0.27282   0.00000  Uiso   1.00
O1686  O     0.92693   0.79275   0.72718   0.00000  Uiso   1.00
O1687  O     0.57307   0.70726   0.27282   0.00000  Uiso   1.00
O1688  O     0.79275   0.57307   0.72718   0.00000  Uiso   1.00
O1689  O     0.70726   0.92693   0.27282   0.00000  Uiso   1.00
O1690  O     0.57307   0.70726   0.72718   0.00000  Uiso   1.00
O1691  O     0.92693   0.79275   0.27282   0.00000  Uiso   1.00
O1692  O     0.95726   0.82307   0.77282   0.00000  Uiso   1.00
O1693  O     0.54275   0.67693   0.22718   0.00000  Uiso   1.00
O1694  O     0.67693   0.95726   0.77282   0.00000  Uiso   1.00
O1695  O     0.50000   0.75000   0.75000   0.00000  Uiso   1.00
O1696  O     0.82307   0.54275   0.22718   0.00000  Uiso   1.00
O1697  O     0.54275   0.67693   0.77282   0.00000  Uiso   1.00
O1698  O     0.95726   0.82307   0.22718   0.00000  Uiso   1.00
O1699  O     0.82307   0.54275   0.77282   0.00000  Uiso   1.00
O1700  O     0.67693   0.95726   0.22718   0.00000  Uiso   1.00
O1701  O     0.95726   0.67693   0.22718   0.00000  Uiso   1.00
O1702  O     0.54275   0.82307   0.77282   0.00000  Uiso   1.00
O1703  O     0.67693   0.54275   0.22718   0.00000  Uiso   1.00
O1704  O     0.82307   0.95726   0.77282   0.00000  Uiso   1.00
O1705  O     0.54275   0.82307   0.22718   0.00000  Uiso   1.00
O1706  O     0.75000   0.96964   0.33683   0.00000  Uiso   1.00
O1707  O     0.95726   0.67693   0.77282   0.00000  Uiso   1.00
O1708  O     0.82307   0.95726   0.22718   0.00000  Uiso   1.00
O1709  O     0.67693   0.54275   0.77282   0.00000  Uiso   1.00
O1710  O     0.64616   0.90708   0.18021   0.00000  Uiso   1.00
O1711  O     0.85516   0.59191   0.81970   0.00000  Uiso   1.00
O1712  O     0.59453   0.64710   0.17955   0.00000  Uiso   1.00
O1713  O     0.90801   0.85500   0.81973   0.00000  Uiso   1.00
O1714  O     0.85286   0.59477   0.17941   0.00000  Uiso   1.00
O1715  O     0.64495   0.90813   0.81970   0.00000  Uiso   1.00
O1716  O     0.90567   0.85311   0.17959   0.00000  Uiso   1.00
O1717  O     0.75000   0.53036   0.66317   0.00000  Uiso   1.00
O1718  O     0.59205   0.64506   0.81973   0.00000  Uiso   1.00
O1719  O     0.64666   0.59411   0.82038   0.00000  Uiso   1.00
O1720  O     0.85455   0.90757   0.18020   0.00000  Uiso   1.00
O1721  O     0.59401   0.85349   0.82037   0.00000  Uiso   1.00
O1722  O     0.90747   0.64577   0.18026   0.00000  Uiso   1.00
O1723  O     0.85340   0.90596   0.82038   0.00000  Uiso   1.00
O1724  O     0.64569   0.59265   0.18015   0.00000  Uiso   1.00
O1725  O     0.90603   0.64661   0.82037   0.00000  Uiso   1.00
O1726  O     0.59502   0.85262   0.17941   0.00000  Uiso   1.00
O1727  O     0.89651   0.65599   0.67963   0.00000  Uiso   1.00
O1728  O     0.53036   0.75000   0.33683   0.00000  Uiso   1.00
O1729  O     0.60416   0.84261   0.31976   0.00000  Uiso   1.00
O1730  O     0.84404   0.89660   0.67962   0.00000  Uiso   1.00
O1731  O     0.65734   0.60430   0.31986   0.00000  Uiso   1.00
O1732  O     0.60339   0.84397   0.67963   0.00000  Uiso   1.00
O1733  O     0.89734   0.65501   0.32059   0.00000  Uiso   1.00
O1734  O     0.65589   0.60334   0.67962   0.00000  Uiso   1.00
O1735  O     0.84243   0.89546   0.31980   0.00000  Uiso   1.00
O1736  O     0.89689   0.84433   0.32041   0.00000  Uiso   1.00
O1737  O     0.60494   0.65795   0.68027   0.00000  Uiso   1.00
O1738  O     0.84288   0.60388   0.31978   0.00000  Uiso   1.00
O1739  O     0.96964   0.75000   0.66317   0.00000  Uiso   1.00
O1740  O     0.65809   0.89484   0.68030   0.00000  Uiso   1.00
O1741  O     0.60291   0.65547   0.32045   0.00000  Uiso   1.00
O1742  O     0.89499   0.84198   0.68027   0.00000  Uiso   1.00
O1743  O     0.65520   0.89717   0.32059   0.00000  Uiso   1.00
O1744  O     0.84188   0.60505   0.68030   0.00000  Uiso   1.00
O1745  O     0.68815   0.97582   0.10079   0.00000  Uiso   1.00
O1746  O     0.80718   0.96649   0.89850   0.00000  Uiso   1.00
O1747  O     0.53153   0.69162   0.10137   0.00000  Uiso   1.00
O1748  O     0.52783   0.81030   0.89893   0.00000  Uiso   1.00
O1749  O     0.81168   0.52489   0.10106   0.00000  Uiso   1.00
O1750  O     0.75000   0.53036   0.33683   0.00000  Uiso   1.00
O1751  O     0.69289   0.53377   0.89833   0.00000  Uiso   1.00
O1752  O     0.96836   0.80832   0.10142   0.00000  Uiso   1.00
O1753  O     0.97210   0.68973   0.89881   0.00000  Uiso   1.00
O1754  O     0.93975   0.72207   0.60108   0.00000  Uiso   1.00
O1755  O     0.55843   0.71856   0.39863   0.00000  Uiso   1.00
O1756  O     0.78353   0.94284   0.60150   0.00000  Uiso   1.00
O1757  O     0.77413   0.56187   0.39922   0.00000  Uiso   1.00
O1758  O     0.56022   0.77799   0.60119   0.00000  Uiso   1.00
O1759  O     0.94163   0.78155   0.39858   0.00000  Uiso   1.00
O1760  O     0.71620   0.55710   0.60167   0.00000  Uiso   1.00
Zn1761 Zn    0.70660   0.50000   0.21760   0.00000  Uiso   1.00
Zn1762 Zn    0.54340   0.75000   0.28240   0.00000  Uiso   1.00
Zn1763 Zn    0.75000   0.95660   0.71760   0.00000  Uiso   1.00
Zn1764 Zn    0.75000   0.54340   0.28240   0.00000  Uiso   1.00
Zn1765 Zn    0.54340   0.75000   0.71760   0.00000  Uiso   1.00
Zn1766 Zn    0.95660   0.75000   0.28240   0.00000  Uiso   1.00
Zn1767 Zn    0.75000   0.54340   0.71760   0.00000  Uiso   1.00
Zn1768 Zn    0.75000   0.95660   0.28240   0.00000  Uiso   1.00
Zn1769 Zn    0.79340   0.50000   0.78240   0.00000  Uiso   1.00
Zn1770 Zn    0.50000   0.70660   0.21760   0.00000  Uiso   1.00
Zn1771 Zn    0.50000   0.79340   0.78240   0.00000  Uiso   1.00
Zn1772 Zn    0.79340   0.50000   0.21760   0.00000  Uiso   1.00
Zn1773 Zn    0.70660   0.50000   0.78240   0.00000  Uiso   1.00
Zn1774 Zn    0.50000   0.79340   0.21760   0.00000  Uiso   1.00
Zn1775 Zn    0.50000   0.70660   0.78240   0.00000  Uiso   1.00
Zn1776 Zn    0.95660   0.75000   0.71760   0.00000  Uiso   1.00
loop_
_geom_bond_atom_site_label_1
_geom_bond_atom_site_label_2
_geom_bond_distance
_geom_bond_site_symmetry_2
_ccdc_geom_bond_type
C1     C78     1.397   .     A
C1     H169    1.084   .     S
C1     C984    1.396   .     S
C2     H170    1.084   .     S
C2     C88     1.398   .     A
C2     C101    1.397   .     A
C3     C144    1.412   .     A
C3     C115    1.451   .     S
C3     C151    1.412   .     A
C4     C154    1.411   .     A
C4     C116    1.452   .     S
C4     C143    1.410   .     A
C5     C142    1.412   .     A
C5     C117    1.451   .     S
C5     C153    1.412   .     A
C6     C141    1.410   .     A
C6     C156    1.410   .     A
C6     C118    1.454   .     S
C7     C119    1.451   .     S
C7     C140    1.412   .     A
C7     C155    1.412   .     A
C8     C129    1.454   .     S
C8     C159    1.410   .     A
C8     C139    1.410   .     A
C9     C138    1.412   .     A
C9     C130    1.451   .     S
C9     C157    1.412   .     A
C10    C122    1.454   .     S
C10    C161    1.410   .     A
C10    C137    1.410   .     A
C11    C160    1.410   .     A
C11    C135    1.411   .     A
C11    C123    1.452   .     S
C12    C163    1.410   .     A
C12    C134    1.410   .     A
C12    C124    1.454   .     S
C13    H181    1.083   .     S
C13    C102    1.397   .     A
C13    C89     1.398   .     A
C14    C126    1.451   .     S
C14    C133    1.412   .     A
C14    C162    1.412   .     A
C15    C132    1.410   .     A
C15    C165    1.410   .     A
C15    C127    1.454   .     S
C16    C164    1.411   .     A
C16    C131    1.410   .     A
C16    C128    1.452   .     S
C17    C83     1.415   .     A
C17    C112    1.473   .     S
C17    C966    1.415   1_545 S
C18    C84     1.413   .     A
C18    C111    1.468   .     S
C18    C967    1.413   1_545 S
C19    C85     1.414   .     A
C19    C110    1.469   .     S
C19    C524    1.413   .     S
C20    C86     1.415   .     A
C20    C109    1.472   .     S
C20    C526    1.415   .     S
C21    C108    1.472   .     S
C21    C87     1.415   .     A
C21    C535    1.415   .     S
C22    C107    1.469   .     S
C22    C88     1.414   .     A
C22    C537    1.414   1_455 S
C23    C89     1.413   .     A
C23    C106    1.468   .     S
C23    C982    1.413   .     S
C24    C90     1.397   .     A
C24    H192    1.084   .     S
C24    C992    1.396   1_545 S
C25    C105    1.473   .     S
C25    C90     1.415   .     A
C25    C983    1.415   1_545 S
C26    H239    1.109   .     S
C26    O378    1.411   .     S
C26    H240    1.109   .     S
C26    H238    1.113   .     S
C27    H242    1.109   .     S
C27    H243    1.113   .     S
C27    H244    1.109   .     S
C27    O379    1.411   .     S
C28    H247    1.116   .     S
C28    H246    1.109   .     S
C28    O380    1.415   .     S
C28    H245    1.109   .     S
C29    H249    1.113   .     S
C29    H248    1.109   .     S
C29    O381    1.411   .     S
C29    H250    1.109   .     S
C30    H253    1.109   .     S
C30    H251    1.109   .     S
C30    O382    1.415   .     S
C30    H254    1.115   .     S
C31    H256    1.109   .     S
C31    H257    1.109   .     S
C31    H255    1.113   .     S
C31    O383    1.411   .     S
C32    O384    1.415   .     S
C32    H258    1.116   .     S
C32    H260    1.109   .     S
C32    H259    1.109   .     S
C33    H264    1.109   .     S
C33    H261    1.113   .     S
C33    O386    1.411   .     S
C33    H262    1.109   .     S
C34    H267    1.109   .     S
C34    H265    1.116   .     S
C34    O387    1.415   .     S
C34    H266    1.109   .     S
C35    H203    1.084   .     S
C35    C91     1.397   .     A
C35    C100    1.396   .     S
C36    H268    1.109   .     S
C36    H270    1.109   .     S
C36    O388    1.411   .     S
C36    H269    1.113   .     S
C37    H272    1.109   .     S
C37    H271    1.115   .     S
C37    O389    1.415   .     S
C37    H273    1.109   .     S
C38    H277    1.109   .     S
C38    H275    1.109   .     S
C38    H276    1.113   .     S
C38    O390    1.411   .     S
C39    O391    1.415   .     S
C39    H280    1.116   .     S
C39    H278    1.109   .     S
C39    H279    1.109   .     S
C40    H283    1.109   .     S
C40    O392    1.411   .     S
C40    H282    1.113   .     S
C40    H281    1.109   .     S
C41    O393    1.415   .     S
C41    H287    1.115   .     S
C41    H284    1.109   .     S
C41    H286    1.109   .     S
C42    H290    1.109   .     S
C42    O394    1.415   .     S
C42    H289    1.116   .     S
C42    H288    1.109   .     S
C43    O395    1.415   .     S
C43    H291    1.115   .     S
C43    H292    1.109   .     S
C43    H293    1.109   .     S
C44    H294    1.109   .     S
C44    O397    1.411   .     S
C44    H297    1.109   .     S
C44    H295    1.113   .     S
C45    H298    1.109   .     S
C45    O398    1.415   .     S
C45    H300    1.116   .     S
C45    H299    1.109   .     S
C46    H214    1.084   .     S
C46    C93     1.398   .     A
C46    C545    1.397   .     S
C47    H301    1.109   .     S
C47    H302    1.113   .     S
C47    O399    1.411   .     S
C47    H303    1.109   .     S
C48    O400    1.415   .     S
C48    H305    1.109   .     S
C48    H306    1.115   .     S
C48    H304    1.109   .     S
C49    O401    1.415   .     S
C49    H310    1.109   .     S
C49    H308    1.109   .     S
C49    H309    1.116   .     S
C50    H311    1.116   .     S
C50    H312    1.109   .     S
C50    H313    1.109   .     S
C50    O402    1.415   .     S
C51    H314    1.113   .     S
C51    O403    1.411   .     S
C51    H316    1.109   .     S
C51    H315    1.109   .     S
C52    O404    1.415   .     S
C52    H317    1.116   .     S
C52    H319    1.109   .     S
C52    H320    1.109   .     S
C53    H322    1.109   .     S
C53    H321    1.113   .     S
C53    O405    1.411   .     S
C53    H323    1.109   .     S
C54    H325    1.109   .     S
C54    H326    1.109   .     S
C54    O406    1.411   .     S
C54    H324    1.113   .     S
C55    O408    1.411   .     S
C55    H328    1.113   .     S
C55    H171    1.109   .     S
C55    H327    1.109   .     S
C56    O409    1.415   .     S
C56    H172    1.109   .     S
C56    H173    1.109   .     S
C56    H174    1.116   .     S
C57    H225    1.083   .     S
C57    C94     1.398   .     A
C57    C990    1.397   1_545 S
C58    H175    1.109   .     S
C58    H176    1.113   .     S
C58    O410    1.411   .     S
C58    H177    1.109   .     S
C59    H179    1.109   .     S
C59    O411    1.415   .     S
C59    H178    1.109   .     S
C59    H180    1.115   .     S
C60    H184    1.109   .     S
C60    O412    1.411   .     S
C60    H182    1.113   .     S
C60    H183    1.109   .     S
C61    H185    1.114   .     S
C61    H187    1.112   .     S
C61    H1074   1.109   1_545 S
C61    O1301   1.411   1_545 S
C62    H190    1.112   .     S
C62    O414    1.411   .     S
C62    H189    1.109   .     S
C62    H1076   1.114   .     S
C63    O415    1.411   .     S
C63    H194    1.112   .     S
C63    H193    1.109   .     S
C63    H635    1.114   1_455 S
C64    O416    1.411   .     S
C64    H196    1.109   .     S
C64    H197    1.112   .     S
C64    H639    1.114   1_455 S
C65    H198    1.114   .     S
C65    H200    1.112   .     S
C65    H1087   1.109   .     S
C65    O1305   1.411   .     S
C66    H202    1.109   .     S
C66    O419    1.411   .     S
C66    H204    1.112   .     S
C66    H1089   1.114   1_545 S
C67    O420    1.411   .     S
C67    H207    1.112   .     S
C67    H206    1.109   .     S
C67    H649    1.114   .     S
C68    C95     1.397   .     A
C68    C104    1.396   .     A
C68    H236    1.084   .     S
C69    H209    1.109   .     S
C69    H210    1.112   .     S
C69    O421    1.411   .     S
C69    H652    1.114   .     S
C70    O422    1.411   .     S
C70    H212    1.109   .     S
C70    H213    1.112   .     S
C70    H211    1.114   .     S
C71    H216    1.109   .     S
C71    H215    1.114   .     S
C71    H217    1.112   .     S
C71    O423    1.411   .     S
C72    H218    1.114   .     S
C72    H220    1.112   .     S
C72    H219    1.109   .     S
C72    O424    1.411   .     S
C73    H221    1.114   .     S
C73    O425    1.411   .     S
C73    H223    1.112   .     S
C73    H222    1.109   .     S
C74    H224    1.114   .     S
C74    H226    1.109   .     S
C74    O426    1.411   .     S
C74    H227    1.112   .     S
C75    H229    1.109   .     S
C75    O427    1.411   .     S
C75    H230    1.112   .     S
C75    H228    1.114   .     S
C76    O428    1.411   .     S
C76    H232    1.109   .     S
C76    H231    1.114   .     S
C76    H233    1.112   .     S
C77    H235    1.109   .     S
C77    H234    1.114   .     S
C77    H237    1.112   .     S
C77    O331    1.411   .     S
C78    O413    1.384   .     S
C78    C905    1.415   .     S
C79    C81     1.398   .     A
C79    O414    1.385   .     S
C79    C906    1.413   .     S
C80    C92     1.398   .     A
C80    O415    1.385   .     S
C80    C463    1.413   1_455 S
C81    H241    1.083   .     S
C81    C985    1.397   .     S
C82    O416    1.385   .     S
C82    C103    1.398   .     A
C82    C464    1.415   1_455 S
C83    C114    1.397   .     A
C83    O417    1.384   .     S
C84    C125    1.398   .     A
C84    O419    1.385   .     S
C85    C136    1.398   .     A
C85    O420    1.385   .     S
C86    C147    1.397   .     A
C86    O421    1.385   .     S
C87    O422    1.385   .     S
C87    C158    1.398   .     A
C88    O423    1.385   .     S
C89    O424    1.385   .     S
C90    O425    1.384   .     S
C91    O426    1.385   .     S
C91    C465    1.415   1_455 S
C92    H252    1.084   .     S
C92    C542    1.397   1_455 S
C93    O427    1.385   .     S
C93    C466    1.414   .     S
C94    O428    1.385   .     S
C94    C911    1.413   1_545 S
C95    O331    1.384   .     S
C95    C913    1.415   .     S
C96    C114    1.396   .     A
C96    C889    1.396   1_545 S
C96    C97     1.463   1_554 S
C97    C125    1.397   .     A
C97    C96     1.463   1_556 S
C97    C969    1.397   1_545 S
C98    C136    1.397   .     A
C98    C536    1.397   .     S
C98    C99     1.463   1_554 S
C99    C147    1.396   .     A
C99    C98     1.463   1_556 S
C99    C547    1.396   .     S
C100   C602    1.396   1_455 A
C100   C101    1.463   .     S
C101   C490    1.397   1_455 S
C102   C104    1.463   .     S
C102   C945    1.397   .     S
C103   H263    1.084   .     S
C103   C543    1.396   1_455 S
C104   C912    1.396   .     S
C105   O418    1.282   .     A
C105   O1262   1.282   1_545 S
C106   O330    1.281   .     A
C106   O1273   1.281   .     S
C107   O396    1.281   .     A
C107   O776    1.281   1_455 S
C108   O407    1.282   .     A
C108   O777    1.282   .     S
C109   O778    1.282   .     S
C109   O782    1.282   .     S
C110   O779    1.281   .     S
C110   O783    1.281   .     S
C111   O336    1.281   .     A
C111   O340    1.281   .     A
C112   O337    1.282   .     A
C112   O342    1.282   .     A
C113   C168    1.454   .     S
C113   O343    1.277   .     A
C113   O371    1.277   .     A
C114   H274    1.084   .     S
C115   O344    1.277   .     A
C115   O372    1.277   .     A
C116   O369    1.276   .     A
C116   O345    1.278   .     A
C117   O370    1.277   .     A
C117   O346    1.277   .     A
C118   O347    1.278   .     A
C118   O376    1.278   .     A
C119   O348    1.278   .     A
C119   O377    1.278   .     A
C120   O373    1.278   .     A
C120   C166    1.452   .     S
C120   O349    1.276   .     A
C121   O350    1.277   .     A
C121   O375    1.277   .     A
C121   C167    1.451   .     S
C122   O351    1.278   .     A
C122   O362    1.278   .     A
C123   O353    1.277   .     A
C123   O364    1.278   .     A
C124   O354    1.277   .     A
C124   O360    1.277   .     A
C125   H285    1.083   .     S
C126   O355    1.277   .     A
C126   O361    1.277   .     A
C127   O356    1.278   .     A
C127   O367    1.278   .     A
C128   O357    1.278   .     A
C128   O368    1.277   .     A
C129   O365    1.278   .     A
C129   O358    1.278   .     A
C130   O366    1.277   .     A
C130   O359    1.277   .     A
C131   O378    1.386   .     S
C131   C148    1.395   .     A
C132   O379    1.386   .     S
C132   C146    1.395   .     A
C133   C145    1.395   .     A
C133   O380    1.387   .     S
C134   O381    1.386   .     S
C134   C144    1.395   .     A
C135   O382    1.387   .     S
C135   C143    1.395   .     A
C136   H296    1.084   .     S
C137   C142    1.395   .     A
C137   O383    1.386   .     S
C138   O384    1.387   .     S
C138   C141    1.395   .     A
C139   O386    1.386   .     S
C139   C140    1.395   .     A
C140   O387    1.387   .     S
C141   O388    1.386   .     S
C142   O389    1.387   .     S
C143   O390    1.386   .     S
C144   O391    1.387   .     S
C145   C168    1.410   .     A
C145   O392    1.386   .     S
C146   C167    1.412   .     A
C146   O393    1.387   .     S
C147   H307    1.084   .     S
C148   O394    1.387   .     S
C148   C166    1.411   .     A
C149   C165    1.395   .     A
C149   O395    1.387   .     S
C149   C167    1.412   .     A
C150   C166    1.410   .     A
C150   C164    1.395   .     A
C150   O397    1.386   .     S
C151   O398    1.387   .     S
C151   C163    1.395   .     A
C152   C168    1.410   .     A
C152   O399    1.386   .     S
C152   C162    1.395   .     A
C153   C161    1.395   .     A
C153   O400    1.387   .     S
C154   O401    1.387   .     S
C154   C160    1.395   .     A
C155   O402    1.387   .     S
C155   C159    1.395   .     A
C156   O403    1.386   .     S
C156   C157    1.395   .     A
C157   O404    1.387   .     S
C158   C544    1.396   .     A
C158   H318    1.084   .     S
C159   O405    1.386   .     S
C160   O406    1.386   .     S
C161   O408    1.386   .     S
C162   O409    1.387   .     S
C163   O410    1.386   .     S
C164   O411    1.387   .     S
C165   O412    1.386   .     S
H186   C949    1.109   .     S
H188   C950    1.114   1_545 S
H191   C507    1.114   .     S
H195   C508    1.114   .     S
H199   C953    1.109   1_545 S
H201   C954    1.114   .     S
H205   C511    1.114   1_455 S
H208   C513    1.114   1_455 S
O329   Zn440   1.944   .     S
O329   Zn429   1.944   .     S
O329   Zn432   1.944   .     S
O329   Zn1324  1.944   1_545 S
O330   Zn431   1.942   .     S
O332   Zn434   1.941   .     S
O332   C551    1.281   .     S
O333   Zn433   1.941   .     S
O333   C552    1.282   1_455 S
O334   Zn443   1.941   .     S
O334   C553    1.282   1_455 S
O335   Zn442   1.941   .     S
O335   C554    1.281   1_455 S
O336   Zn437   1.942   .     S
O337   Zn429   1.942   .     S
O338   Zn439   1.942   .     S
O338   C553    1.282   1_455 S
O339   Zn438   1.942   .     S
O339   C554    1.281   1_455 S
O340   Zn441   1.941   .     S
O341   Zn435   1.944   .     S
O341   Zn441   1.944   .     S
O341   Zn437   1.944   .     S
O341   Zn1319  1.944   1_545 S
O342   Zn440   1.941   .     S
O343   Zn432   1.933   .     S
O344   Zn431   1.933   .     S
O345   Zn434   1.933   .     S
O346   Zn433   1.933   .     S
O347   Zn436   1.933   .     S
O348   Zn435   1.933   .     S
O349   Zn430   1.934   .     S
O350   Zn444   1.934   .     S
O351   Zn431   1.934   .     S
O352   Zn430   1.944   .     S
O352   Zn442   1.944   .     S
O352   Zn438   1.944   .     S
O352   Zn878   1.944   1_455 S
O353   Zn432   1.934   .     S
O354   Zn444   1.933   .     S
O355   Zn430   1.933   .     S
O356   Zn435   1.933   .     S
O357   Zn436   1.933   .     S
O358   Zn433   1.933   .     S
O359   Zn434   1.933   .     S
O360   Zn883   1.933   .     S
O361   Zn438   1.933   .     S
O362   Zn1329  1.933   .     S
O363   Zn443   1.944   .     S
O363   Zn439   1.944   .     S
O363   Zn433   1.944   .     S
O363   Zn888   1.944   1_455 S
O364   Zn440   1.933   .     S
O365   Zn443   1.933   .     S
O366   Zn886   1.933   .     S
O367   Zn437   1.934   .     S
O368   Zn1317  1.934   .     S
O369   Zn882   1.934   .     S
O370   Zn439   1.934   .     S
O371   Zn429   1.933   .     S
O372   Zn1325  1.933   .     S
O373   Zn442   1.933   .     S
O374   Zn436   1.941   .     S
O374   C993    1.282   .     S
O375   Zn887   1.933   .     S
O376   Zn1328  1.933   .     S
O377   Zn441   1.933   .     S
O385   Zn435   1.941   .     S
O385   C994    1.281   1_545 S
O396   Zn430   1.942   .     S
O407   Zn444   1.942   .     S
O413   C949    1.411   .     S
O417   C953    1.411   1_545 S
O418   Zn432   1.942   .     S
Zn429  O1256   1.934   1_545 S
Zn431  O1229   1.944   .     S
Zn434  O796    1.944   .     S
Zn436  O1217   1.944   .     S
Zn437  O1260   1.933   1_545 S
Zn438  O813    1.934   1_455 S
Zn439  O804    1.933   1_455 S
Zn440  O1264   1.933   1_545 S
Zn441  O1250   1.933   1_545 S
Zn442  O810    1.933   1_455 S
Zn443  O819    1.933   1_455 S
Zn444  O807    1.944   .     S
C445   C522    1.397   .     A
C445   H613    1.084   .     S
C445   C1428   1.396   .     S
C446   H614    1.084   .     S
C446   C532    1.398   .     A
C446   C545    1.397   .     A
C447   C588    1.412   .     A
C447   C559    1.451   .     S
C447   C595    1.412   .     A
C448   C598    1.411   .     A
C448   C560    1.452   .     S
C448   C587    1.410   .     A
C449   C586    1.412   .     A
C449   C561    1.451   .     S
C449   C597    1.412   .     A
C450   C585    1.410   .     A
C450   C600    1.410   .     A
C450   C562    1.454   .     S
C451   C563    1.451   .     S
C451   C584    1.412   .     A
C451   C599    1.412   .     A
C452   C573    1.454   .     S
C452   C603    1.410   .     A
C452   C583    1.410   .     A
C453   C582    1.412   .     A
C453   C574    1.451   .     S
C453   C601    1.412   .     A
C454   C566    1.454   .     S
C454   C605    1.410   .     A
C454   C581    1.410   .     A
C455   C604    1.410   .     A
C455   C579    1.411   .     A
C455   C567    1.452   .     S
C456   C607    1.410   .     A
C456   C578    1.410   .     A
C456   C568    1.454   .     S
C457   H625    1.083   .     S
C457   C546    1.397   .     A
C457   C533    1.398   .     A
C458   C570    1.451   .     S
C458   C577    1.412   .     A
C458   C606    1.412   .     A
C459   C576    1.410   .     A
C459   C609    1.410   .     A
C459   C571    1.454   .     S
C460   C608    1.411   .     A
C460   C575    1.410   .     A
C460   C572    1.452   .     S
C461   C527    1.415   .     A
C461   C556    1.473   .     S
C461   C1410   1.415   1_545 S
C462   C528    1.413   .     A
C462   C555    1.468   .     S
C462   C1411   1.413   1_545 S
C463   C529    1.414   .     A
C463   C554    1.469   .     S
C463   C80     1.413   1_655 S
C464   C530    1.415   .     A
C464   C553    1.472   .     S
C464   C82     1.415   1_655 S
C465   C552    1.472   .     S
C465   C531    1.415   .     A
C465   C91     1.415   1_655 S
C466   C551    1.469   .     S
C466   C532    1.414   .     A
C467   C533    1.413   .     A
C467   C550    1.468   .     S
C467   C1426   1.413   .     S
C468   C534    1.397   .     A
C468   H636    1.084   .     S
C468   C1436   1.396   1_545 S
C469   C549    1.473   .     S
C469   C534    1.415   .     A
C469   C1427   1.415   1_545 S
C470   H683    1.109   .     S
C470   O822    1.411   .     S
C470   H684    1.109   .     S
C470   H682    1.113   .     S
C471   H686    1.109   .     S
C471   H687    1.113   .     S
C471   H688    1.109   .     S
C471   O823    1.411   .     S
C472   H691    1.116   .     S
C472   H690    1.109   .     S
C472   O824    1.415   .     S
C472   H689    1.109   .     S
C473   H693    1.113   .     S
C473   H692    1.109   .     S
C473   O825    1.411   .     S
C473   H694    1.109   .     S
C474   H697    1.109   .     S
C474   H695    1.109   .     S
C474   O826    1.415   .     S
C474   H698    1.115   .     S
C475   H700    1.109   .     S
C475   H701    1.109   .     S
C475   H699    1.113   .     S
C475   O827    1.411   .     S
C476   O828    1.415   .     S
C476   H702    1.116   .     S
C476   H704    1.109   .     S
C476   H703    1.109   .     S
C477   H708    1.109   .     S
C477   H705    1.113   .     S
C477   O830    1.411   .     S
C477   H706    1.109   .     S
C478   H711    1.109   .     S
C478   H709    1.116   .     S
C478   O831    1.415   .     S
C478   H710    1.109   .     S
C479   H647    1.084   .     S
C479   C535    1.397   .     A
C479   C544    1.396   .     S
C480   H712    1.109   .     S
C480   H714    1.109   .     S
C480   O832    1.411   .     S
C480   H713    1.113   .     S
C481   H716    1.109   .     S
C481   H715    1.115   .     S
C481   O833    1.415   .     S
C481   H717    1.109   .     S
C482   H721    1.109   .     S
C482   H719    1.109   .     S
C482   H720    1.113   .     S
C482   O834    1.411   .     S
C483   O835    1.415   .     S
C483   H724    1.116   .     S
C483   H722    1.109   .     S
C483   H723    1.109   .     S
C484   H727    1.109   .     S
C484   O836    1.411   .     S
C484   H726    1.113   .     S
C484   H725    1.109   .     S
C485   O837    1.415   .     S
C485   H731    1.115   .     S
C485   H728    1.109   .     S
C485   H730    1.109   .     S
C486   H734    1.109   .     S
C486   O838    1.415   .     S
C486   H733    1.116   .     S
C486   H732    1.109   .     S
C487   O839    1.415   .     S
C487   H735    1.115   .     S
C487   H736    1.109   .     S
C487   H737    1.109   .     S
C488   H738    1.109   .     S
C488   O841    1.411   .     S
C488   H741    1.109   .     S
C488   H739    1.113   .     S
C489   H742    1.109   .     S
C489   O842    1.415   .     S
C489   H744    1.116   .     S
C489   H743    1.109   .     S
C490   H658    1.084   .     S
C490   C537    1.398   .     A
C490   C101    1.397   1_655 S
C491   H745    1.109   .     S
C491   H746    1.113   .     S
C491   O843    1.411   .     S
C491   H747    1.109   .     S
C492   O844    1.415   .     S
C492   H749    1.109   .     S
C492   H750    1.115   .     S
C492   H748    1.109   .     S
C493   O845    1.415   .     S
C493   H754    1.109   .     S
C493   H752    1.109   .     S
C493   H753    1.116   .     S
C494   H755    1.116   .     S
C494   H756    1.109   .     S
C494   H757    1.109   .     S
C494   O846    1.415   .     S
C495   H758    1.113   .     S
C495   O847    1.411   .     S
C495   H760    1.109   .     S
C495   H759    1.109   .     S
C496   O848    1.415   .     S
C496   H761    1.116   .     S
C496   H763    1.109   .     S
C496   H764    1.109   .     S
C497   H766    1.109   .     S
C497   H765    1.113   .     S
C497   O849    1.411   .     S
C497   H767    1.109   .     S
C498   H769    1.109   .     S
C498   H770    1.109   .     S
C498   O850    1.411   .     S
C498   H768    1.113   .     S
C499   O852    1.411   .     S
C499   H772    1.113   .     S
C499   H615    1.109   .     S
C499   H771    1.109   .     S
C500   O853    1.415   .     S
C500   H616    1.109   .     S
C500   H617    1.109   .     S
C500   H618    1.116   .     S
C501   H669    1.083   .     S
C501   C538    1.398   .     A
C501   C1434   1.397   1_545 S
C502   H619    1.109   .     S
C502   H620    1.113   .     S
C502   O854    1.411   .     S
C502   H621    1.109   .     S
C503   H623    1.109   .     S
C503   O855    1.415   .     S
C503   H622    1.109   .     S
C503   H624    1.115   .     S
C504   H628    1.109   .     S
C504   O856    1.411   .     S
C504   H626    1.113   .     S
C504   H627    1.109   .     S
C505   H629    1.114   .     S
C505   H631    1.112   .     S
C505   H1518   1.109   1_545 S
C505   O1745   1.411   1_545 S
C506   H634    1.112   .     S
C506   O858    1.411   .     S
C506   H633    1.109   .     S
C506   H1520   1.114   .     S
C507   O859    1.411   .     S
C507   H638    1.112   .     S
C507   H637    1.109   .     S
C508   O860    1.411   .     S
C508   H640    1.109   .     S
C508   H641    1.112   .     S
C509   H642    1.114   .     S
C509   H644    1.112   .     S
C509   H1531   1.109   .     S
C509   O1749   1.411   .     S
C510   H646    1.109   .     S
C510   O863    1.411   .     S
C510   H648    1.112   .     S
C510   H1533   1.114   1_545 S
C511   O864    1.411   .     S
C511   H651    1.112   .     S
C511   H650    1.109   .     S
C511   H205    1.114   1_655 S
C512   C539    1.397   .     A
C512   C548    1.396   .     A
C512   H680    1.084   .     S
C513   H653    1.109   .     S
C513   H654    1.112   .     S
C513   O865    1.411   .     S
C513   H208    1.114   1_655 S
C514   O866    1.411   .     S
C514   H656    1.109   .     S
C514   H657    1.112   .     S
C514   H655    1.114   .     S
C515   H660    1.109   .     S
C515   H659    1.114   .     S
C515   H661    1.112   .     S
C515   O867    1.411   .     S
C516   H662    1.114   .     S
C516   H664    1.112   .     S
C516   H663    1.109   .     S
C516   O868    1.411   .     S
C517   H665    1.114   .     S
C517   O869    1.411   .     S
C517   H667    1.112   .     S
C517   H666    1.109   .     S
C518   H668    1.114   .     S
C518   H670    1.109   .     S
C518   O870    1.411   .     S
C518   H671    1.112   .     S
C519   H673    1.109   .     S
C519   O871    1.411   .     S
C519   H674    1.112   .     S
C519   H672    1.114   .     S
C520   O872    1.411   .     S
C520   H676    1.109   .     S
C520   H675    1.114   .     S
C520   H677    1.112   .     S
C521   H679    1.109   .     S
C521   H678    1.114   .     S
C521   H681    1.112   .     S
C521   O775    1.411   .     S
C522   O857    1.384   .     S
C522   C1349   1.415   .     S
C523   C525    1.398   .     A
C523   O858    1.385   .     S
C523   C1350   1.413   .     S
C524   C536    1.398   .     A
C524   O859    1.385   .     S
C525   H685    1.083   .     S
C525   C1429   1.397   .     S
C526   O860    1.385   .     S
C526   C547    1.398   .     A
C527   C558    1.397   .     A
C527   O861    1.384   .     S
C528   C569    1.398   .     A
C528   O863    1.385   .     S
C529   C580    1.398   .     A
C529   O864    1.385   .     S
C530   C591    1.397   .     A
C530   O865    1.385   .     S
C531   O866    1.385   .     S
C531   C602    1.398   .     A
C532   O867    1.385   .     S
C533   O868    1.385   .     S
C534   O869    1.384   .     S
C535   O870    1.385   .     S
C536   H696    1.084   .     S
C537   O871    1.385   .     S
C537   C22     1.414   1_655 S
C538   O872    1.385   .     S
C538   C1355   1.413   1_545 S
C539   O775    1.384   .     S
C539   C1357   1.415   .     S
C540   C558    1.396   .     A
C540   C1333   1.396   1_545 S
C540   C541    1.463   1_554 S
C541   C569    1.397   .     A
C541   C540    1.463   1_556 S
C541   C1413   1.397   1_545 S
C542   C580    1.397   .     A
C542   C92     1.397   1_655 S
C542   C543    1.463   1_554 S
C543   C591    1.396   .     A
C543   C542    1.463   1_556 S
C543   C103    1.396   1_655 S
C544   C545    1.463   .     S
C546   C548    1.463   .     S
C546   C1389   1.397   .     S
C547   H707    1.084   .     S
C548   C1356   1.396   .     S
C549   O862    1.282   .     A
C549   O1706   1.282   1_545 S
C550   O774    1.281   .     A
C550   O1717   1.281   .     S
C551   O840    1.281   .     A
C552   O851    1.282   .     A
C552   O333    1.282   1_655 S
C553   O334    1.282   1_655 S
C553   O338    1.282   1_655 S
C554   O335    1.281   1_655 S
C554   O339    1.281   1_655 S
C555   O780    1.281   .     A
C555   O784    1.281   .     A
C556   O781    1.282   .     A
C556   O786    1.282   .     A
C557   C612    1.454   .     S
C557   O787    1.277   .     A
C557   O815    1.277   .     A
C558   H718    1.084   .     S
C559   O788    1.277   .     A
C559   O816    1.277   .     A
C560   O813    1.276   .     A
C560   O789    1.278   .     A
C561   O814    1.277   .     A
C561   O790    1.277   .     A
C562   O791    1.278   .     A
C562   O820    1.278   .     A
C563   O792    1.278   .     A
C563   O821    1.278   .     A
C564   O817    1.278   .     A
C564   C610    1.452   .     S
C564   O793    1.276   .     A
C565   O794    1.277   .     A
C565   O819    1.277   .     A
C565   C611    1.451   .     S
C566   O795    1.278   .     A
C566   O806    1.278   .     A
C567   O797    1.277   .     A
C567   O808    1.278   .     A
C568   O798    1.277   .     A
C568   O804    1.277   .     A
C569   H729    1.083   .     S
C570   O799    1.277   .     A
C570   O805    1.277   .     A
C571   O800    1.278   .     A
C571   O811    1.278   .     A
C572   O801    1.278   .     A
C572   O812    1.277   .     A
C573   O809    1.278   .     A
C573   O802    1.278   .     A
C574   O810    1.277   .     A
C574   O803    1.277   .     A
C575   O822    1.386   .     S
C575   C592    1.395   .     A
C576   O823    1.386   .     S
C576   C590    1.395   .     A
C577   C589    1.395   .     A
C577   O824    1.387   .     S
C578   O825    1.386   .     S
C578   C588    1.395   .     A
C579   O826    1.387   .     S
C579   C587    1.395   .     A
C580   H740    1.084   .     S
C581   C586    1.395   .     A
C581   O827    1.386   .     S
C582   O828    1.387   .     S
C582   C585    1.395   .     A
C583   O830    1.386   .     S
C583   C584    1.395   .     A
C584   O831    1.387   .     S
C585   O832    1.386   .     S
C586   O833    1.387   .     S
C587   O834    1.386   .     S
C588   O835    1.387   .     S
C589   C612    1.410   .     A
C589   O836    1.386   .     S
C590   C611    1.412   .     A
C590   O837    1.387   .     S
C591   H751    1.084   .     S
C592   O838    1.387   .     S
C592   C610    1.411   .     A
C593   C609    1.395   .     A
C593   O839    1.387   .     S
C593   C611    1.412   .     A
C594   C610    1.410   .     A
C594   C608    1.395   .     A
C594   O841    1.386   .     S
C595   O842    1.387   .     S
C595   C607    1.395   .     A
C596   C612    1.410   .     A
C596   O843    1.386   .     S
C596   C606    1.395   .     A
C597   C605    1.395   .     A
C597   O844    1.387   .     S
C598   O845    1.387   .     S
C598   C604    1.395   .     A
C599   O846    1.387   .     S
C599   C603    1.395   .     A
C600   O847    1.386   .     S
C600   C601    1.395   .     A
C601   O848    1.387   .     S
C602   C100    1.396   1_655 A
C602   H762    1.084   .     S
C603   O849    1.386   .     S
C604   O850    1.386   .     S
C605   O852    1.386   .     S
C606   O853    1.387   .     S
C607   O854    1.386   .     S
C608   O855    1.387   .     S
C609   O856    1.386   .     S
H630   C1393   1.109   .     S
H632   C1394   1.114   1_545 S
H635   C63     1.114   1_655 S
H639   C64     1.114   1_655 S
H643   C1397   1.109   1_545 S
H645   C1398   1.114   .     S
O773   Zn884   1.944   .     S
O773   Zn873   1.944   .     S
O773   Zn876   1.944   .     S
O773   Zn1768  1.944   1_545 S
O774   Zn875   1.942   .     S
O776   Zn878   1.941   .     S
O776   C107    1.281   1_655 S
O777   Zn877   1.941   .     S
O778   Zn887   1.941   .     S
O779   Zn886   1.941   .     S
O780   Zn881   1.942   .     S
O781   Zn873   1.942   .     S
O782   Zn883   1.942   .     S
O783   Zn882   1.942   .     S
O784   Zn885   1.941   .     S
O785   Zn879   1.944   .     S
O785   Zn885   1.944   .     S
O785   Zn881   1.944   .     S
O785   Zn1763  1.944   1_545 S
O786   Zn884   1.941   .     S
O787   Zn876   1.933   .     S
O788   Zn875   1.933   .     S
O789   Zn878   1.933   .     S
O790   Zn877   1.933   .     S
O791   Zn880   1.933   .     S
O792   Zn879   1.933   .     S
O793   Zn874   1.934   .     S
O794   Zn888   1.934   .     S
O795   Zn875   1.934   .     S
O796   Zn874   1.944   .     S
O796   Zn886   1.944   .     S
O796   Zn882   1.944   .     S
O797   Zn876   1.934   .     S
O798   Zn888   1.933   .     S
O799   Zn874   1.933   .     S
O800   Zn879   1.933   .     S
O801   Zn880   1.933   .     S
O802   Zn877   1.933   .     S
O803   Zn878   1.933   .     S
O804   Zn439   1.933   1_655 S
O805   Zn882   1.933   .     S
O806   Zn1773  1.933   .     S
O807   Zn887   1.944   .     S
O807   Zn883   1.944   .     S
O807   Zn877   1.944   .     S
O808   Zn884   1.933   .     S
O809   Zn887   1.933   .     S
O810   Zn442   1.933   1_655 S
O811   Zn881   1.934   .     S
O812   Zn1761  1.934   .     S
O813   Zn438   1.934   1_655 S
O814   Zn883   1.934   .     S
O815   Zn873   1.933   .     S
O816   Zn1769  1.933   .     S
O817   Zn886   1.933   .     S
O818   Zn880   1.941   .     S
O818   C1437   1.282   .     S
O819   Zn443   1.933   1_655 S
O820   Zn1772  1.933   .     S
O821   Zn885   1.933   .     S
O829   Zn879   1.941   .     S
O829   C1438   1.281   1_545 S
O840   Zn874   1.942   .     S
O851   Zn888   1.942   .     S
O857   C1393   1.411   .     S
O861   C1397   1.411   1_545 S
O862   Zn876   1.942   .     S
Zn873  O1700   1.934   1_545 S
Zn875  O1673   1.944   .     S
Zn878  O352    1.944   1_655 S
Zn880  O1661   1.944   .     S
Zn881  O1704   1.933   1_545 S
Zn884  O1708   1.933   1_545 S
Zn885  O1694   1.933   1_545 S
Zn888  O363    1.944   1_655 S
C889   C966    1.397   .     A
C889   H1057   1.084   .     S
C889   C96     1.396   1_565 S
C890   H1058   1.084   .     S
C890   C976    1.398   .     A
C890   C989    1.397   .     A
C891   C1032   1.412   .     A
C891   C1003   1.451   .     S
C891   C1039   1.412   .     A
C892   C1042   1.411   .     A
C892   C1004   1.452   .     S
C892   C1031   1.410   .     A
C893   C1030   1.412   .     A
C893   C1005   1.451   .     S
C893   C1041   1.412   .     A
C894   C1029   1.410   .     A
C894   C1044   1.410   .     A
C894   C1006   1.454   .     S
C895   C1007   1.451   .     S
C895   C1028   1.412   .     A
C895   C1043   1.412   .     A
C896   C1017   1.454   .     S
C896   C1047   1.410   .     A
C896   C1027   1.410   .     A
C897   C1026   1.412   .     A
C897   C1018   1.451   .     S
C897   C1045   1.412   .     A
C898   C1010   1.454   .     S
C898   C1049   1.410   .     A
C898   C1025   1.410   .     A
C899   C1048   1.410   .     A
C899   C1023   1.411   .     A
C899   C1011   1.452   .     S
C900   C1051   1.410   .     A
C900   C1022   1.410   .     A
C900   C1012   1.454   .     S
C901   H1069   1.083   .     S
C901   C990    1.397   .     A
C901   C977    1.398   .     A
C902   C1014   1.451   .     S
C902   C1021   1.412   .     A
C902   C1050   1.412   .     A
C903   C1020   1.410   .     A
C903   C1053   1.410   .     A
C903   C1015   1.454   .     S
C904   C1052   1.411   .     A
C904   C1019   1.410   .     A
C904   C1016   1.452   .     S
C905   C971    1.415   .     A
C905   C1000   1.473   .     S
C906   C972    1.413   .     A
C906   C999    1.468   .     S
C907   C973    1.414   .     A
C907   C998    1.469   .     S
C907   C1412   1.413   .     S
C908   C974    1.415   .     A
C908   C997    1.472   .     S
C908   C1414   1.415   .     S
C909   C996    1.472   .     S
C909   C975    1.415   .     A
C909   C1423   1.415   .     S
C910   C995    1.469   .     S
C910   C976    1.414   .     A
C910   C1425   1.414   1_455 S
C911   C977    1.413   .     A
C911   C994    1.468   .     S
C911   C94     1.413   1_565 S
C912   C978    1.397   .     A
C912   H1080   1.084   .     S
C913   C993    1.473   .     S
C913   C978    1.415   .     A
C914   H1127   1.109   .     S
C914   O1266   1.411   .     S
C914   H1128   1.109   .     S
C914   H1126   1.113   .     S
C915   H1130   1.109   .     S
C915   H1131   1.113   .     S
C915   H1132   1.109   .     S
C915   O1267   1.411   .     S
C916   H1135   1.116   .     S
C916   H1134   1.109   .     S
C916   O1268   1.415   .     S
C916   H1133   1.109   .     S
C917   H1137   1.113   .     S
C917   H1136   1.109   .     S
C917   O1269   1.411   .     S
C917   H1138   1.109   .     S
C918   H1141   1.109   .     S
C918   H1139   1.109   .     S
C918   O1270   1.415   .     S
C918   H1142   1.115   .     S
C919   H1144   1.109   .     S
C919   H1145   1.109   .     S
C919   H1143   1.113   .     S
C919   O1271   1.411   .     S
C920   O1272   1.415   .     S
C920   H1146   1.116   .     S
C920   H1148   1.109   .     S
C920   H1147   1.109   .     S
C921   H1152   1.109   .     S
C921   H1149   1.113   .     S
C921   O1274   1.411   .     S
C921   H1150   1.109   .     S
C922   H1155   1.109   .     S
C922   H1153   1.116   .     S
C922   O1275   1.415   .     S
C922   H1154   1.109   .     S
C923   H1091   1.084   .     S
C923   C979    1.397   .     A
C923   C988    1.396   .     S
C924   H1156   1.109   .     S
C924   H1158   1.109   .     S
C924   O1276   1.411   .     S
C924   H1157   1.113   .     S
C925   H1160   1.109   .     S
C925   H1159   1.115   .     S
C925   O1277   1.415   .     S
C925   H1161   1.109   .     S
C926   H1165   1.109   .     S
C926   H1163   1.109   .     S
C926   H1164   1.113   .     S
C926   O1278   1.411   .     S
C927   O1279   1.415   .     S
C927   H1168   1.116   .     S
C927   H1166   1.109   .     S
C927   H1167   1.109   .     S
C928   H1171   1.109   .     S
C928   O1280   1.411   .     S
C928   H1170   1.113   .     S
C928   H1169   1.109   .     S
C929   O1281   1.415   .     S
C929   H1175   1.115   .     S
C929   H1172   1.109   .     S
C929   H1174   1.109   .     S
C930   H1178   1.109   .     S
C930   O1282   1.415   .     S
C930   H1177   1.116   .     S
C930   H1176   1.109   .     S
C931   O1283   1.415   .     S
C931   H1179   1.115   .     S
C931   H1180   1.109   .     S
C931   H1181   1.109   .     S
C932   H1182   1.109   .     S
C932   O1285   1.411   .     S
C932   H1185   1.109   .     S
C932   H1183   1.113   .     S
C933   H1186   1.109   .     S
C933   O1286   1.415   .     S
C933   H1188   1.116   .     S
C933   H1187   1.109   .     S
C934   H1102   1.084   .     S
C934   C981    1.398   .     A
C934   C1433   1.397   .     S
C935   H1189   1.109   .     S
C935   H1190   1.113   .     S
C935   O1287   1.411   .     S
C935   H1191   1.109   .     S
C936   O1288   1.415   .     S
C936   H1193   1.109   .     S
C936   H1194   1.115   .     S
C936   H1192   1.109   .     S
C937   O1289   1.415   .     S
C937   H1198   1.109   .     S
C937   H1196   1.109   .     S
C937   H1197   1.116   .     S
C938   H1199   1.116   .     S
C938   H1200   1.109   .     S
C938   H1201   1.109   .     S
C938   O1290   1.415   .     S
C939   H1202   1.113   .     S
C939   O1291   1.411   .     S
C939   H1204   1.109   .     S
C939   H1203   1.109   .     S
C940   O1292   1.415   .     S
C940   H1205   1.116   .     S
C940   H1207   1.109   .     S
C940   H1208   1.109   .     S
C941   H1210   1.109   .     S
C941   H1209   1.113   .     S
C941   O1293   1.411   .     S
C941   H1211   1.109   .     S
C942   H1213   1.109   .     S
C942   H1214   1.109   .     S
C942   O1294   1.411   .     S
C942   H1212   1.113   .     S
C943   O1296   1.411   .     S
C943   H1216   1.113   .     S
C943   H1059   1.109   .     S
C943   H1215   1.109   .     S
C944   O1297   1.415   .     S
C944   H1060   1.109   .     S
C944   H1061   1.109   .     S
C944   H1062   1.116   .     S
C945   H1113   1.083   .     S
C945   C982    1.398   .     A
C946   H1063   1.109   .     S
C946   H1064   1.113   .     S
C946   O1298   1.411   .     S
C946   H1065   1.109   .     S
C947   H1067   1.109   .     S
C947   O1299   1.415   .     S
C947   H1066   1.109   .     S
C947   H1068   1.115   .     S
C948   H1072   1.109   .     S
C948   O1300   1.411   .     S
C948   H1070   1.113   .     S
C948   H1071   1.109   .     S
C949   H1073   1.114   .     S
C949   H1075   1.112   .     S
C950   H1078   1.112   .     S
C950   O1302   1.411   .     S
C950   H1077   1.109   .     S
C950   H188    1.114   1_565 S
C951   O1303   1.411   .     S
C951   H1082   1.112   .     S
C951   H1081   1.109   .     S
C951   H1523   1.114   1_455 S
C952   O1304   1.411   .     S
C952   H1084   1.109   .     S
C952   H1085   1.112   .     S
C952   H1527   1.114   1_455 S
C953   H1086   1.114   .     S
C953   H1088   1.112   .     S
C953   H199    1.109   1_565 S
C953   O417    1.411   1_565 S
C954   H1090   1.109   .     S
C954   O1307   1.411   .     S
C954   H1092   1.112   .     S
C955   O1308   1.411   .     S
C955   H1095   1.112   .     S
C955   H1094   1.109   .     S
C955   H1537   1.114   .     S
C956   C983    1.397   .     A
C956   C992    1.396   .     A
C956   H1124   1.084   .     S
C957   H1097   1.109   .     S
C957   H1098   1.112   .     S
C957   O1309   1.411   .     S
C957   H1540   1.114   .     S
C958   O1310   1.411   .     S
C958   H1100   1.109   .     S
C958   H1101   1.112   .     S
C958   H1099   1.114   .     S
C959   H1104   1.109   .     S
C959   H1103   1.114   .     S
C959   H1105   1.112   .     S
C959   O1311   1.411   .     S
C960   H1106   1.114   .     S
C960   H1108   1.112   .     S
C960   H1107   1.109   .     S
C960   O1312   1.411   .     S
C961   H1109   1.114   .     S
C961   O1313   1.411   .     S
C961   H1111   1.112   .     S
C961   H1110   1.109   .     S
C962   H1112   1.114   .     S
C962   H1114   1.109   .     S
C962   O1314   1.411   .     S
C962   H1115   1.112   .     S
C963   H1117   1.109   .     S
C963   O1315   1.411   .     S
C963   H1118   1.112   .     S
C963   H1116   1.114   .     S
C964   O1316   1.411   .     S
C964   H1120   1.109   .     S
C964   H1119   1.114   .     S
C964   H1121   1.112   .     S
C965   H1123   1.109   .     S
C965   H1122   1.114   .     S
C965   H1125   1.112   .     S
C965   O1219   1.411   .     S
C966   O1301   1.384   .     S
C966   C17     1.415   1_565 S
C967   C969    1.398   .     A
C967   O1302   1.385   .     S
C967   C18     1.413   1_565 S
C968   C980    1.398   .     A
C968   O1303   1.385   .     S
C968   C1351   1.413   1_455 S
C969   H1129   1.083   .     S
C969   C97     1.397   1_565 S
C970   O1304   1.385   .     S
C970   C991    1.398   .     A
C970   C1352   1.415   1_455 S
C971   C1002   1.397   .     A
C971   O1305   1.384   .     S
C972   C1013   1.398   .     A
C972   O1307   1.385   .     S
C973   C1024   1.398   .     A
C973   O1308   1.385   .     S
C974   C1035   1.397   .     A
C974   O1309   1.385   .     S
C975   O1310   1.385   .     S
C975   C1046   1.398   .     A
C976   O1311   1.385   .     S
C977   O1312   1.385   .     S
C978   O1313   1.384   .     S
C979   O1314   1.385   .     S
C979   C1353   1.415   1_455 S
C980   H1140   1.084   .     S
C980   C1430   1.397   1_455 S
C981   O1315   1.385   .     S
C981   C1354   1.414   .     S
C982   O1316   1.385   .     S
C983   O1219   1.384   .     S
C983   C25     1.415   1_565 S
C984   C1002   1.396   .     A
C984   C985    1.463   1_554 S
C985   C1013   1.397   .     A
C985   C984    1.463   1_556 S
C986   C1024   1.397   .     A
C986   C1424   1.397   .     S
C986   C987    1.463   1_554 S
C987   C1035   1.396   .     A
C987   C986    1.463   1_556 S
C987   C1435   1.396   .     S
C988   C1490   1.396   1_455 A
C988   C989    1.463   .     S
C989   C1378   1.397   1_455 S
C990   C992    1.463   .     S
C990   C57     1.397   1_565 S
C991   H1151   1.084   .     S
C991   C1431   1.396   1_455 S
C992   C24     1.396   1_565 S
C993   O1306   1.282   .     A
C994   O1218   1.281   .     A
C994   O385    1.281   1_565 S
C995   O1284   1.281   .     A
C995   O1664   1.281   1_455 S
C996   O1295   1.282   .     A
C996   O1665   1.282   .     S
C997   O1666   1.282   .     S
C997   O1670   1.282   .     S
C998   O1667   1.281   .     S
C998   O1671   1.281   .     S
C999   O1224   1.281   .     A
C999   O1228   1.281   .     A
C1000  O1225   1.282   .     A
C1000  O1230   1.282   .     A
C1001  C1056   1.454   .     S
C1001  O1231   1.277   .     A
C1001  O1259   1.277   .     A
C1002  H1162   1.084   .     S
C1003  O1232   1.277   .     A
C1003  O1260   1.277   .     A
C1004  O1257   1.276   .     A
C1004  O1233   1.278   .     A
C1005  O1258   1.277   .     A
C1005  O1234   1.277   .     A
C1006  O1235   1.278   .     A
C1006  O1264   1.278   .     A
C1007  O1236   1.278   .     A
C1007  O1265   1.278   .     A
C1008  O1261   1.278   .     A
C1008  C1054   1.452   .     S
C1008  O1237   1.276   .     A
C1009  O1238   1.277   .     A
C1009  O1263   1.277   .     A
C1009  C1055   1.451   .     S
C1010  O1239   1.278   .     A
C1010  O1250   1.278   .     A
C1011  O1241   1.277   .     A
C1011  O1252   1.278   .     A
C1012  O1242   1.277   .     A
C1012  O1248   1.277   .     A
C1013  H1173   1.083   .     S
C1014  O1243   1.277   .     A
C1014  O1249   1.277   .     A
C1015  O1244   1.278   .     A
C1015  O1255   1.278   .     A
C1016  O1245   1.278   .     A
C1016  O1256   1.277   .     A
C1017  O1253   1.278   .     A
C1017  O1246   1.278   .     A
C1018  O1254   1.277   .     A
C1018  O1247   1.277   .     A
C1019  O1266   1.386   .     S
C1019  C1036   1.395   .     A
C1020  O1267   1.386   .     S
C1020  C1034   1.395   .     A
C1021  C1033   1.395   .     A
C1021  O1268   1.387   .     S
C1022  O1269   1.386   .     S
C1022  C1032   1.395   .     A
C1023  O1270   1.387   .     S
C1023  C1031   1.395   .     A
C1024  H1184   1.084   .     S
C1025  C1030   1.395   .     A
C1025  O1271   1.386   .     S
C1026  O1272   1.387   .     S
C1026  C1029   1.395   .     A
C1027  O1274   1.386   .     S
C1027  C1028   1.395   .     A
C1028  O1275   1.387   .     S
C1029  O1276   1.386   .     S
C1030  O1277   1.387   .     S
C1031  O1278   1.386   .     S
C1032  O1279   1.387   .     S
C1033  C1056   1.410   .     A
C1033  O1280   1.386   .     S
C1034  C1055   1.412   .     A
C1034  O1281   1.387   .     S
C1035  H1195   1.084   .     S
C1036  O1282   1.387   .     S
C1036  C1054   1.411   .     A
C1037  C1053   1.395   .     A
C1037  O1283   1.387   .     S
C1037  C1055   1.412   .     A
C1038  C1054   1.410   .     A
C1038  C1052   1.395   .     A
C1038  O1285   1.386   .     S
C1039  O1286   1.387   .     S
C1039  C1051   1.395   .     A
C1040  C1056   1.410   .     A
C1040  O1287   1.386   .     S
C1040  C1050   1.395   .     A
C1041  C1049   1.395   .     A
C1041  O1288   1.387   .     S
C1042  O1289   1.387   .     S
C1042  C1048   1.395   .     A
C1043  O1290   1.387   .     S
C1043  C1047   1.395   .     A
C1044  O1291   1.386   .     S
C1044  C1045   1.395   .     A
C1045  O1292   1.387   .     S
C1046  C1432   1.396   .     A
C1046  H1206   1.084   .     S
C1047  O1293   1.386   .     S
C1048  O1294   1.386   .     S
C1049  O1296   1.386   .     S
C1050  O1297   1.387   .     S
C1051  O1298   1.386   .     S
C1052  O1299   1.387   .     S
C1053  O1300   1.386   .     S
H1074  C61     1.109   1_565 S
H1079  C1395   1.114   .     S
H1083  C1396   1.114   .     S
H1089  C66     1.114   1_565 S
H1093  C1399   1.114   1_455 S
H1096  C1401   1.114   1_455 S
O1217  Zn1328  1.944   .     S
O1217  Zn1317  1.944   .     S
O1217  Zn1320  1.944   .     S
O1218  Zn1319  1.942   .     S
O1220  Zn1322  1.941   .     S
O1220  C1439   1.281   .     S
O1221  Zn1321  1.941   .     S
O1221  C1440   1.282   1_455 S
O1222  Zn1331  1.941   .     S
O1222  C1441   1.282   1_455 S
O1223  Zn1330  1.941   .     S
O1223  C1442   1.281   1_455 S
O1224  Zn1325  1.942   .     S
O1225  Zn1317  1.942   .     S
O1226  Zn1327  1.942   .     S
O1226  C1441   1.282   1_455 S
O1227  Zn1326  1.942   .     S
O1227  C1442   1.281   1_455 S
O1228  Zn1329  1.941   .     S
O1229  Zn1323  1.944   .     S
O1229  Zn1329  1.944   .     S
O1229  Zn1325  1.944   .     S
O1230  Zn1328  1.941   .     S
O1231  Zn1320  1.933   .     S
O1232  Zn1319  1.933   .     S
O1233  Zn1322  1.933   .     S
O1234  Zn1321  1.933   .     S
O1235  Zn1324  1.933   .     S
O1236  Zn1323  1.933   .     S
O1237  Zn1318  1.934   .     S
O1238  Zn1332  1.934   .     S
O1239  Zn1319  1.934   .     S
O1240  Zn1318  1.944   .     S
O1240  Zn1330  1.944   .     S
O1240  Zn1326  1.944   .     S
O1240  Zn1766  1.944   1_455 S
O1241  Zn1320  1.934   .     S
O1242  Zn1332  1.933   .     S
O1243  Zn1318  1.933   .     S
O1244  Zn1323  1.933   .     S
O1245  Zn1324  1.933   .     S
O1246  Zn1321  1.933   .     S
O1247  Zn1322  1.933   .     S
O1248  Zn1771  1.933   .     S
O1249  Zn1326  1.933   .     S
O1250  Zn441   1.933   1_565 S
O1251  Zn1331  1.944   .     S
O1251  Zn1327  1.944   .     S
O1251  Zn1321  1.944   .     S
O1251  Zn1776  1.944   1_455 S
O1252  Zn1328  1.933   .     S
O1253  Zn1331  1.933   .     S
O1254  Zn1774  1.933   .     S
O1255  Zn1325  1.934   .     S
O1256  Zn429   1.934   1_565 S
O1257  Zn1770  1.934   .     S
O1258  Zn1327  1.934   .     S
O1259  Zn1317  1.933   .     S
O1260  Zn437   1.933   1_565 S
O1261  Zn1330  1.933   .     S
O1262  Zn1324  1.941   .     S
O1262  C105    1.282   1_565 S
O1263  Zn1775  1.933   .     S
O1264  Zn440   1.933   1_565 S
O1265  Zn1329  1.933   .     S
O1273  Zn1323  1.941   .     S
O1284  Zn1318  1.942   .     S
O1295  Zn1332  1.942   .     S
O1301  C61     1.411   1_565 S
O1306  Zn1320  1.942   .     S
Zn1319 O341    1.944   1_565 S
Zn1322 O1684   1.944   .     S
Zn1324 O329    1.944   1_565 S
Zn1326 O1701   1.934   1_455 S
Zn1327 O1692   1.933   1_455 S
Zn1330 O1698   1.933   1_455 S
Zn1331 O1707   1.933   1_455 S
Zn1332 O1695   1.944   .     S
C1333  C1410   1.397   .     A
C1333  H1501   1.084   .     S
C1333  C540    1.396   1_565 S
C1334  H1502   1.084   .     S
C1334  C1420   1.398   .     A
C1334  C1433   1.397   .     A
C1335  C1476   1.412   .     A
C1335  C1447   1.451   .     S
C1335  C1483   1.412   .     A
C1336  C1486   1.411   .     A
C1336  C1448   1.452   .     S
C1336  C1475   1.410   .     A
C1337  C1474   1.412   .     A
C1337  C1449   1.451   .     S
C1337  C1485   1.412   .     A
C1338  C1473   1.410   .     A
C1338  C1488   1.410   .     A
C1338  C1450   1.454   .     S
C1339  C1451   1.451   .     S
C1339  C1472   1.412   .     A
C1339  C1487   1.412   .     A
C1340  C1461   1.454   .     S
C1340  C1491   1.410   .     A
C1340  C1471   1.410   .     A
C1341  C1470   1.412   .     A
C1341  C1462   1.451   .     S
C1341  C1489   1.412   .     A
C1342  C1454   1.454   .     S
C1342  C1493   1.410   .     A
C1342  C1469   1.410   .     A
C1343  C1492   1.410   .     A
C1343  C1467   1.411   .     A
C1343  C1455   1.452   .     S
C1344  C1495   1.410   .     A
C1344  C1466   1.410   .     A
C1344  C1456   1.454   .     S
C1345  H1513   1.083   .     S
C1345  C1434   1.397   .     A
C1345  C1421   1.398   .     A
C1346  C1458   1.451   .     S
C1346  C1465   1.412   .     A
C1346  C1494   1.412   .     A
C1347  C1464   1.410   .     A
C1347  C1497   1.410   .     A
C1347  C1459   1.454   .     S
C1348  C1496   1.411   .     A
C1348  C1463   1.410   .     A
C1348  C1460   1.452   .     S
C1349  C1415   1.415   .     A
C1349  C1444   1.473   .     S
C1350  C1416   1.413   .     A
C1350  C1443   1.468   .     S
C1351  C1417   1.414   .     A
C1351  C1442   1.469   .     S
C1351  C968    1.413   1_655 S
C1352  C1418   1.415   .     A
C1352  C1441   1.472   .     S
C1352  C970    1.415   1_655 S
C1353  C1440   1.472   .     S
C1353  C1419   1.415   .     A
C1353  C979    1.415   1_655 S
C1354  C1439   1.469   .     S
C1354  C1420   1.414   .     A
C1355  C1421   1.413   .     A
C1355  C1438   1.468   .     S
C1355  C538    1.413   1_565 S
C1356  C1422   1.397   .     A
C1356  H1524   1.084   .     S
C1357  C1437   1.473   .     S
C1357  C1422   1.415   .     A
C1358  H1571   1.109   .     S
C1358  O1710   1.411   .     S
C1358  H1572   1.109   .     S
C1358  H1570   1.113   .     S
C1359  H1574   1.109   .     S
C1359  H1575   1.113   .     S
C1359  H1576   1.109   .     S
C1359  O1711   1.411   .     S
C1360  H1579   1.116   .     S
C1360  H1578   1.109   .     S
C1360  O1712   1.415   .     S
C1360  H1577   1.109   .     S
C1361  H1581   1.113   .     S
C1361  H1580   1.109   .     S
C1361  O1713   1.411   .     S
C1361  H1582   1.109   .     S
C1362  H1585   1.109   .     S
C1362  H1583   1.109   .     S
C1362  O1714   1.415   .     S
C1362  H1586   1.115   .     S
C1363  H1588   1.109   .     S
C1363  H1589   1.109   .     S
C1363  H1587   1.113   .     S
C1363  O1715   1.411   .     S
C1364  O1716   1.415   .     S
C1364  H1590   1.116   .     S
C1364  H1592   1.109   .     S
C1364  H1591   1.109   .     S
C1365  H1596   1.109   .     S
C1365  H1593   1.113   .     S
C1365  O1718   1.411   .     S
C1365  H1594   1.109   .     S
C1366  H1599   1.109   .     S
C1366  H1597   1.116   .     S
C1366  O1719   1.415   .     S
C1366  H1598   1.109   .     S
C1367  H1535   1.084   .     S
C1367  C1423   1.397   .     A
C1367  C1432   1.396   .     S
C1368  H1600   1.109   .     S
C1368  H1602   1.109   .     S
C1368  O1720   1.411   .     S
C1368  H1601   1.113   .     S
C1369  H1604   1.109   .     S
C1369  H1603   1.115   .     S
C1369  O1721   1.415   .     S
C1369  H1605   1.109   .     S
C1370  H1609   1.109   .     S
C1370  H1607   1.109   .     S
C1370  H1608   1.113   .     S
C1370  O1722   1.411   .     S
C1371  O1723   1.415   .     S
C1371  H1612   1.116   .     S
C1371  H1610   1.109   .     S
C1371  H1611   1.109   .     S
C1372  H1615   1.109   .     S
C1372  O1724   1.411   .     S
C1372  H1614   1.113   .     S
C1372  H1613   1.109   .     S
C1373  O1725   1.415   .     S
C1373  H1619   1.115   .     S
C1373  H1616   1.109   .     S
C1373  H1618   1.109   .     S
C1374  H1622   1.109   .     S
C1374  O1726   1.415   .     S
C1374  H1621   1.116   .     S
C1374  H1620   1.109   .     S
C1375  O1727   1.415   .     S
C1375  H1623   1.115   .     S
C1375  H1624   1.109   .     S
C1375  H1625   1.109   .     S
C1376  H1626   1.109   .     S
C1376  O1729   1.411   .     S
C1376  H1629   1.109   .     S
C1376  H1627   1.113   .     S
C1377  H1630   1.109   .     S
C1377  O1730   1.415   .     S
C1377  H1632   1.116   .     S
C1377  H1631   1.109   .     S
C1378  H1546   1.084   .     S
C1378  C1425   1.398   .     A
C1378  C989    1.397   1_655 S
C1379  H1633   1.109   .     S
C1379  H1634   1.113   .     S
C1379  O1731   1.411   .     S
C1379  H1635   1.109   .     S
C1380  O1732   1.415   .     S
C1380  H1637   1.109   .     S
C1380  H1638   1.115   .     S
C1380  H1636   1.109   .     S
C1381  O1733   1.415   .     S
C1381  H1642   1.109   .     S
C1381  H1640   1.109   .     S
C1381  H1641   1.116   .     S
C1382  H1643   1.116   .     S
C1382  H1644   1.109   .     S
C1382  H1645   1.109   .     S
C1382  O1734   1.415   .     S
C1383  H1646   1.113   .     S
C1383  O1735   1.411   .     S
C1383  H1648   1.109   .     S
C1383  H1647   1.109   .     S
C1384  O1736   1.415   .     S
C1384  H1649   1.116   .     S
C1384  H1651   1.109   .     S
C1384  H1652   1.109   .     S
C1385  H1654   1.109   .     S
C1385  H1653   1.113   .     S
C1385  O1737   1.411   .     S
C1385  H1655   1.109   .     S
C1386  H1657   1.109   .     S
C1386  H1658   1.109   .     S
C1386  O1738   1.411   .     S
C1386  H1656   1.113   .     S
C1387  O1740   1.411   .     S
C1387  H1660   1.113   .     S
C1387  H1503   1.109   .     S
C1387  H1659   1.109   .     S
C1388  O1741   1.415   .     S
C1388  H1504   1.109   .     S
C1388  H1505   1.109   .     S
C1388  H1506   1.116   .     S
C1389  H1557   1.083   .     S
C1389  C1426   1.398   .     A
C1390  H1507   1.109   .     S
C1390  H1508   1.113   .     S
C1390  O1742   1.411   .     S
C1390  H1509   1.109   .     S
C1391  H1511   1.109   .     S
C1391  O1743   1.415   .     S
C1391  H1510   1.109   .     S
C1391  H1512   1.115   .     S
C1392  H1516   1.109   .     S
C1392  O1744   1.411   .     S
C1392  H1514   1.113   .     S
C1392  H1515   1.109   .     S
C1393  H1517   1.114   .     S
C1393  H1519   1.112   .     S
C1394  H1522   1.112   .     S
C1394  O1746   1.411   .     S
C1394  H1521   1.109   .     S
C1394  H632    1.114   1_565 S
C1395  O1747   1.411   .     S
C1395  H1526   1.112   .     S
C1395  H1525   1.109   .     S
C1396  O1748   1.411   .     S
C1396  H1528   1.109   .     S
C1396  H1529   1.112   .     S
C1397  H1530   1.114   .     S
C1397  H1532   1.112   .     S
C1397  H643    1.109   1_565 S
C1397  O861    1.411   1_565 S
C1398  H1534   1.109   .     S
C1398  O1751   1.411   .     S
C1398  H1536   1.112   .     S
C1399  O1752   1.411   .     S
C1399  H1539   1.112   .     S
C1399  H1538   1.109   .     S
C1399  H1093   1.114   1_655 S
C1400  C1427   1.397   .     A
C1400  C1436   1.396   .     A
C1400  H1568   1.084   .     S
C1401  H1541   1.109   .     S
C1401  H1542   1.112   .     S
C1401  O1753   1.411   .     S
C1401  H1096   1.114   1_655 S
C1402  O1754   1.411   .     S
C1402  H1544   1.109   .     S
C1402  H1545   1.112   .     S
C1402  H1543   1.114   .     S
C1403  H1548   1.109   .     S
C1403  H1547   1.114   .     S
C1403  H1549   1.112   .     S
C1403  O1755   1.411   .     S
C1404  H1550   1.114   .     S
C1404  H1552   1.112   .     S
C1404  H1551   1.109   .     S
C1404  O1756   1.411   .     S
C1405  H1553   1.114   .     S
C1405  O1757   1.411   .     S
C1405  H1555   1.112   .     S
C1405  H1554   1.109   .     S
C1406  H1556   1.114   .     S
C1406  H1558   1.109   .     S
C1406  O1758   1.411   .     S
C1406  H1559   1.112   .     S
C1407  H1561   1.109   .     S
C1407  O1759   1.411   .     S
C1407  H1562   1.112   .     S
C1407  H1560   1.114   .     S
C1408  O1760   1.411   .     S
C1408  H1564   1.109   .     S
C1408  H1563   1.114   .     S
C1408  H1565   1.112   .     S
C1409  H1567   1.109   .     S
C1409  H1566   1.114   .     S
C1409  H1569   1.112   .     S
C1409  O1663   1.411   .     S
C1410  O1745   1.384   .     S
C1410  C461    1.415   1_565 S
C1411  C1413   1.398   .     A
C1411  O1746   1.385   .     S
C1411  C462    1.413   1_565 S
C1412  C1424   1.398   .     A
C1412  O1747   1.385   .     S
C1413  H1573   1.083   .     S
C1413  C541    1.397   1_565 S
C1414  O1748   1.385   .     S
C1414  C1435   1.398   .     A
C1415  C1446   1.397   .     A
C1415  O1749   1.384   .     S
C1416  C1457   1.398   .     A
C1416  O1751   1.385   .     S
C1417  C1468   1.398   .     A
C1417  O1752   1.385   .     S
C1418  C1479   1.397   .     A
C1418  O1753   1.385   .     S
C1419  O1754   1.385   .     S
C1419  C1490   1.398   .     A
C1420  O1755   1.385   .     S
C1421  O1756   1.385   .     S
C1422  O1757   1.384   .     S
C1423  O1758   1.385   .     S
C1424  H1584   1.084   .     S
C1425  O1759   1.385   .     S
C1425  C910    1.414   1_655 S
C1426  O1760   1.385   .     S
C1427  O1663   1.384   .     S
C1427  C469    1.415   1_565 S
C1428  C1446   1.396   .     A
C1428  C1429   1.463   1_554 S
C1429  C1457   1.397   .     A
C1429  C1428   1.463   1_556 S
C1430  C1468   1.397   .     A
C1430  C980    1.397   1_655 S
C1430  C1431   1.463   1_554 S
C1431  C1479   1.396   .     A
C1431  C1430   1.463   1_556 S
C1431  C991    1.396   1_655 S
C1432  C1433   1.463   .     S
C1434  C1436   1.463   .     S
C1434  C501    1.397   1_565 S
C1435  H1595   1.084   .     S
C1436  C468    1.396   1_565 S
C1437  O1750   1.282   .     A
C1438  O1662   1.281   .     A
C1438  O829    1.281   1_565 S
C1439  O1728   1.281   .     A
C1440  O1739   1.282   .     A
C1440  O1221   1.282   1_655 S
C1441  O1222   1.282   1_655 S
C1441  O1226   1.282   1_655 S
C1442  O1223   1.281   1_655 S
C1442  O1227   1.281   1_655 S
C1443  O1668   1.281   .     A
C1443  O1672   1.281   .     A
C1444  O1669   1.282   .     A
C1444  O1674   1.282   .     A
C1445  C1500   1.454   .     S
C1445  O1675   1.277   .     A
C1445  O1703   1.277   .     A
C1446  H1606   1.084   .     S
C1447  O1676   1.277   .     A
C1447  O1704   1.277   .     A
C1448  O1701   1.276   .     A
C1448  O1677   1.278   .     A
C1449  O1702   1.277   .     A
C1449  O1678   1.277   .     A
C1450  O1679   1.278   .     A
C1450  O1708   1.278   .     A
C1451  O1680   1.278   .     A
C1451  O1709   1.278   .     A
C1452  O1705   1.278   .     A
C1452  C1498   1.452   .     S
C1452  O1681   1.276   .     A
C1453  O1682   1.277   .     A
C1453  O1707   1.277   .     A
C1453  C1499   1.451   .     S
C1454  O1683   1.278   .     A
C1454  O1694   1.278   .     A
C1455  O1685   1.277   .     A
C1455  O1696   1.278   .     A
C1456  O1686   1.277   .     A
C1456  O1692   1.277   .     A
C1457  H1617   1.083   .     S
C1458  O1687   1.277   .     A
C1458  O1693   1.277   .     A
C1459  O1688   1.278   .     A
C1459  O1699   1.278   .     A
C1460  O1689   1.278   .     A
C1460  O1700   1.277   .     A
C1461  O1697   1.278   .     A
C1461  O1690   1.278   .     A
C1462  O1698   1.277   .     A
C1462  O1691   1.277   .     A
C1463  O1710   1.386   .     S
C1463  C1480   1.395   .     A
C1464  O1711   1.386   .     S
C1464  C1478   1.395   .     A
C1465  C1477   1.395   .     A
C1465  O1712   1.387   .     S
C1466  O1713   1.386   .     S
C1466  C1476   1.395   .     A
C1467  O1714   1.387   .     S
C1467  C1475   1.395   .     A
C1468  H1628   1.084   .     S
C1469  C1474   1.395   .     A
C1469  O1715   1.386   .     S
C1470  O1716   1.387   .     S
C1470  C1473   1.395   .     A
C1471  O1718   1.386   .     S
C1471  C1472   1.395   .     A
C1472  O1719   1.387   .     S
C1473  O1720   1.386   .     S
C1474  O1721   1.387   .     S
C1475  O1722   1.386   .     S
C1476  O1723   1.387   .     S
C1477  C1500   1.410   .     A
C1477  O1724   1.386   .     S
C1478  C1499   1.412   .     A
C1478  O1725   1.387   .     S
C1479  H1639   1.084   .     S
C1480  O1726   1.387   .     S
C1480  C1498   1.411   .     A
C1481  C1497   1.395   .     A
C1481  O1727   1.387   .     S
C1481  C1499   1.412   .     A
C1482  C1498   1.410   .     A
C1482  C1496   1.395   .     A
C1482  O1729   1.386   .     S
C1483  O1730   1.387   .     S
C1483  C1495   1.395   .     A
C1484  C1500   1.410   .     A
C1484  O1731   1.386   .     S
C1484  C1494   1.395   .     A
C1485  C1493   1.395   .     A
C1485  O1732   1.387   .     S
C1486  O1733   1.387   .     S
C1486  C1492   1.395   .     A
C1487  O1734   1.387   .     S
C1487  C1491   1.395   .     A
C1488  O1735   1.386   .     S
C1488  C1489   1.395   .     A
C1489  O1736   1.387   .     S
C1490  C988    1.396   1_655 A
C1490  H1650   1.084   .     S
C1491  O1737   1.386   .     S
C1492  O1738   1.386   .     S
C1493  O1740   1.386   .     S
C1494  O1741   1.387   .     S
C1495  O1742   1.386   .     S
C1496  O1743   1.387   .     S
C1497  O1744   1.386   .     S
H1518  C505    1.109   1_565 S
H1523  C951    1.114   1_655 S
H1527  C952    1.114   1_655 S
H1533  C510    1.114   1_565 S
O1661  Zn1772  1.944   .     S
O1661  Zn1761  1.944   .     S
O1661  Zn1764  1.944   .     S
O1662  Zn1763  1.942   .     S
O1664  Zn1766  1.941   .     S
O1664  C995    1.281   1_655 S
O1665  Zn1765  1.941   .     S
O1666  Zn1775  1.941   .     S
O1667  Zn1774  1.941   .     S
O1668  Zn1769  1.942   .     S
O1669  Zn1761  1.942   .     S
O1670  Zn1771  1.942   .     S
O1671  Zn1770  1.942   .     S
O1672  Zn1773  1.941   .     S
O1673  Zn1767  1.944   .     S
O1673  Zn1773  1.944   .     S
O1673  Zn1769  1.944   .     S
O1674  Zn1772  1.941   .     S
O1675  Zn1764  1.933   .     S
O1676  Zn1763  1.933   .     S
O1677  Zn1766  1.933   .     S
O1678  Zn1765  1.933   .     S
O1679  Zn1768  1.933   .     S
O1680  Zn1767  1.933   .     S
O1681  Zn1762  1.934   .     S
O1682  Zn1776  1.934   .     S
O1683  Zn1763  1.934   .     S
O1684  Zn1762  1.944   .     S
O1684  Zn1774  1.944   .     S
O1684  Zn1770  1.944   .     S
O1685  Zn1764  1.934   .     S
O1686  Zn1776  1.933   .     S
O1687  Zn1762  1.933   .     S
O1688  Zn1767  1.933   .     S
O1689  Zn1768  1.933   .     S
O1690  Zn1765  1.933   .     S
O1691  Zn1766  1.933   .     S
O1692  Zn1327  1.933   1_655 S
O1693  Zn1770  1.933   .     S
O1694  Zn885   1.933   1_565 S
O1695  Zn1775  1.944   .     S
O1695  Zn1771  1.944   .     S
O1695  Zn1765  1.944   .     S
O1696  Zn1772  1.933   .     S
O1697  Zn1775  1.933   .     S
O1698  Zn1330  1.933   1_655 S
O1699  Zn1769  1.934   .     S
O1700  Zn873   1.934   1_565 S
O1701  Zn1326  1.934   1_655 S
O1702  Zn1771  1.934   .     S
O1703  Zn1761  1.933   .     S
O1704  Zn881   1.933   1_565 S
O1705  Zn1774  1.933   .     S
O1706  Zn1768  1.941   .     S
O1706  C549    1.282   1_565 S
O1707  Zn1331  1.933   1_655 S
O1708  Zn884   1.933   1_565 S
O1709  Zn1773  1.933   .     S
O1717  Zn1767  1.941   .     S
O1728  Zn1762  1.942   .     S
O1739  Zn1776  1.942   .     S
O1745  C505    1.411   1_565 S
O1750  Zn1764  1.942   .     S
Zn1763 O785    1.944   1_565 S
Zn1766 O1240   1.944   1_655 S
Zn1768 O773    1.944   1_565 S
Zn1776 O1251   1.944   1_655 S
