data_str_m2_o1_o17_pcu_sym.82
_audit_creation_date              2020-01-03
_audit_creation_method            'Materials Studio'
_symmetry_space_group_name_H-M    'P1'
_symmetry_Int_Tables_number       1
_symmetry_cell_setting            triclinic
loop_
_symmetry_equiv_pos_as_xyz
  x,y,z
_cell_length_a                    32.7914
_cell_length_b                    28.8333
_cell_length_c                    30.0597
_cell_angle_alpha                 90.5480
_cell_angle_beta                  92.8100
_cell_angle_gamma                 90.2818
loop_
_atom_site_label
_atom_site_type_symbol
_atom_site_fract_x
_atom_site_fract_y
_atom_site_fract_z
_atom_site_U_iso_or_equiv
_atom_site_adp_type
_atom_site_occupancy
O1     O     0.10655   0.20625   0.24999   0.00000  Uiso   1.00
O2     O     0.22679   0.12709   0.25000   0.00000  Uiso   1.00
O3     O     0.22679   0.20625   0.25000   0.00000  Uiso   1.00
O4     O     0.10655   0.12709   0.24999   0.00000  Uiso   1.00
C5     C     0.08747   0.16661   0.25082   0.00000  Uiso   1.00
C6     C     0.24590   0.16673   0.24981   0.00000  Uiso   1.00
O7     O     0.16666   0.20627   0.18513   0.00000  Uiso   1.00
O8     O     0.16668   0.12707   0.31487   0.00000  Uiso   1.00
O9     O     0.16668   0.20627   0.31487   0.00000  Uiso   1.00
O10    O     0.16666   0.12707   0.18513   0.00000  Uiso   1.00
C11    C     0.16555   0.16646   0.16457   0.00000  Uiso   1.00
C12    C     0.16754   0.16672   0.33543   0.00000  Uiso   1.00
Cu13   Cu    0.16667   0.21355   0.25000   0.00000  Uiso   1.00
Cu14   Cu    0.16667   0.11978   0.25000   0.00000  Uiso   1.00
C15    C     0.20418   0.17538   0.40906   0.00000  Uiso   1.00
C16    C     0.12986   0.15602   0.09068   0.00000  Uiso   1.00
C17    C     0.16802   0.16557   0.38382   0.00000  Uiso   1.00
C18    C     0.16597   0.16532   0.11625   0.00000  Uiso   1.00
C19    C     0.13306   0.14950   0.40385   0.00000  Uiso   1.00
C20    C     0.20321   0.17173   0.09625   0.00000  Uiso   1.00
C21    C     0.13312   0.14523   0.45067   0.00000  Uiso   1.00
C22    C     0.20510   0.16763   0.04950   0.00000  Uiso   1.00
C23    C     0.16902   0.15739   0.47659   0.00000  Uiso   1.00
C24    C     0.16872   0.15761   0.02356   0.00000  Uiso   1.00
C25    C     0.20550   0.16849   0.45561   0.00000  Uiso   1.00
C26    C     0.13194   0.14781   0.04451   0.00000  Uiso   1.00
C27    C     0.09926   0.12705   0.47236   0.00000  Uiso   1.00
C28    C     0.24254   0.17039   0.02808   0.00000  Uiso   1.00
C29    C     0.09866   0.12825   0.01900   0.00000  Uiso   1.00
C30    C     0.24274   0.16984   0.48143   0.00000  Uiso   1.00
C31    C     0.02098   0.12454   0.25072   0.00000  Uiso   1.00
C32    C     0.31247   0.20882   0.25070   0.00000  Uiso   1.00
C33    C     0.31203   0.12460   0.24898   0.00000  Uiso   1.00
C34    C     0.02142   0.20876   0.25243   0.00000  Uiso   1.00
C35    C     0.29060   0.16675   0.24967   0.00000  Uiso   1.00
C36    C     0.04284   0.16661   0.25161   0.00000  Uiso   1.00
C37    C     0.14630   0.02419   0.21672   0.00000  Uiso   1.00
C38    C     0.18677   0.30914   0.28341   0.00000  Uiso   1.00
C39    C     0.18692   0.02514   0.28338   0.00000  Uiso   1.00
C40    C     0.14637   0.30818   0.21664   0.00000  Uiso   1.00
N41    N     0.16667   0.28402   0.25000   0.00000  Uiso   1.00
N42    N     0.16667   0.04931   0.25000   0.00000  Uiso   1.00
N43    N     0.23857   0.19474   0.38764   0.00000  Uiso   1.00
O44    O     0.25388   0.17351   0.35397   0.00000  Uiso   1.00
O45    O     0.25541   0.23310   0.40271   0.00000  Uiso   1.00
N46    N     0.09093   0.16181   0.11019   0.00000  Uiso   1.00
O47    O     0.08294   0.14179   0.14735   0.00000  Uiso   1.00
O48    O     0.06406   0.18970   0.09189   0.00000  Uiso   1.00
N49    N     0.09684   0.14122   0.37613   0.00000  Uiso   1.00
O50    O     0.07358   0.17595   0.36459   0.00000  Uiso   1.00
O51    O     0.09174   0.10153   0.35558   0.00000  Uiso   1.00
N52    N     0.23811   0.18589   0.12374   0.00000  Uiso   1.00
O53    O     0.24855   0.22946   0.12605   0.00000  Uiso   1.00
O54    O     0.25584   0.15651   0.15083   0.00000  Uiso   1.00
N55    N     0.06769   0.10187   0.44791   0.00000  Uiso   1.00
O56    O     0.03465   0.12297   0.43392   0.00000  Uiso   1.00
O57    O     0.06975   0.05691   0.44463   0.00000  Uiso   1.00
N58    N     0.28075   0.16668   0.05298   0.00000  Uiso   1.00
O59    O     0.30538   0.20214   0.05707   0.00000  Uiso   1.00
O60    O     0.29092   0.12757   0.07156   0.00000  Uiso   1.00
N61    N     0.06646   0.10427   0.04026   0.00000  Uiso   1.00
O62    O     0.02853   0.11071   0.02727   0.00000  Uiso   1.00
O63    O     0.07528   0.07216   0.06924   0.00000  Uiso   1.00
N64    N     0.28063   0.16179   0.46082   0.00000  Uiso   1.00
O65    O     0.31124   0.19034   0.46728   0.00000  Uiso   1.00
O66    O     0.28472   0.12487   0.43624   0.00000  Uiso   1.00
F67    F     0.04017   0.08296   0.25193   0.00000  Uiso   1.00
F68    F     0.29330   0.25041   0.24935   0.00000  Uiso   1.00
F69    F     0.29242   0.08306   0.24577   0.00000  Uiso   1.00
F70    F     0.04105   0.25031   0.25547   0.00000  Uiso   1.00
N71    N     0.12399   0.04728   0.18157   0.00000  Uiso   1.00
O72    O     0.08469   0.05124   0.18380   0.00000  Uiso   1.00
O73    O     0.13977   0.04978   0.14278   0.00000  Uiso   1.00
N74    N     0.20785   0.28599   0.31927   0.00000  Uiso   1.00
O75    O     0.24661   0.27784   0.31684   0.00000  Uiso   1.00
O76    O     0.19190   0.28568   0.35806   0.00000  Uiso   1.00
N77    N     0.20845   0.04927   0.31913   0.00000  Uiso   1.00
O78    O     0.24668   0.05996   0.31554   0.00000  Uiso   1.00
O79    O     0.19348   0.04978   0.35843   0.00000  Uiso   1.00
N80    N     0.12491   0.28404   0.18085   0.00000  Uiso   1.00
O81    O     0.08699   0.27217   0.18479   0.00000  Uiso   1.00
O82    O     0.13950   0.28440   0.14136   0.00000  Uiso   1.00
O83    O     0.43988   0.20625   0.24999   0.00000  Uiso   1.00
O84    O     0.56012   0.12709   0.25000   0.00000  Uiso   1.00
O85    O     0.56012   0.20625   0.25000   0.00000  Uiso   1.00
O86    O     0.43988   0.12709   0.24999   0.00000  Uiso   1.00
C87    C     0.42081   0.16661   0.25082   0.00000  Uiso   1.00
C88    C     0.57924   0.16673   0.24981   0.00000  Uiso   1.00
O89    O     0.49999   0.20627   0.18513   0.00000  Uiso   1.00
O90    O     0.50001   0.12707   0.31487   0.00000  Uiso   1.00
O91    O     0.50001   0.20627   0.31487   0.00000  Uiso   1.00
O92    O     0.49999   0.12707   0.18513   0.00000  Uiso   1.00
C93    C     0.49889   0.16646   0.16457   0.00000  Uiso   1.00
C94    C     0.50087   0.16672   0.33543   0.00000  Uiso   1.00
Cu95   Cu    0.50000   0.21355   0.25000   0.00000  Uiso   1.00
Cu96   Cu    0.50000   0.11978   0.25000   0.00000  Uiso   1.00
C97    C     0.53752   0.17538   0.40906   0.00000  Uiso   1.00
C98    C     0.46320   0.15602   0.09068   0.00000  Uiso   1.00
C99    C     0.50135   0.16557   0.38382   0.00000  Uiso   1.00
C100   C     0.49930   0.16532   0.11625   0.00000  Uiso   1.00
C101   C     0.46639   0.14950   0.40385   0.00000  Uiso   1.00
C102   C     0.53654   0.17173   0.09625   0.00000  Uiso   1.00
C103   C     0.46645   0.14523   0.45067   0.00000  Uiso   1.00
C104   C     0.53843   0.16763   0.04950   0.00000  Uiso   1.00
C105   C     0.50235   0.15739   0.47659   0.00000  Uiso   1.00
C106   C     0.50205   0.15761   0.02356   0.00000  Uiso   1.00
C107   C     0.53884   0.16849   0.45561   0.00000  Uiso   1.00
C108   C     0.46527   0.14781   0.04451   0.00000  Uiso   1.00
C109   C     0.43260   0.12705   0.47236   0.00000  Uiso   1.00
C110   C     0.57587   0.17039   0.02808   0.00000  Uiso   1.00
C111   C     0.43199   0.12825   0.01900   0.00000  Uiso   1.00
C112   C     0.57607   0.16984   0.48143   0.00000  Uiso   1.00
C113   C     0.35431   0.12454   0.25072   0.00000  Uiso   1.00
C114   C     0.64580   0.20882   0.25070   0.00000  Uiso   1.00
C115   C     0.64536   0.12460   0.24898   0.00000  Uiso   1.00
C116   C     0.35476   0.20876   0.25243   0.00000  Uiso   1.00
C117   C     0.62393   0.16675   0.24967   0.00000  Uiso   1.00
C118   C     0.37617   0.16661   0.25161   0.00000  Uiso   1.00
C119   C     0.47963   0.02419   0.21672   0.00000  Uiso   1.00
C120   C     0.52010   0.30914   0.28341   0.00000  Uiso   1.00
C121   C     0.52025   0.02514   0.28338   0.00000  Uiso   1.00
C122   C     0.47970   0.30818   0.21664   0.00000  Uiso   1.00
N123   N     0.50000   0.28402   0.25000   0.00000  Uiso   1.00
N124   N     0.50000   0.04931   0.25000   0.00000  Uiso   1.00
N125   N     0.57190   0.19474   0.38764   0.00000  Uiso   1.00
O126   O     0.58722   0.17351   0.35397   0.00000  Uiso   1.00
O127   O     0.58874   0.23310   0.40271   0.00000  Uiso   1.00
N128   N     0.42426   0.16181   0.11019   0.00000  Uiso   1.00
O129   O     0.41627   0.14179   0.14735   0.00000  Uiso   1.00
O130   O     0.39739   0.18970   0.09189   0.00000  Uiso   1.00
N131   N     0.43018   0.14122   0.37613   0.00000  Uiso   1.00
O132   O     0.40691   0.17595   0.36459   0.00000  Uiso   1.00
O133   O     0.42507   0.10153   0.35558   0.00000  Uiso   1.00
N134   N     0.57144   0.18589   0.12374   0.00000  Uiso   1.00
O135   O     0.58189   0.22946   0.12605   0.00000  Uiso   1.00
O136   O     0.58917   0.15651   0.15083   0.00000  Uiso   1.00
N137   N     0.40102   0.10187   0.44791   0.00000  Uiso   1.00
O138   O     0.36799   0.12297   0.43392   0.00000  Uiso   1.00
O139   O     0.40308   0.05691   0.44463   0.00000  Uiso   1.00
N140   N     0.61408   0.16668   0.05298   0.00000  Uiso   1.00
O141   O     0.63871   0.20214   0.05707   0.00000  Uiso   1.00
O142   O     0.62425   0.12757   0.07156   0.00000  Uiso   1.00
N143   N     0.39979   0.10427   0.04026   0.00000  Uiso   1.00
O144   O     0.36187   0.11071   0.02727   0.00000  Uiso   1.00
O145   O     0.40861   0.07216   0.06924   0.00000  Uiso   1.00
N146   N     0.61397   0.16179   0.46082   0.00000  Uiso   1.00
O147   O     0.64458   0.19034   0.46728   0.00000  Uiso   1.00
O148   O     0.61806   0.12487   0.43624   0.00000  Uiso   1.00
F149   F     0.37350   0.08296   0.25193   0.00000  Uiso   1.00
F150   F     0.62663   0.25041   0.24935   0.00000  Uiso   1.00
F151   F     0.62575   0.08306   0.24577   0.00000  Uiso   1.00
F152   F     0.37438   0.25031   0.25547   0.00000  Uiso   1.00
N153   N     0.45733   0.04728   0.18157   0.00000  Uiso   1.00
O154   O     0.41802   0.05124   0.18380   0.00000  Uiso   1.00
O155   O     0.47310   0.04978   0.14278   0.00000  Uiso   1.00
N156   N     0.54119   0.28599   0.31927   0.00000  Uiso   1.00
O157   O     0.57995   0.27784   0.31684   0.00000  Uiso   1.00
O158   O     0.52524   0.28568   0.35806   0.00000  Uiso   1.00
N159   N     0.54179   0.04927   0.31913   0.00000  Uiso   1.00
O160   O     0.58001   0.05996   0.31554   0.00000  Uiso   1.00
O161   O     0.52682   0.04978   0.35843   0.00000  Uiso   1.00
N162   N     0.45824   0.28404   0.18085   0.00000  Uiso   1.00
O163   O     0.42033   0.27217   0.18479   0.00000  Uiso   1.00
O164   O     0.47283   0.28440   0.14136   0.00000  Uiso   1.00
O165   O     0.77321   0.20625   0.24999   0.00000  Uiso   1.00
O166   O     0.89345   0.12709   0.25000   0.00000  Uiso   1.00
O167   O     0.89345   0.20625   0.25000   0.00000  Uiso   1.00
O168   O     0.77321   0.12709   0.24999   0.00000  Uiso   1.00
C169   C     0.75414   0.16661   0.25082   0.00000  Uiso   1.00
C170   C     0.91257   0.16673   0.24981   0.00000  Uiso   1.00
O171   O     0.83332   0.20627   0.18513   0.00000  Uiso   1.00
O172   O     0.83334   0.12707   0.31487   0.00000  Uiso   1.00
O173   O     0.83334   0.20627   0.31487   0.00000  Uiso   1.00
O174   O     0.83332   0.12707   0.18513   0.00000  Uiso   1.00
C175   C     0.83222   0.16646   0.16457   0.00000  Uiso   1.00
C176   C     0.83421   0.16672   0.33543   0.00000  Uiso   1.00
Cu177  Cu    0.83333   0.21355   0.25000   0.00000  Uiso   1.00
Cu178  Cu    0.83333   0.11978   0.25000   0.00000  Uiso   1.00
C179   C     0.87085   0.17538   0.40906   0.00000  Uiso   1.00
C180   C     0.79653   0.15602   0.09068   0.00000  Uiso   1.00
C181   C     0.83469   0.16557   0.38382   0.00000  Uiso   1.00
C182   C     0.83263   0.16532   0.11625   0.00000  Uiso   1.00
C183   C     0.79973   0.14950   0.40385   0.00000  Uiso   1.00
C184   C     0.86988   0.17173   0.09625   0.00000  Uiso   1.00
C185   C     0.79978   0.14523   0.45067   0.00000  Uiso   1.00
C186   C     0.87177   0.16763   0.04950   0.00000  Uiso   1.00
C187   C     0.83569   0.15739   0.47659   0.00000  Uiso   1.00
C188   C     0.83538   0.15761   0.02356   0.00000  Uiso   1.00
C189   C     0.87217   0.16849   0.45561   0.00000  Uiso   1.00
C190   C     0.79860   0.14781   0.04451   0.00000  Uiso   1.00
C191   C     0.76593   0.12705   0.47236   0.00000  Uiso   1.00
C192   C     0.90921   0.17039   0.02808   0.00000  Uiso   1.00
C193   C     0.76532   0.12825   0.01900   0.00000  Uiso   1.00
C194   C     0.90940   0.16984   0.48143   0.00000  Uiso   1.00
C195   C     0.68764   0.12454   0.25072   0.00000  Uiso   1.00
C196   C     0.97914   0.20882   0.25070   0.00000  Uiso   1.00
C197   C     0.97869   0.12460   0.24898   0.00000  Uiso   1.00
C198   C     0.68809   0.20876   0.25243   0.00000  Uiso   1.00
C199   C     0.95726   0.16675   0.24967   0.00000  Uiso   1.00
C200   C     0.70951   0.16661   0.25161   0.00000  Uiso   1.00
C201   C     0.81297   0.02419   0.21672   0.00000  Uiso   1.00
C202   C     0.85343   0.30914   0.28341   0.00000  Uiso   1.00
C203   C     0.85358   0.02514   0.28338   0.00000  Uiso   1.00
C204   C     0.81303   0.30818   0.21664   0.00000  Uiso   1.00
N205   N     0.83333   0.28402   0.25000   0.00000  Uiso   1.00
N206   N     0.83333   0.04931   0.25000   0.00000  Uiso   1.00
N207   N     0.90523   0.19474   0.38764   0.00000  Uiso   1.00
O208   O     0.92055   0.17351   0.35397   0.00000  Uiso   1.00
O209   O     0.92207   0.23310   0.40271   0.00000  Uiso   1.00
N210   N     0.75759   0.16181   0.11019   0.00000  Uiso   1.00
O211   O     0.74960   0.14179   0.14735   0.00000  Uiso   1.00
O212   O     0.73072   0.18970   0.09189   0.00000  Uiso   1.00
N213   N     0.76351   0.14122   0.37613   0.00000  Uiso   1.00
O214   O     0.74024   0.17595   0.36459   0.00000  Uiso   1.00
O215   O     0.75840   0.10153   0.35558   0.00000  Uiso   1.00
N216   N     0.90478   0.18589   0.12374   0.00000  Uiso   1.00
O217   O     0.91522   0.22946   0.12605   0.00000  Uiso   1.00
O218   O     0.92250   0.15651   0.15083   0.00000  Uiso   1.00
N219   N     0.73436   0.10187   0.44791   0.00000  Uiso   1.00
O220   O     0.70132   0.12297   0.43392   0.00000  Uiso   1.00
O221   O     0.73641   0.05691   0.44463   0.00000  Uiso   1.00
N222   N     0.94742   0.16668   0.05298   0.00000  Uiso   1.00
O223   O     0.97204   0.20214   0.05707   0.00000  Uiso   1.00
O224   O     0.95758   0.12757   0.07156   0.00000  Uiso   1.00
N225   N     0.73313   0.10427   0.04026   0.00000  Uiso   1.00
O226   O     0.69520   0.11071   0.02727   0.00000  Uiso   1.00
O227   O     0.74194   0.07216   0.06924   0.00000  Uiso   1.00
N228   N     0.94730   0.16179   0.46082   0.00000  Uiso   1.00
O229   O     0.97791   0.19034   0.46728   0.00000  Uiso   1.00
O230   O     0.95139   0.12487   0.43624   0.00000  Uiso   1.00
F231   F     0.70683   0.08296   0.25193   0.00000  Uiso   1.00
F232   F     0.95996   0.25041   0.24935   0.00000  Uiso   1.00
F233   F     0.95909   0.08306   0.24577   0.00000  Uiso   1.00
F234   F     0.70772   0.25031   0.25547   0.00000  Uiso   1.00
N235   N     0.79066   0.04728   0.18157   0.00000  Uiso   1.00
O236   O     0.75136   0.05124   0.18380   0.00000  Uiso   1.00
O237   O     0.80643   0.04978   0.14278   0.00000  Uiso   1.00
N238   N     0.87452   0.28599   0.31927   0.00000  Uiso   1.00
O239   O     0.91328   0.27784   0.31684   0.00000  Uiso   1.00
O240   O     0.85857   0.28568   0.35806   0.00000  Uiso   1.00
N241   N     0.87512   0.04927   0.31913   0.00000  Uiso   1.00
O242   O     0.91334   0.05996   0.31554   0.00000  Uiso   1.00
O243   O     0.86015   0.04978   0.35843   0.00000  Uiso   1.00
N244   N     0.79158   0.28404   0.18085   0.00000  Uiso   1.00
O245   O     0.75366   0.27217   0.18479   0.00000  Uiso   1.00
O246   O     0.80616   0.28440   0.14136   0.00000  Uiso   1.00
O247   O     0.10655   0.53958   0.24999   0.00000  Uiso   1.00
O248   O     0.22679   0.46042   0.25000   0.00000  Uiso   1.00
O249   O     0.22679   0.53958   0.25000   0.00000  Uiso   1.00
O250   O     0.10655   0.46042   0.24999   0.00000  Uiso   1.00
C251   C     0.08747   0.49995   0.25082   0.00000  Uiso   1.00
C252   C     0.24590   0.50007   0.24981   0.00000  Uiso   1.00
O253   O     0.16666   0.53960   0.18513   0.00000  Uiso   1.00
O254   O     0.16668   0.46040   0.31487   0.00000  Uiso   1.00
O255   O     0.16668   0.53960   0.31487   0.00000  Uiso   1.00
O256   O     0.16666   0.46040   0.18513   0.00000  Uiso   1.00
C257   C     0.16555   0.49979   0.16457   0.00000  Uiso   1.00
C258   C     0.16754   0.50005   0.33543   0.00000  Uiso   1.00
Cu259  Cu    0.16667   0.54689   0.25000   0.00000  Uiso   1.00
Cu260  Cu    0.16667   0.45311   0.25000   0.00000  Uiso   1.00
C261   C     0.20418   0.50871   0.40906   0.00000  Uiso   1.00
C262   C     0.12986   0.48935   0.09068   0.00000  Uiso   1.00
C263   C     0.16802   0.49890   0.38382   0.00000  Uiso   1.00
C264   C     0.16597   0.49865   0.11625   0.00000  Uiso   1.00
C265   C     0.13306   0.48283   0.40385   0.00000  Uiso   1.00
C266   C     0.20321   0.50506   0.09625   0.00000  Uiso   1.00
C267   C     0.13312   0.47856   0.45067   0.00000  Uiso   1.00
C268   C     0.20510   0.50097   0.04950   0.00000  Uiso   1.00
C269   C     0.16902   0.49072   0.47659   0.00000  Uiso   1.00
C270   C     0.16872   0.49094   0.02356   0.00000  Uiso   1.00
C271   C     0.20550   0.50183   0.45561   0.00000  Uiso   1.00
C272   C     0.13194   0.48114   0.04451   0.00000  Uiso   1.00
C273   C     0.09926   0.46039   0.47236   0.00000  Uiso   1.00
C274   C     0.24254   0.50372   0.02808   0.00000  Uiso   1.00
C275   C     0.09866   0.46159   0.01900   0.00000  Uiso   1.00
C276   C     0.24274   0.50317   0.48143   0.00000  Uiso   1.00
C277   C     0.02098   0.45788   0.25072   0.00000  Uiso   1.00
C278   C     0.31247   0.54216   0.25070   0.00000  Uiso   1.00
C279   C     0.31203   0.45794   0.24898   0.00000  Uiso   1.00
C280   C     0.02142   0.54209   0.25243   0.00000  Uiso   1.00
C281   C     0.29060   0.50008   0.24967   0.00000  Uiso   1.00
C282   C     0.04284   0.49995   0.25161   0.00000  Uiso   1.00
C283   C     0.14630   0.35752   0.21672   0.00000  Uiso   1.00
C284   C     0.18677   0.64248   0.28341   0.00000  Uiso   1.00
C285   C     0.18692   0.35847   0.28338   0.00000  Uiso   1.00
C286   C     0.14637   0.64152   0.21664   0.00000  Uiso   1.00
N287   N     0.16667   0.61736   0.25000   0.00000  Uiso   1.00
N288   N     0.16667   0.38264   0.25000   0.00000  Uiso   1.00
N289   N     0.23857   0.52807   0.38764   0.00000  Uiso   1.00
O290   O     0.25388   0.50685   0.35397   0.00000  Uiso   1.00
O291   O     0.25541   0.56643   0.40271   0.00000  Uiso   1.00
N292   N     0.09093   0.49515   0.11019   0.00000  Uiso   1.00
O293   O     0.08294   0.47512   0.14735   0.00000  Uiso   1.00
O294   O     0.06406   0.52303   0.09189   0.00000  Uiso   1.00
N295   N     0.09684   0.47456   0.37613   0.00000  Uiso   1.00
O296   O     0.07358   0.50928   0.36459   0.00000  Uiso   1.00
O297   O     0.09174   0.43487   0.35558   0.00000  Uiso   1.00
N298   N     0.23811   0.51922   0.12374   0.00000  Uiso   1.00
O299   O     0.24855   0.56279   0.12605   0.00000  Uiso   1.00
O300   O     0.25584   0.48984   0.15083   0.00000  Uiso   1.00
N301   N     0.06769   0.43520   0.44791   0.00000  Uiso   1.00
O302   O     0.03465   0.45631   0.43392   0.00000  Uiso   1.00
O303   O     0.06975   0.39025   0.44463   0.00000  Uiso   1.00
N304   N     0.28075   0.50001   0.05298   0.00000  Uiso   1.00
O305   O     0.30538   0.53547   0.05707   0.00000  Uiso   1.00
O306   O     0.29092   0.46090   0.07156   0.00000  Uiso   1.00
N307   N     0.06646   0.43760   0.04026   0.00000  Uiso   1.00
O308   O     0.02853   0.44404   0.02727   0.00000  Uiso   1.00
O309   O     0.07528   0.40549   0.06924   0.00000  Uiso   1.00
N310   N     0.28063   0.49512   0.46082   0.00000  Uiso   1.00
O311   O     0.31124   0.52367   0.46728   0.00000  Uiso   1.00
O312   O     0.28472   0.45820   0.43624   0.00000  Uiso   1.00
F313   F     0.04017   0.41629   0.25193   0.00000  Uiso   1.00
F314   F     0.29330   0.58375   0.24935   0.00000  Uiso   1.00
F315   F     0.29242   0.41639   0.24577   0.00000  Uiso   1.00
F316   F     0.04105   0.58364   0.25547   0.00000  Uiso   1.00
N317   N     0.12399   0.38061   0.18157   0.00000  Uiso   1.00
O318   O     0.08469   0.38457   0.18380   0.00000  Uiso   1.00
O319   O     0.13977   0.38311   0.14278   0.00000  Uiso   1.00
N320   N     0.20785   0.61932   0.31927   0.00000  Uiso   1.00
O321   O     0.24661   0.61117   0.31684   0.00000  Uiso   1.00
O322   O     0.19190   0.61901   0.35806   0.00000  Uiso   1.00
N323   N     0.20845   0.38261   0.31913   0.00000  Uiso   1.00
O324   O     0.24668   0.39330   0.31554   0.00000  Uiso   1.00
O325   O     0.19348   0.38311   0.35843   0.00000  Uiso   1.00
N326   N     0.12491   0.61737   0.18085   0.00000  Uiso   1.00
O327   O     0.08699   0.60550   0.18479   0.00000  Uiso   1.00
O328   O     0.13950   0.61773   0.14136   0.00000  Uiso   1.00
O329   O     0.43988   0.53958   0.24999   0.00000  Uiso   1.00
O330   O     0.56012   0.46042   0.25000   0.00000  Uiso   1.00
O331   O     0.56012   0.53958   0.25000   0.00000  Uiso   1.00
O332   O     0.43988   0.46042   0.24999   0.00000  Uiso   1.00
C333   C     0.42081   0.49995   0.25082   0.00000  Uiso   1.00
C334   C     0.57924   0.50007   0.24981   0.00000  Uiso   1.00
O335   O     0.49999   0.53960   0.18513   0.00000  Uiso   1.00
O336   O     0.50001   0.46040   0.31487   0.00000  Uiso   1.00
O337   O     0.50001   0.53960   0.31487   0.00000  Uiso   1.00
O338   O     0.49999   0.46040   0.18513   0.00000  Uiso   1.00
C339   C     0.49889   0.49979   0.16457   0.00000  Uiso   1.00
C340   C     0.50087   0.50005   0.33543   0.00000  Uiso   1.00
Cu341  Cu    0.50000   0.54689   0.25000   0.00000  Uiso   1.00
Cu342  Cu    0.50000   0.45311   0.25000   0.00000  Uiso   1.00
C343   C     0.53752   0.50871   0.40906   0.00000  Uiso   1.00
C344   C     0.46320   0.48935   0.09068   0.00000  Uiso   1.00
C345   C     0.50135   0.49890   0.38382   0.00000  Uiso   1.00
C346   C     0.49930   0.49865   0.11625   0.00000  Uiso   1.00
C347   C     0.46639   0.48283   0.40385   0.00000  Uiso   1.00
C348   C     0.53654   0.50506   0.09625   0.00000  Uiso   1.00
C349   C     0.46645   0.47856   0.45067   0.00000  Uiso   1.00
C350   C     0.53843   0.50097   0.04950   0.00000  Uiso   1.00
C351   C     0.50235   0.49072   0.47659   0.00000  Uiso   1.00
C352   C     0.50205   0.49094   0.02356   0.00000  Uiso   1.00
C353   C     0.53884   0.50183   0.45561   0.00000  Uiso   1.00
C354   C     0.46527   0.48114   0.04451   0.00000  Uiso   1.00
C355   C     0.43260   0.46039   0.47236   0.00000  Uiso   1.00
C356   C     0.57587   0.50372   0.02808   0.00000  Uiso   1.00
C357   C     0.43199   0.46159   0.01900   0.00000  Uiso   1.00
C358   C     0.57607   0.50317   0.48143   0.00000  Uiso   1.00
C359   C     0.35431   0.45788   0.25072   0.00000  Uiso   1.00
C360   C     0.64580   0.54216   0.25070   0.00000  Uiso   1.00
C361   C     0.64536   0.45794   0.24898   0.00000  Uiso   1.00
C362   C     0.35476   0.54209   0.25243   0.00000  Uiso   1.00
C363   C     0.62393   0.50008   0.24967   0.00000  Uiso   1.00
C364   C     0.37617   0.49995   0.25161   0.00000  Uiso   1.00
C365   C     0.47963   0.35752   0.21672   0.00000  Uiso   1.00
C366   C     0.52010   0.64248   0.28341   0.00000  Uiso   1.00
C367   C     0.52025   0.35847   0.28338   0.00000  Uiso   1.00
C368   C     0.47970   0.64152   0.21664   0.00000  Uiso   1.00
N369   N     0.50000   0.61736   0.25000   0.00000  Uiso   1.00
N370   N     0.50000   0.38264   0.25000   0.00000  Uiso   1.00
N371   N     0.57190   0.52807   0.38764   0.00000  Uiso   1.00
O372   O     0.58722   0.50685   0.35397   0.00000  Uiso   1.00
O373   O     0.58874   0.56643   0.40271   0.00000  Uiso   1.00
N374   N     0.42426   0.49515   0.11019   0.00000  Uiso   1.00
O375   O     0.41627   0.47512   0.14735   0.00000  Uiso   1.00
O376   O     0.39739   0.52303   0.09189   0.00000  Uiso   1.00
N377   N     0.43018   0.47456   0.37613   0.00000  Uiso   1.00
O378   O     0.40691   0.50928   0.36459   0.00000  Uiso   1.00
O379   O     0.42507   0.43487   0.35558   0.00000  Uiso   1.00
N380   N     0.57144   0.51922   0.12374   0.00000  Uiso   1.00
O381   O     0.58189   0.56279   0.12605   0.00000  Uiso   1.00
O382   O     0.58917   0.48984   0.15083   0.00000  Uiso   1.00
N383   N     0.40102   0.43520   0.44791   0.00000  Uiso   1.00
O384   O     0.36799   0.45631   0.43392   0.00000  Uiso   1.00
O385   O     0.40308   0.39025   0.44463   0.00000  Uiso   1.00
N386   N     0.61408   0.50001   0.05298   0.00000  Uiso   1.00
O387   O     0.63871   0.53547   0.05707   0.00000  Uiso   1.00
O388   O     0.62425   0.46090   0.07156   0.00000  Uiso   1.00
N389   N     0.39979   0.43760   0.04026   0.00000  Uiso   1.00
O390   O     0.36187   0.44404   0.02727   0.00000  Uiso   1.00
O391   O     0.40861   0.40549   0.06924   0.00000  Uiso   1.00
N392   N     0.61397   0.49512   0.46082   0.00000  Uiso   1.00
O393   O     0.64458   0.52367   0.46728   0.00000  Uiso   1.00
O394   O     0.61806   0.45820   0.43624   0.00000  Uiso   1.00
F395   F     0.37350   0.41629   0.25193   0.00000  Uiso   1.00
F396   F     0.62663   0.58375   0.24935   0.00000  Uiso   1.00
F397   F     0.62575   0.41639   0.24577   0.00000  Uiso   1.00
F398   F     0.37438   0.58364   0.25547   0.00000  Uiso   1.00
N399   N     0.45733   0.38061   0.18157   0.00000  Uiso   1.00
O400   O     0.41802   0.38457   0.18380   0.00000  Uiso   1.00
O401   O     0.47310   0.38311   0.14278   0.00000  Uiso   1.00
N402   N     0.54119   0.61932   0.31927   0.00000  Uiso   1.00
O403   O     0.57995   0.61117   0.31684   0.00000  Uiso   1.00
O404   O     0.52524   0.61901   0.35806   0.00000  Uiso   1.00
N405   N     0.54179   0.38261   0.31913   0.00000  Uiso   1.00
O406   O     0.58001   0.39330   0.31554   0.00000  Uiso   1.00
O407   O     0.52682   0.38311   0.35843   0.00000  Uiso   1.00
N408   N     0.45824   0.61737   0.18085   0.00000  Uiso   1.00
O409   O     0.42033   0.60550   0.18479   0.00000  Uiso   1.00
O410   O     0.47283   0.61773   0.14136   0.00000  Uiso   1.00
O411   O     0.77321   0.53958   0.24999   0.00000  Uiso   1.00
O412   O     0.89345   0.46042   0.25000   0.00000  Uiso   1.00
O413   O     0.89345   0.53958   0.25000   0.00000  Uiso   1.00
O414   O     0.77321   0.46042   0.24999   0.00000  Uiso   1.00
C415   C     0.75414   0.49995   0.25082   0.00000  Uiso   1.00
C416   C     0.91257   0.50007   0.24981   0.00000  Uiso   1.00
O417   O     0.83332   0.53960   0.18513   0.00000  Uiso   1.00
O418   O     0.83334   0.46040   0.31487   0.00000  Uiso   1.00
O419   O     0.83334   0.53960   0.31487   0.00000  Uiso   1.00
O420   O     0.83332   0.46040   0.18513   0.00000  Uiso   1.00
C421   C     0.83222   0.49979   0.16457   0.00000  Uiso   1.00
C422   C     0.83421   0.50005   0.33543   0.00000  Uiso   1.00
Cu423  Cu    0.83333   0.54689   0.25000   0.00000  Uiso   1.00
Cu424  Cu    0.83333   0.45311   0.25000   0.00000  Uiso   1.00
C425   C     0.87085   0.50871   0.40906   0.00000  Uiso   1.00
C426   C     0.79653   0.48935   0.09068   0.00000  Uiso   1.00
C427   C     0.83469   0.49890   0.38382   0.00000  Uiso   1.00
C428   C     0.83263   0.49865   0.11625   0.00000  Uiso   1.00
C429   C     0.79973   0.48283   0.40385   0.00000  Uiso   1.00
C430   C     0.86988   0.50506   0.09625   0.00000  Uiso   1.00
C431   C     0.79978   0.47856   0.45067   0.00000  Uiso   1.00
C432   C     0.87177   0.50097   0.04950   0.00000  Uiso   1.00
C433   C     0.83569   0.49072   0.47659   0.00000  Uiso   1.00
C434   C     0.83538   0.49094   0.02356   0.00000  Uiso   1.00
C435   C     0.87217   0.50183   0.45561   0.00000  Uiso   1.00
C436   C     0.79860   0.48114   0.04451   0.00000  Uiso   1.00
C437   C     0.76593   0.46039   0.47236   0.00000  Uiso   1.00
C438   C     0.90921   0.50372   0.02808   0.00000  Uiso   1.00
C439   C     0.76532   0.46159   0.01900   0.00000  Uiso   1.00
C440   C     0.90940   0.50317   0.48143   0.00000  Uiso   1.00
C441   C     0.68764   0.45788   0.25072   0.00000  Uiso   1.00
C442   C     0.97914   0.54216   0.25070   0.00000  Uiso   1.00
C443   C     0.97869   0.45794   0.24898   0.00000  Uiso   1.00
C444   C     0.68809   0.54209   0.25243   0.00000  Uiso   1.00
C445   C     0.95726   0.50008   0.24967   0.00000  Uiso   1.00
C446   C     0.70951   0.49995   0.25161   0.00000  Uiso   1.00
C447   C     0.81297   0.35752   0.21672   0.00000  Uiso   1.00
C448   C     0.85343   0.64248   0.28341   0.00000  Uiso   1.00
C449   C     0.85358   0.35847   0.28338   0.00000  Uiso   1.00
C450   C     0.81303   0.64152   0.21664   0.00000  Uiso   1.00
N451   N     0.83333   0.61736   0.25000   0.00000  Uiso   1.00
N452   N     0.83333   0.38264   0.25000   0.00000  Uiso   1.00
N453   N     0.90523   0.52807   0.38764   0.00000  Uiso   1.00
O454   O     0.92055   0.50685   0.35397   0.00000  Uiso   1.00
O455   O     0.92207   0.56643   0.40271   0.00000  Uiso   1.00
N456   N     0.75759   0.49515   0.11019   0.00000  Uiso   1.00
O457   O     0.74960   0.47512   0.14735   0.00000  Uiso   1.00
O458   O     0.73072   0.52303   0.09189   0.00000  Uiso   1.00
N459   N     0.76351   0.47456   0.37613   0.00000  Uiso   1.00
O460   O     0.74024   0.50928   0.36459   0.00000  Uiso   1.00
O461   O     0.75840   0.43487   0.35558   0.00000  Uiso   1.00
N462   N     0.90478   0.51922   0.12374   0.00000  Uiso   1.00
O463   O     0.91522   0.56279   0.12605   0.00000  Uiso   1.00
O464   O     0.92250   0.48984   0.15083   0.00000  Uiso   1.00
N465   N     0.73436   0.43520   0.44791   0.00000  Uiso   1.00
O466   O     0.70132   0.45631   0.43392   0.00000  Uiso   1.00
O467   O     0.73641   0.39025   0.44463   0.00000  Uiso   1.00
N468   N     0.94742   0.50001   0.05298   0.00000  Uiso   1.00
O469   O     0.97204   0.53547   0.05707   0.00000  Uiso   1.00
O470   O     0.95758   0.46090   0.07156   0.00000  Uiso   1.00
N471   N     0.73313   0.43760   0.04026   0.00000  Uiso   1.00
O472   O     0.69520   0.44404   0.02727   0.00000  Uiso   1.00
O473   O     0.74194   0.40549   0.06924   0.00000  Uiso   1.00
N474   N     0.94730   0.49512   0.46082   0.00000  Uiso   1.00
O475   O     0.97791   0.52367   0.46728   0.00000  Uiso   1.00
O476   O     0.95139   0.45820   0.43624   0.00000  Uiso   1.00
F477   F     0.70683   0.41629   0.25193   0.00000  Uiso   1.00
F478   F     0.95996   0.58375   0.24935   0.00000  Uiso   1.00
F479   F     0.95909   0.41639   0.24577   0.00000  Uiso   1.00
F480   F     0.70772   0.58364   0.25547   0.00000  Uiso   1.00
N481   N     0.79066   0.38061   0.18157   0.00000  Uiso   1.00
O482   O     0.75136   0.38457   0.18380   0.00000  Uiso   1.00
O483   O     0.80643   0.38311   0.14278   0.00000  Uiso   1.00
N484   N     0.87452   0.61932   0.31927   0.00000  Uiso   1.00
O485   O     0.91328   0.61117   0.31684   0.00000  Uiso   1.00
O486   O     0.85857   0.61901   0.35806   0.00000  Uiso   1.00
N487   N     0.87512   0.38261   0.31913   0.00000  Uiso   1.00
O488   O     0.91334   0.39330   0.31554   0.00000  Uiso   1.00
O489   O     0.86015   0.38311   0.35843   0.00000  Uiso   1.00
N490   N     0.79158   0.61737   0.18085   0.00000  Uiso   1.00
O491   O     0.75366   0.60550   0.18479   0.00000  Uiso   1.00
O492   O     0.80616   0.61773   0.14136   0.00000  Uiso   1.00
O493   O     0.10655   0.87291   0.24999   0.00000  Uiso   1.00
O494   O     0.22679   0.79375   0.25000   0.00000  Uiso   1.00
O495   O     0.22679   0.87291   0.25000   0.00000  Uiso   1.00
O496   O     0.10655   0.79375   0.24999   0.00000  Uiso   1.00
C497   C     0.08747   0.83328   0.25082   0.00000  Uiso   1.00
C498   C     0.24590   0.83340   0.24981   0.00000  Uiso   1.00
O499   O     0.16666   0.87293   0.18513   0.00000  Uiso   1.00
O500   O     0.16668   0.79373   0.31487   0.00000  Uiso   1.00
O501   O     0.16668   0.87293   0.31487   0.00000  Uiso   1.00
O502   O     0.16666   0.79373   0.18513   0.00000  Uiso   1.00
C503   C     0.16555   0.83313   0.16457   0.00000  Uiso   1.00
C504   C     0.16754   0.83339   0.33543   0.00000  Uiso   1.00
Cu505  Cu    0.16667   0.88022   0.25000   0.00000  Uiso   1.00
Cu506  Cu    0.16667   0.78645   0.25000   0.00000  Uiso   1.00
C507   C     0.20418   0.84204   0.40906   0.00000  Uiso   1.00
C508   C     0.12986   0.82269   0.09068   0.00000  Uiso   1.00
C509   C     0.16802   0.83223   0.38382   0.00000  Uiso   1.00
C510   C     0.16597   0.83198   0.11625   0.00000  Uiso   1.00
C511   C     0.13306   0.81617   0.40385   0.00000  Uiso   1.00
C512   C     0.20321   0.83839   0.09625   0.00000  Uiso   1.00
C513   C     0.13312   0.81190   0.45067   0.00000  Uiso   1.00
C514   C     0.20510   0.83430   0.04950   0.00000  Uiso   1.00
C515   C     0.16902   0.82405   0.47659   0.00000  Uiso   1.00
C516   C     0.16872   0.82428   0.02356   0.00000  Uiso   1.00
C517   C     0.20550   0.83516   0.45561   0.00000  Uiso   1.00
C518   C     0.13194   0.81448   0.04451   0.00000  Uiso   1.00
C519   C     0.09926   0.79372   0.47236   0.00000  Uiso   1.00
C520   C     0.24254   0.83705   0.02808   0.00000  Uiso   1.00
C521   C     0.09866   0.79492   0.01900   0.00000  Uiso   1.00
C522   C     0.24274   0.83651   0.48143   0.00000  Uiso   1.00
C523   C     0.02098   0.79121   0.25072   0.00000  Uiso   1.00
C524   C     0.31247   0.87549   0.25070   0.00000  Uiso   1.00
C525   C     0.31203   0.79127   0.24898   0.00000  Uiso   1.00
C526   C     0.02142   0.87543   0.25243   0.00000  Uiso   1.00
C527   C     0.29060   0.83342   0.24967   0.00000  Uiso   1.00
C528   C     0.04284   0.83328   0.25161   0.00000  Uiso   1.00
C529   C     0.14630   0.69086   0.21672   0.00000  Uiso   1.00
C530   C     0.18677   0.97581   0.28341   0.00000  Uiso   1.00
C531   C     0.18692   0.69181   0.28338   0.00000  Uiso   1.00
C532   C     0.14637   0.97485   0.21664   0.00000  Uiso   1.00
N533   N     0.16667   0.95069   0.25000   0.00000  Uiso   1.00
N534   N     0.16667   0.71598   0.25000   0.00000  Uiso   1.00
N535   N     0.23857   0.86140   0.38764   0.00000  Uiso   1.00
O536   O     0.25388   0.84018   0.35397   0.00000  Uiso   1.00
O537   O     0.25541   0.89977   0.40271   0.00000  Uiso   1.00
N538   N     0.09093   0.82848   0.11019   0.00000  Uiso   1.00
O539   O     0.08294   0.80846   0.14735   0.00000  Uiso   1.00
O540   O     0.06406   0.85636   0.09189   0.00000  Uiso   1.00
N541   N     0.09684   0.80789   0.37613   0.00000  Uiso   1.00
O542   O     0.07358   0.84261   0.36459   0.00000  Uiso   1.00
O543   O     0.09174   0.76820   0.35558   0.00000  Uiso   1.00
N544   N     0.23811   0.85256   0.12374   0.00000  Uiso   1.00
O545   O     0.24855   0.89613   0.12605   0.00000  Uiso   1.00
O546   O     0.25584   0.82317   0.15083   0.00000  Uiso   1.00
N547   N     0.06769   0.76853   0.44791   0.00000  Uiso   1.00
O548   O     0.03465   0.78964   0.43392   0.00000  Uiso   1.00
O549   O     0.06975   0.72358   0.44463   0.00000  Uiso   1.00
N550   N     0.28075   0.83334   0.05298   0.00000  Uiso   1.00
O551   O     0.30538   0.86881   0.05707   0.00000  Uiso   1.00
O552   O     0.29092   0.79423   0.07156   0.00000  Uiso   1.00
N553   N     0.06646   0.77094   0.04026   0.00000  Uiso   1.00
O554   O     0.02853   0.77737   0.02727   0.00000  Uiso   1.00
O555   O     0.07528   0.73883   0.06924   0.00000  Uiso   1.00
N556   N     0.28063   0.82846   0.46082   0.00000  Uiso   1.00
O557   O     0.31124   0.85701   0.46728   0.00000  Uiso   1.00
O558   O     0.28472   0.79154   0.43624   0.00000  Uiso   1.00
F559   F     0.04017   0.74963   0.25193   0.00000  Uiso   1.00
F560   F     0.29330   0.91708   0.24935   0.00000  Uiso   1.00
F561   F     0.29242   0.74973   0.24577   0.00000  Uiso   1.00
F562   F     0.04105   0.91697   0.25547   0.00000  Uiso   1.00
N563   N     0.12399   0.71394   0.18157   0.00000  Uiso   1.00
O564   O     0.08469   0.71790   0.18380   0.00000  Uiso   1.00
O565   O     0.13977   0.71644   0.14278   0.00000  Uiso   1.00
N566   N     0.20785   0.95266   0.31927   0.00000  Uiso   1.00
O567   O     0.24661   0.94451   0.31684   0.00000  Uiso   1.00
O568   O     0.19190   0.95234   0.35806   0.00000  Uiso   1.00
N569   N     0.20845   0.71594   0.31913   0.00000  Uiso   1.00
O570   O     0.24668   0.72663   0.31554   0.00000  Uiso   1.00
O571   O     0.19348   0.71644   0.35843   0.00000  Uiso   1.00
N572   N     0.12491   0.95070   0.18085   0.00000  Uiso   1.00
O573   O     0.08699   0.93884   0.18479   0.00000  Uiso   1.00
O574   O     0.13950   0.95107   0.14136   0.00000  Uiso   1.00
O575   O     0.43988   0.87291   0.24999   0.00000  Uiso   1.00
O576   O     0.56012   0.79375   0.25000   0.00000  Uiso   1.00
O577   O     0.56012   0.87291   0.25000   0.00000  Uiso   1.00
O578   O     0.43988   0.79375   0.24999   0.00000  Uiso   1.00
C579   C     0.42081   0.83328   0.25082   0.00000  Uiso   1.00
C580   C     0.57924   0.83340   0.24981   0.00000  Uiso   1.00
O581   O     0.49999   0.87293   0.18513   0.00000  Uiso   1.00
O582   O     0.50001   0.79373   0.31487   0.00000  Uiso   1.00
O583   O     0.50001   0.87293   0.31487   0.00000  Uiso   1.00
O584   O     0.49999   0.79373   0.18513   0.00000  Uiso   1.00
C585   C     0.49889   0.83313   0.16457   0.00000  Uiso   1.00
C586   C     0.50087   0.83339   0.33543   0.00000  Uiso   1.00
Cu587  Cu    0.50000   0.88022   0.25000   0.00000  Uiso   1.00
Cu588  Cu    0.50000   0.78645   0.25000   0.00000  Uiso   1.00
C589   C     0.53752   0.84204   0.40906   0.00000  Uiso   1.00
C590   C     0.46320   0.82269   0.09068   0.00000  Uiso   1.00
C591   C     0.50135   0.83223   0.38382   0.00000  Uiso   1.00
C592   C     0.49930   0.83198   0.11625   0.00000  Uiso   1.00
C593   C     0.46639   0.81617   0.40385   0.00000  Uiso   1.00
C594   C     0.53654   0.83839   0.09625   0.00000  Uiso   1.00
C595   C     0.46645   0.81190   0.45067   0.00000  Uiso   1.00
C596   C     0.53843   0.83430   0.04950   0.00000  Uiso   1.00
C597   C     0.50235   0.82405   0.47659   0.00000  Uiso   1.00
C598   C     0.50205   0.82428   0.02356   0.00000  Uiso   1.00
C599   C     0.53884   0.83516   0.45561   0.00000  Uiso   1.00
C600   C     0.46527   0.81448   0.04451   0.00000  Uiso   1.00
C601   C     0.43260   0.79372   0.47236   0.00000  Uiso   1.00
C602   C     0.57587   0.83705   0.02808   0.00000  Uiso   1.00
C603   C     0.43199   0.79492   0.01900   0.00000  Uiso   1.00
C604   C     0.57607   0.83651   0.48143   0.00000  Uiso   1.00
C605   C     0.35431   0.79121   0.25072   0.00000  Uiso   1.00
C606   C     0.64580   0.87549   0.25070   0.00000  Uiso   1.00
C607   C     0.64536   0.79127   0.24898   0.00000  Uiso   1.00
C608   C     0.35476   0.87543   0.25243   0.00000  Uiso   1.00
C609   C     0.62393   0.83342   0.24967   0.00000  Uiso   1.00
C610   C     0.37617   0.83328   0.25161   0.00000  Uiso   1.00
C611   C     0.47963   0.69086   0.21672   0.00000  Uiso   1.00
C612   C     0.52010   0.97581   0.28341   0.00000  Uiso   1.00
C613   C     0.52025   0.69181   0.28338   0.00000  Uiso   1.00
C614   C     0.47970   0.97485   0.21664   0.00000  Uiso   1.00
N615   N     0.50000   0.95069   0.25000   0.00000  Uiso   1.00
N616   N     0.50000   0.71598   0.25000   0.00000  Uiso   1.00
N617   N     0.57190   0.86140   0.38764   0.00000  Uiso   1.00
O618   O     0.58722   0.84018   0.35397   0.00000  Uiso   1.00
O619   O     0.58874   0.89977   0.40271   0.00000  Uiso   1.00
N620   N     0.42426   0.82848   0.11019   0.00000  Uiso   1.00
O621   O     0.41627   0.80846   0.14735   0.00000  Uiso   1.00
O622   O     0.39739   0.85636   0.09189   0.00000  Uiso   1.00
N623   N     0.43018   0.80789   0.37613   0.00000  Uiso   1.00
O624   O     0.40691   0.84261   0.36459   0.00000  Uiso   1.00
O625   O     0.42507   0.76820   0.35558   0.00000  Uiso   1.00
N626   N     0.57144   0.85256   0.12374   0.00000  Uiso   1.00
O627   O     0.58189   0.89613   0.12605   0.00000  Uiso   1.00
O628   O     0.58917   0.82317   0.15083   0.00000  Uiso   1.00
N629   N     0.40102   0.76853   0.44791   0.00000  Uiso   1.00
O630   O     0.36799   0.78964   0.43392   0.00000  Uiso   1.00
O631   O     0.40308   0.72358   0.44463   0.00000  Uiso   1.00
N632   N     0.61408   0.83334   0.05298   0.00000  Uiso   1.00
O633   O     0.63871   0.86881   0.05707   0.00000  Uiso   1.00
O634   O     0.62425   0.79423   0.07156   0.00000  Uiso   1.00
N635   N     0.39979   0.77094   0.04026   0.00000  Uiso   1.00
O636   O     0.36187   0.77737   0.02727   0.00000  Uiso   1.00
O637   O     0.40861   0.73883   0.06924   0.00000  Uiso   1.00
N638   N     0.61397   0.82846   0.46082   0.00000  Uiso   1.00
O639   O     0.64458   0.85701   0.46728   0.00000  Uiso   1.00
O640   O     0.61806   0.79154   0.43624   0.00000  Uiso   1.00
F641   F     0.37350   0.74963   0.25193   0.00000  Uiso   1.00
F642   F     0.62663   0.91708   0.24935   0.00000  Uiso   1.00
F643   F     0.62575   0.74973   0.24577   0.00000  Uiso   1.00
F644   F     0.37438   0.91697   0.25547   0.00000  Uiso   1.00
N645   N     0.45733   0.71394   0.18157   0.00000  Uiso   1.00
O646   O     0.41802   0.71790   0.18380   0.00000  Uiso   1.00
O647   O     0.47310   0.71644   0.14278   0.00000  Uiso   1.00
N648   N     0.54119   0.95266   0.31927   0.00000  Uiso   1.00
O649   O     0.57995   0.94451   0.31684   0.00000  Uiso   1.00
O650   O     0.52524   0.95234   0.35806   0.00000  Uiso   1.00
N651   N     0.54179   0.71594   0.31913   0.00000  Uiso   1.00
O652   O     0.58001   0.72663   0.31554   0.00000  Uiso   1.00
O653   O     0.52682   0.71644   0.35843   0.00000  Uiso   1.00
N654   N     0.45824   0.95070   0.18085   0.00000  Uiso   1.00
O655   O     0.42033   0.93884   0.18479   0.00000  Uiso   1.00
O656   O     0.47283   0.95107   0.14136   0.00000  Uiso   1.00
O657   O     0.77321   0.87291   0.24999   0.00000  Uiso   1.00
O658   O     0.89345   0.79375   0.25000   0.00000  Uiso   1.00
O659   O     0.89345   0.87291   0.25000   0.00000  Uiso   1.00
O660   O     0.77321   0.79375   0.24999   0.00000  Uiso   1.00
C661   C     0.75414   0.83328   0.25082   0.00000  Uiso   1.00
C662   C     0.91257   0.83340   0.24981   0.00000  Uiso   1.00
O663   O     0.83332   0.87293   0.18513   0.00000  Uiso   1.00
O664   O     0.83334   0.79373   0.31487   0.00000  Uiso   1.00
O665   O     0.83334   0.87293   0.31487   0.00000  Uiso   1.00
O666   O     0.83332   0.79373   0.18513   0.00000  Uiso   1.00
C667   C     0.83222   0.83313   0.16457   0.00000  Uiso   1.00
C668   C     0.83421   0.83339   0.33543   0.00000  Uiso   1.00
Cu669  Cu    0.83333   0.88022   0.25000   0.00000  Uiso   1.00
Cu670  Cu    0.83333   0.78645   0.25000   0.00000  Uiso   1.00
C671   C     0.87085   0.84204   0.40906   0.00000  Uiso   1.00
C672   C     0.79653   0.82269   0.09068   0.00000  Uiso   1.00
C673   C     0.83469   0.83223   0.38382   0.00000  Uiso   1.00
C674   C     0.83263   0.83198   0.11625   0.00000  Uiso   1.00
C675   C     0.79973   0.81617   0.40385   0.00000  Uiso   1.00
C676   C     0.86988   0.83839   0.09625   0.00000  Uiso   1.00
C677   C     0.79978   0.81190   0.45067   0.00000  Uiso   1.00
C678   C     0.87177   0.83430   0.04950   0.00000  Uiso   1.00
C679   C     0.83569   0.82405   0.47659   0.00000  Uiso   1.00
C680   C     0.83538   0.82428   0.02356   0.00000  Uiso   1.00
C681   C     0.87217   0.83516   0.45561   0.00000  Uiso   1.00
C682   C     0.79860   0.81448   0.04451   0.00000  Uiso   1.00
C683   C     0.76593   0.79372   0.47236   0.00000  Uiso   1.00
C684   C     0.90921   0.83705   0.02808   0.00000  Uiso   1.00
C685   C     0.76532   0.79492   0.01900   0.00000  Uiso   1.00
C686   C     0.90940   0.83651   0.48143   0.00000  Uiso   1.00
C687   C     0.68764   0.79121   0.25072   0.00000  Uiso   1.00
C688   C     0.97914   0.87549   0.25070   0.00000  Uiso   1.00
C689   C     0.97869   0.79127   0.24898   0.00000  Uiso   1.00
C690   C     0.68809   0.87543   0.25243   0.00000  Uiso   1.00
C691   C     0.95726   0.83342   0.24967   0.00000  Uiso   1.00
C692   C     0.70951   0.83328   0.25161   0.00000  Uiso   1.00
C693   C     0.81297   0.69086   0.21672   0.00000  Uiso   1.00
C694   C     0.85343   0.97581   0.28341   0.00000  Uiso   1.00
C695   C     0.85358   0.69181   0.28338   0.00000  Uiso   1.00
C696   C     0.81303   0.97485   0.21664   0.00000  Uiso   1.00
N697   N     0.83333   0.95069   0.25000   0.00000  Uiso   1.00
N698   N     0.83333   0.71598   0.25000   0.00000  Uiso   1.00
N699   N     0.90523   0.86140   0.38764   0.00000  Uiso   1.00
O700   O     0.92055   0.84018   0.35397   0.00000  Uiso   1.00
O701   O     0.92207   0.89977   0.40271   0.00000  Uiso   1.00
N702   N     0.75759   0.82848   0.11019   0.00000  Uiso   1.00
O703   O     0.74960   0.80846   0.14735   0.00000  Uiso   1.00
O704   O     0.73072   0.85636   0.09189   0.00000  Uiso   1.00
N705   N     0.76351   0.80789   0.37613   0.00000  Uiso   1.00
O706   O     0.74024   0.84261   0.36459   0.00000  Uiso   1.00
O707   O     0.75840   0.76820   0.35558   0.00000  Uiso   1.00
N708   N     0.90478   0.85256   0.12374   0.00000  Uiso   1.00
O709   O     0.91522   0.89613   0.12605   0.00000  Uiso   1.00
O710   O     0.92250   0.82317   0.15083   0.00000  Uiso   1.00
N711   N     0.73436   0.76853   0.44791   0.00000  Uiso   1.00
O712   O     0.70132   0.78964   0.43392   0.00000  Uiso   1.00
O713   O     0.73641   0.72358   0.44463   0.00000  Uiso   1.00
N714   N     0.94742   0.83334   0.05298   0.00000  Uiso   1.00
O715   O     0.97204   0.86881   0.05707   0.00000  Uiso   1.00
O716   O     0.95758   0.79423   0.07156   0.00000  Uiso   1.00
N717   N     0.73313   0.77094   0.04026   0.00000  Uiso   1.00
O718   O     0.69520   0.77737   0.02727   0.00000  Uiso   1.00
O719   O     0.74194   0.73883   0.06924   0.00000  Uiso   1.00
N720   N     0.94730   0.82846   0.46082   0.00000  Uiso   1.00
O721   O     0.97791   0.85701   0.46728   0.00000  Uiso   1.00
O722   O     0.95139   0.79154   0.43624   0.00000  Uiso   1.00
F723   F     0.70683   0.74963   0.25193   0.00000  Uiso   1.00
F724   F     0.95996   0.91708   0.24935   0.00000  Uiso   1.00
F725   F     0.95909   0.74973   0.24577   0.00000  Uiso   1.00
F726   F     0.70772   0.91697   0.25547   0.00000  Uiso   1.00
N727   N     0.79066   0.71394   0.18157   0.00000  Uiso   1.00
O728   O     0.75136   0.71790   0.18380   0.00000  Uiso   1.00
O729   O     0.80643   0.71644   0.14278   0.00000  Uiso   1.00
N730   N     0.87452   0.95266   0.31927   0.00000  Uiso   1.00
O731   O     0.91328   0.94451   0.31684   0.00000  Uiso   1.00
O732   O     0.85857   0.95234   0.35806   0.00000  Uiso   1.00
N733   N     0.87512   0.71594   0.31913   0.00000  Uiso   1.00
O734   O     0.91334   0.72663   0.31554   0.00000  Uiso   1.00
O735   O     0.86015   0.71644   0.35843   0.00000  Uiso   1.00
N736   N     0.79158   0.95070   0.18085   0.00000  Uiso   1.00
O737   O     0.75366   0.93884   0.18479   0.00000  Uiso   1.00
O738   O     0.80616   0.95107   0.14136   0.00000  Uiso   1.00
O739   O     0.10655   0.20625   0.74999   0.00000  Uiso   1.00
O740   O     0.22679   0.12709   0.75000   0.00000  Uiso   1.00
O741   O     0.22679   0.20625   0.75000   0.00000  Uiso   1.00
O742   O     0.10655   0.12709   0.74999   0.00000  Uiso   1.00
C743   C     0.08747   0.16661   0.75082   0.00000  Uiso   1.00
C744   C     0.24590   0.16673   0.74981   0.00000  Uiso   1.00
O745   O     0.16666   0.20627   0.68513   0.00000  Uiso   1.00
O746   O     0.16668   0.12707   0.81487   0.00000  Uiso   1.00
O747   O     0.16668   0.20627   0.81487   0.00000  Uiso   1.00
O748   O     0.16666   0.12707   0.68513   0.00000  Uiso   1.00
C749   C     0.16555   0.16646   0.66457   0.00000  Uiso   1.00
C750   C     0.16754   0.16672   0.83543   0.00000  Uiso   1.00
Cu751  Cu    0.16667   0.21355   0.75000   0.00000  Uiso   1.00
Cu752  Cu    0.16667   0.11978   0.75000   0.00000  Uiso   1.00
C753   C     0.20418   0.17538   0.90906   0.00000  Uiso   1.00
C754   C     0.12986   0.15602   0.59068   0.00000  Uiso   1.00
C755   C     0.16802   0.16557   0.88382   0.00000  Uiso   1.00
C756   C     0.16597   0.16532   0.61625   0.00000  Uiso   1.00
C757   C     0.13306   0.14950   0.90385   0.00000  Uiso   1.00
C758   C     0.20321   0.17173   0.59625   0.00000  Uiso   1.00
C759   C     0.13312   0.14523   0.95067   0.00000  Uiso   1.00
C760   C     0.20510   0.16763   0.54950   0.00000  Uiso   1.00
C761   C     0.16902   0.15739   0.97659   0.00000  Uiso   1.00
C762   C     0.16872   0.15761   0.52356   0.00000  Uiso   1.00
C763   C     0.20550   0.16849   0.95561   0.00000  Uiso   1.00
C764   C     0.13194   0.14781   0.54451   0.00000  Uiso   1.00
C765   C     0.09926   0.12705   0.97236   0.00000  Uiso   1.00
C766   C     0.24254   0.17039   0.52808   0.00000  Uiso   1.00
C767   C     0.09866   0.12825   0.51900   0.00000  Uiso   1.00
C768   C     0.24274   0.16984   0.98143   0.00000  Uiso   1.00
C769   C     0.02098   0.12454   0.75072   0.00000  Uiso   1.00
C770   C     0.31247   0.20882   0.75070   0.00000  Uiso   1.00
C771   C     0.31203   0.12460   0.74898   0.00000  Uiso   1.00
C772   C     0.02142   0.20876   0.75243   0.00000  Uiso   1.00
C773   C     0.29060   0.16675   0.74967   0.00000  Uiso   1.00
C774   C     0.04284   0.16661   0.75161   0.00000  Uiso   1.00
C775   C     0.14630   0.02419   0.71672   0.00000  Uiso   1.00
C776   C     0.18677   0.30914   0.78341   0.00000  Uiso   1.00
C777   C     0.18692   0.02514   0.78338   0.00000  Uiso   1.00
C778   C     0.14637   0.30818   0.71664   0.00000  Uiso   1.00
N779   N     0.16667   0.28402   0.75000   0.00000  Uiso   1.00
N780   N     0.16667   0.04931   0.75000   0.00000  Uiso   1.00
N781   N     0.23857   0.19474   0.88764   0.00000  Uiso   1.00
O782   O     0.25388   0.17351   0.85397   0.00000  Uiso   1.00
O783   O     0.25541   0.23310   0.90271   0.00000  Uiso   1.00
N784   N     0.09093   0.16181   0.61019   0.00000  Uiso   1.00
O785   O     0.08294   0.14179   0.64735   0.00000  Uiso   1.00
O786   O     0.06406   0.18970   0.59189   0.00000  Uiso   1.00
N787   N     0.09684   0.14122   0.87613   0.00000  Uiso   1.00
O788   O     0.07358   0.17595   0.86459   0.00000  Uiso   1.00
O789   O     0.09174   0.10153   0.85558   0.00000  Uiso   1.00
N790   N     0.23811   0.18589   0.62374   0.00000  Uiso   1.00
O791   O     0.24855   0.22946   0.62605   0.00000  Uiso   1.00
O792   O     0.25584   0.15651   0.65083   0.00000  Uiso   1.00
N793   N     0.06769   0.10187   0.94791   0.00000  Uiso   1.00
O794   O     0.03465   0.12297   0.93392   0.00000  Uiso   1.00
O795   O     0.06975   0.05691   0.94463   0.00000  Uiso   1.00
N796   N     0.28075   0.16668   0.55298   0.00000  Uiso   1.00
O797   O     0.30538   0.20214   0.55707   0.00000  Uiso   1.00
O798   O     0.29092   0.12757   0.57156   0.00000  Uiso   1.00
N799   N     0.06646   0.10427   0.54026   0.00000  Uiso   1.00
O800   O     0.02853   0.11071   0.52727   0.00000  Uiso   1.00
O801   O     0.07528   0.07216   0.56924   0.00000  Uiso   1.00
N802   N     0.28063   0.16179   0.96082   0.00000  Uiso   1.00
O803   O     0.31124   0.19034   0.96728   0.00000  Uiso   1.00
O804   O     0.28472   0.12487   0.93624   0.00000  Uiso   1.00
F805   F     0.04017   0.08296   0.75193   0.00000  Uiso   1.00
F806   F     0.29330   0.25041   0.74935   0.00000  Uiso   1.00
F807   F     0.29242   0.08306   0.74577   0.00000  Uiso   1.00
F808   F     0.04105   0.25031   0.75547   0.00000  Uiso   1.00
N809   N     0.12399   0.04728   0.68157   0.00000  Uiso   1.00
O810   O     0.08469   0.05124   0.68380   0.00000  Uiso   1.00
O811   O     0.13977   0.04978   0.64278   0.00000  Uiso   1.00
N812   N     0.20785   0.28599   0.81927   0.00000  Uiso   1.00
O813   O     0.24661   0.27784   0.81684   0.00000  Uiso   1.00
O814   O     0.19190   0.28568   0.85806   0.00000  Uiso   1.00
N815   N     0.20845   0.04927   0.81913   0.00000  Uiso   1.00
O816   O     0.24668   0.05996   0.81554   0.00000  Uiso   1.00
O817   O     0.19348   0.04978   0.85843   0.00000  Uiso   1.00
N818   N     0.12491   0.28404   0.68085   0.00000  Uiso   1.00
O819   O     0.08699   0.27217   0.68479   0.00000  Uiso   1.00
O820   O     0.13950   0.28440   0.64136   0.00000  Uiso   1.00
O821   O     0.43988   0.20625   0.74999   0.00000  Uiso   1.00
O822   O     0.56012   0.12709   0.75000   0.00000  Uiso   1.00
O823   O     0.56012   0.20625   0.75000   0.00000  Uiso   1.00
O824   O     0.43988   0.12709   0.74999   0.00000  Uiso   1.00
C825   C     0.42081   0.16661   0.75082   0.00000  Uiso   1.00
C826   C     0.57924   0.16673   0.74981   0.00000  Uiso   1.00
O827   O     0.49999   0.20627   0.68513   0.00000  Uiso   1.00
O828   O     0.50001   0.12707   0.81487   0.00000  Uiso   1.00
O829   O     0.50001   0.20627   0.81487   0.00000  Uiso   1.00
O830   O     0.49999   0.12707   0.68513   0.00000  Uiso   1.00
C831   C     0.49889   0.16646   0.66457   0.00000  Uiso   1.00
C832   C     0.50087   0.16672   0.83543   0.00000  Uiso   1.00
Cu833  Cu    0.50000   0.21355   0.75000   0.00000  Uiso   1.00
Cu834  Cu    0.50000   0.11978   0.75000   0.00000  Uiso   1.00
C835   C     0.53752   0.17538   0.90906   0.00000  Uiso   1.00
C836   C     0.46320   0.15602   0.59068   0.00000  Uiso   1.00
C837   C     0.50135   0.16557   0.88382   0.00000  Uiso   1.00
C838   C     0.49930   0.16532   0.61625   0.00000  Uiso   1.00
C839   C     0.46639   0.14950   0.90385   0.00000  Uiso   1.00
C840   C     0.53654   0.17173   0.59625   0.00000  Uiso   1.00
C841   C     0.46645   0.14523   0.95067   0.00000  Uiso   1.00
C842   C     0.53843   0.16763   0.54950   0.00000  Uiso   1.00
C843   C     0.50235   0.15739   0.97659   0.00000  Uiso   1.00
C844   C     0.50205   0.15761   0.52356   0.00000  Uiso   1.00
C845   C     0.53884   0.16849   0.95561   0.00000  Uiso   1.00
C846   C     0.46527   0.14781   0.54451   0.00000  Uiso   1.00
C847   C     0.43260   0.12705   0.97236   0.00000  Uiso   1.00
C848   C     0.57587   0.17039   0.52808   0.00000  Uiso   1.00
C849   C     0.43199   0.12825   0.51900   0.00000  Uiso   1.00
C850   C     0.57607   0.16984   0.98143   0.00000  Uiso   1.00
C851   C     0.35431   0.12454   0.75072   0.00000  Uiso   1.00
C852   C     0.64580   0.20882   0.75070   0.00000  Uiso   1.00
C853   C     0.64536   0.12460   0.74898   0.00000  Uiso   1.00
C854   C     0.35476   0.20876   0.75243   0.00000  Uiso   1.00
C855   C     0.62393   0.16675   0.74967   0.00000  Uiso   1.00
C856   C     0.37617   0.16661   0.75161   0.00000  Uiso   1.00
C857   C     0.47963   0.02419   0.71672   0.00000  Uiso   1.00
C858   C     0.52010   0.30914   0.78341   0.00000  Uiso   1.00
C859   C     0.52025   0.02514   0.78338   0.00000  Uiso   1.00
C860   C     0.47970   0.30818   0.71664   0.00000  Uiso   1.00
N861   N     0.50000   0.28402   0.75000   0.00000  Uiso   1.00
N862   N     0.50000   0.04931   0.75000   0.00000  Uiso   1.00
N863   N     0.57190   0.19474   0.88764   0.00000  Uiso   1.00
O864   O     0.58722   0.17351   0.85397   0.00000  Uiso   1.00
O865   O     0.58874   0.23310   0.90271   0.00000  Uiso   1.00
N866   N     0.42426   0.16181   0.61019   0.00000  Uiso   1.00
O867   O     0.41627   0.14179   0.64735   0.00000  Uiso   1.00
O868   O     0.39739   0.18970   0.59189   0.00000  Uiso   1.00
N869   N     0.43018   0.14122   0.87613   0.00000  Uiso   1.00
O870   O     0.40691   0.17595   0.86459   0.00000  Uiso   1.00
O871   O     0.42507   0.10153   0.85558   0.00000  Uiso   1.00
N872   N     0.57144   0.18589   0.62374   0.00000  Uiso   1.00
O873   O     0.58189   0.22946   0.62605   0.00000  Uiso   1.00
O874   O     0.58917   0.15651   0.65083   0.00000  Uiso   1.00
N875   N     0.40102   0.10187   0.94791   0.00000  Uiso   1.00
O876   O     0.36799   0.12297   0.93392   0.00000  Uiso   1.00
O877   O     0.40308   0.05691   0.94463   0.00000  Uiso   1.00
N878   N     0.61408   0.16668   0.55298   0.00000  Uiso   1.00
O879   O     0.63871   0.20214   0.55707   0.00000  Uiso   1.00
O880   O     0.62425   0.12757   0.57156   0.00000  Uiso   1.00
N881   N     0.39979   0.10427   0.54026   0.00000  Uiso   1.00
O882   O     0.36187   0.11071   0.52727   0.00000  Uiso   1.00
O883   O     0.40861   0.07216   0.56924   0.00000  Uiso   1.00
N884   N     0.61397   0.16179   0.96082   0.00000  Uiso   1.00
O885   O     0.64458   0.19034   0.96728   0.00000  Uiso   1.00
O886   O     0.61806   0.12487   0.93624   0.00000  Uiso   1.00
F887   F     0.37350   0.08296   0.75193   0.00000  Uiso   1.00
F888   F     0.62663   0.25041   0.74935   0.00000  Uiso   1.00
F889   F     0.62575   0.08306   0.74577   0.00000  Uiso   1.00
F890   F     0.37438   0.25031   0.75547   0.00000  Uiso   1.00
N891   N     0.45733   0.04728   0.68157   0.00000  Uiso   1.00
O892   O     0.41802   0.05124   0.68380   0.00000  Uiso   1.00
O893   O     0.47310   0.04978   0.64278   0.00000  Uiso   1.00
N894   N     0.54119   0.28599   0.81927   0.00000  Uiso   1.00
O895   O     0.57995   0.27784   0.81684   0.00000  Uiso   1.00
O896   O     0.52524   0.28568   0.85806   0.00000  Uiso   1.00
N897   N     0.54179   0.04927   0.81913   0.00000  Uiso   1.00
O898   O     0.58001   0.05996   0.81554   0.00000  Uiso   1.00
O899   O     0.52682   0.04978   0.85843   0.00000  Uiso   1.00
N900   N     0.45824   0.28404   0.68085   0.00000  Uiso   1.00
O901   O     0.42033   0.27217   0.68479   0.00000  Uiso   1.00
O902   O     0.47283   0.28440   0.64136   0.00000  Uiso   1.00
O903   O     0.77321   0.20625   0.74999   0.00000  Uiso   1.00
O904   O     0.89345   0.12709   0.75000   0.00000  Uiso   1.00
O905   O     0.89345   0.20625   0.75000   0.00000  Uiso   1.00
O906   O     0.77321   0.12709   0.74999   0.00000  Uiso   1.00
C907   C     0.75414   0.16661   0.75082   0.00000  Uiso   1.00
C908   C     0.91257   0.16673   0.74981   0.00000  Uiso   1.00
O909   O     0.83332   0.20627   0.68513   0.00000  Uiso   1.00
O910   O     0.83334   0.12707   0.81487   0.00000  Uiso   1.00
O911   O     0.83334   0.20627   0.81487   0.00000  Uiso   1.00
O912   O     0.83332   0.12707   0.68513   0.00000  Uiso   1.00
C913   C     0.83222   0.16646   0.66457   0.00000  Uiso   1.00
C914   C     0.83421   0.16672   0.83543   0.00000  Uiso   1.00
Cu915  Cu    0.83333   0.21355   0.75000   0.00000  Uiso   1.00
Cu916  Cu    0.83333   0.11978   0.75000   0.00000  Uiso   1.00
C917   C     0.87085   0.17538   0.90906   0.00000  Uiso   1.00
C918   C     0.79653   0.15602   0.59068   0.00000  Uiso   1.00
C919   C     0.83469   0.16557   0.88382   0.00000  Uiso   1.00
C920   C     0.83263   0.16532   0.61625   0.00000  Uiso   1.00
C921   C     0.79973   0.14950   0.90385   0.00000  Uiso   1.00
C922   C     0.86988   0.17173   0.59625   0.00000  Uiso   1.00
C923   C     0.79978   0.14523   0.95067   0.00000  Uiso   1.00
C924   C     0.87177   0.16763   0.54950   0.00000  Uiso   1.00
C925   C     0.83569   0.15739   0.97659   0.00000  Uiso   1.00
C926   C     0.83538   0.15761   0.52356   0.00000  Uiso   1.00
C927   C     0.87217   0.16849   0.95561   0.00000  Uiso   1.00
C928   C     0.79860   0.14781   0.54451   0.00000  Uiso   1.00
C929   C     0.76593   0.12705   0.97236   0.00000  Uiso   1.00
C930   C     0.90921   0.17039   0.52808   0.00000  Uiso   1.00
C931   C     0.76532   0.12825   0.51900   0.00000  Uiso   1.00
C932   C     0.90940   0.16984   0.98143   0.00000  Uiso   1.00
C933   C     0.68764   0.12454   0.75072   0.00000  Uiso   1.00
C934   C     0.97914   0.20882   0.75070   0.00000  Uiso   1.00
C935   C     0.97869   0.12460   0.74898   0.00000  Uiso   1.00
C936   C     0.68809   0.20876   0.75243   0.00000  Uiso   1.00
C937   C     0.95726   0.16675   0.74967   0.00000  Uiso   1.00
C938   C     0.70951   0.16661   0.75161   0.00000  Uiso   1.00
C939   C     0.81297   0.02419   0.71672   0.00000  Uiso   1.00
C940   C     0.85343   0.30914   0.78341   0.00000  Uiso   1.00
C941   C     0.85358   0.02514   0.78338   0.00000  Uiso   1.00
C942   C     0.81303   0.30818   0.71664   0.00000  Uiso   1.00
N943   N     0.83333   0.28402   0.75000   0.00000  Uiso   1.00
N944   N     0.83333   0.04931   0.75000   0.00000  Uiso   1.00
N945   N     0.90523   0.19474   0.88764   0.00000  Uiso   1.00
O946   O     0.92055   0.17351   0.85397   0.00000  Uiso   1.00
O947   O     0.92207   0.23310   0.90271   0.00000  Uiso   1.00
N948   N     0.75759   0.16181   0.61019   0.00000  Uiso   1.00
O949   O     0.74960   0.14179   0.64735   0.00000  Uiso   1.00
O950   O     0.73072   0.18970   0.59189   0.00000  Uiso   1.00
N951   N     0.76351   0.14122   0.87613   0.00000  Uiso   1.00
O952   O     0.74024   0.17595   0.86459   0.00000  Uiso   1.00
O953   O     0.75840   0.10153   0.85558   0.00000  Uiso   1.00
N954   N     0.90478   0.18589   0.62374   0.00000  Uiso   1.00
O955   O     0.91522   0.22946   0.62605   0.00000  Uiso   1.00
O956   O     0.92250   0.15651   0.65083   0.00000  Uiso   1.00
N957   N     0.73436   0.10187   0.94791   0.00000  Uiso   1.00
O958   O     0.70132   0.12297   0.93392   0.00000  Uiso   1.00
O959   O     0.73641   0.05691   0.94463   0.00000  Uiso   1.00
N960   N     0.94742   0.16668   0.55298   0.00000  Uiso   1.00
O961   O     0.97204   0.20214   0.55707   0.00000  Uiso   1.00
O962   O     0.95758   0.12757   0.57156   0.00000  Uiso   1.00
N963   N     0.73313   0.10427   0.54026   0.00000  Uiso   1.00
O964   O     0.69520   0.11071   0.52727   0.00000  Uiso   1.00
O965   O     0.74194   0.07216   0.56924   0.00000  Uiso   1.00
N966   N     0.94730   0.16179   0.96082   0.00000  Uiso   1.00
O967   O     0.97791   0.19034   0.96728   0.00000  Uiso   1.00
O968   O     0.95139   0.12487   0.93624   0.00000  Uiso   1.00
F969   F     0.70683   0.08296   0.75193   0.00000  Uiso   1.00
F970   F     0.95996   0.25041   0.74935   0.00000  Uiso   1.00
F971   F     0.95909   0.08306   0.74577   0.00000  Uiso   1.00
F972   F     0.70772   0.25031   0.75547   0.00000  Uiso   1.00
N973   N     0.79066   0.04728   0.68157   0.00000  Uiso   1.00
O974   O     0.75136   0.05124   0.68380   0.00000  Uiso   1.00
O975   O     0.80643   0.04978   0.64278   0.00000  Uiso   1.00
N976   N     0.87452   0.28599   0.81927   0.00000  Uiso   1.00
O977   O     0.91328   0.27784   0.81684   0.00000  Uiso   1.00
O978   O     0.85857   0.28568   0.85806   0.00000  Uiso   1.00
N979   N     0.87512   0.04927   0.81913   0.00000  Uiso   1.00
O980   O     0.91334   0.05996   0.81554   0.00000  Uiso   1.00
O981   O     0.86015   0.04978   0.85843   0.00000  Uiso   1.00
N982   N     0.79158   0.28404   0.68085   0.00000  Uiso   1.00
O983   O     0.75366   0.27217   0.68479   0.00000  Uiso   1.00
O984   O     0.80616   0.28440   0.64136   0.00000  Uiso   1.00
O985   O     0.10655   0.53958   0.74999   0.00000  Uiso   1.00
O986   O     0.22679   0.46042   0.75000   0.00000  Uiso   1.00
O987   O     0.22679   0.53958   0.75000   0.00000  Uiso   1.00
O988   O     0.10655   0.46042   0.74999   0.00000  Uiso   1.00
C989   C     0.08747   0.49995   0.75082   0.00000  Uiso   1.00
C990   C     0.24590   0.50007   0.74981   0.00000  Uiso   1.00
O991   O     0.16666   0.53960   0.68513   0.00000  Uiso   1.00
O992   O     0.16668   0.46040   0.81487   0.00000  Uiso   1.00
O993   O     0.16668   0.53960   0.81487   0.00000  Uiso   1.00
O994   O     0.16666   0.46040   0.68513   0.00000  Uiso   1.00
C995   C     0.16555   0.49979   0.66457   0.00000  Uiso   1.00
C996   C     0.16754   0.50005   0.83543   0.00000  Uiso   1.00
Cu997  Cu    0.16667   0.54689   0.75000   0.00000  Uiso   1.00
Cu998  Cu    0.16667   0.45311   0.75000   0.00000  Uiso   1.00
C999   C     0.20418   0.50871   0.90906   0.00000  Uiso   1.00
C1000  C     0.12986   0.48935   0.59068   0.00000  Uiso   1.00
C1001  C     0.16802   0.49890   0.88382   0.00000  Uiso   1.00
C1002  C     0.16597   0.49865   0.61625   0.00000  Uiso   1.00
C1003  C     0.13306   0.48283   0.90385   0.00000  Uiso   1.00
C1004  C     0.20321   0.50506   0.59625   0.00000  Uiso   1.00
C1005  C     0.13312   0.47856   0.95067   0.00000  Uiso   1.00
C1006  C     0.20510   0.50097   0.54950   0.00000  Uiso   1.00
C1007  C     0.16902   0.49072   0.97659   0.00000  Uiso   1.00
C1008  C     0.16872   0.49094   0.52356   0.00000  Uiso   1.00
C1009  C     0.20550   0.50183   0.95561   0.00000  Uiso   1.00
C1010  C     0.13194   0.48114   0.54451   0.00000  Uiso   1.00
C1011  C     0.09926   0.46039   0.97236   0.00000  Uiso   1.00
C1012  C     0.24254   0.50372   0.52808   0.00000  Uiso   1.00
C1013  C     0.09866   0.46159   0.51900   0.00000  Uiso   1.00
C1014  C     0.24274   0.50317   0.98143   0.00000  Uiso   1.00
C1015  C     0.02098   0.45788   0.75072   0.00000  Uiso   1.00
C1016  C     0.31247   0.54216   0.75070   0.00000  Uiso   1.00
C1017  C     0.31203   0.45794   0.74898   0.00000  Uiso   1.00
C1018  C     0.02142   0.54209   0.75243   0.00000  Uiso   1.00
C1019  C     0.29060   0.50008   0.74967   0.00000  Uiso   1.00
C1020  C     0.04284   0.49995   0.75161   0.00000  Uiso   1.00
C1021  C     0.14630   0.35752   0.71672   0.00000  Uiso   1.00
C1022  C     0.18677   0.64248   0.78341   0.00000  Uiso   1.00
C1023  C     0.18692   0.35847   0.78338   0.00000  Uiso   1.00
C1024  C     0.14637   0.64152   0.71664   0.00000  Uiso   1.00
N1025  N     0.16667   0.61736   0.75000   0.00000  Uiso   1.00
N1026  N     0.16667   0.38264   0.75000   0.00000  Uiso   1.00
N1027  N     0.23857   0.52807   0.88764   0.00000  Uiso   1.00
O1028  O     0.25388   0.50685   0.85397   0.00000  Uiso   1.00
O1029  O     0.25541   0.56643   0.90271   0.00000  Uiso   1.00
N1030  N     0.09093   0.49515   0.61019   0.00000  Uiso   1.00
O1031  O     0.08294   0.47512   0.64735   0.00000  Uiso   1.00
O1032  O     0.06406   0.52303   0.59189   0.00000  Uiso   1.00
N1033  N     0.09684   0.47456   0.87613   0.00000  Uiso   1.00
O1034  O     0.07358   0.50928   0.86459   0.00000  Uiso   1.00
O1035  O     0.09174   0.43487   0.85558   0.00000  Uiso   1.00
N1036  N     0.23811   0.51922   0.62374   0.00000  Uiso   1.00
O1037  O     0.24855   0.56279   0.62605   0.00000  Uiso   1.00
O1038  O     0.25584   0.48984   0.65083   0.00000  Uiso   1.00
N1039  N     0.06769   0.43520   0.94791   0.00000  Uiso   1.00
O1040  O     0.03465   0.45631   0.93392   0.00000  Uiso   1.00
O1041  O     0.06975   0.39025   0.94463   0.00000  Uiso   1.00
N1042  N     0.28075   0.50001   0.55298   0.00000  Uiso   1.00
O1043  O     0.30538   0.53547   0.55707   0.00000  Uiso   1.00
O1044  O     0.29092   0.46090   0.57156   0.00000  Uiso   1.00
N1045  N     0.06646   0.43760   0.54026   0.00000  Uiso   1.00
O1046  O     0.02853   0.44404   0.52727   0.00000  Uiso   1.00
O1047  O     0.07528   0.40549   0.56924   0.00000  Uiso   1.00
N1048  N     0.28063   0.49512   0.96082   0.00000  Uiso   1.00
O1049  O     0.31124   0.52367   0.96728   0.00000  Uiso   1.00
O1050  O     0.28472   0.45820   0.93624   0.00000  Uiso   1.00
F1051  F     0.04017   0.41629   0.75193   0.00000  Uiso   1.00
F1052  F     0.29330   0.58375   0.74935   0.00000  Uiso   1.00
F1053  F     0.29242   0.41639   0.74577   0.00000  Uiso   1.00
F1054  F     0.04105   0.58364   0.75547   0.00000  Uiso   1.00
N1055  N     0.12399   0.38061   0.68157   0.00000  Uiso   1.00
O1056  O     0.08469   0.38457   0.68380   0.00000  Uiso   1.00
O1057  O     0.13977   0.38311   0.64278   0.00000  Uiso   1.00
N1058  N     0.20785   0.61932   0.81927   0.00000  Uiso   1.00
O1059  O     0.24661   0.61117   0.81684   0.00000  Uiso   1.00
O1060  O     0.19190   0.61901   0.85806   0.00000  Uiso   1.00
N1061  N     0.20845   0.38261   0.81913   0.00000  Uiso   1.00
O1062  O     0.24668   0.39330   0.81554   0.00000  Uiso   1.00
O1063  O     0.19348   0.38311   0.85843   0.00000  Uiso   1.00
N1064  N     0.12491   0.61737   0.68085   0.00000  Uiso   1.00
O1065  O     0.08699   0.60550   0.68479   0.00000  Uiso   1.00
O1066  O     0.13950   0.61773   0.64136   0.00000  Uiso   1.00
O1067  O     0.43988   0.53958   0.74999   0.00000  Uiso   1.00
O1068  O     0.56012   0.46042   0.75000   0.00000  Uiso   1.00
O1069  O     0.56012   0.53958   0.75000   0.00000  Uiso   1.00
O1070  O     0.43988   0.46042   0.74999   0.00000  Uiso   1.00
C1071  C     0.42081   0.49995   0.75082   0.00000  Uiso   1.00
C1072  C     0.57924   0.50007   0.74981   0.00000  Uiso   1.00
O1073  O     0.49999   0.53960   0.68513   0.00000  Uiso   1.00
O1074  O     0.50001   0.46040   0.81487   0.00000  Uiso   1.00
O1075  O     0.50001   0.53960   0.81487   0.00000  Uiso   1.00
O1076  O     0.49999   0.46040   0.68513   0.00000  Uiso   1.00
C1077  C     0.49889   0.49979   0.66457   0.00000  Uiso   1.00
C1078  C     0.50087   0.50005   0.83543   0.00000  Uiso   1.00
Cu1079 Cu    0.50000   0.54689   0.75000   0.00000  Uiso   1.00
Cu1080 Cu    0.50000   0.45311   0.75000   0.00000  Uiso   1.00
C1081  C     0.53752   0.50871   0.90906   0.00000  Uiso   1.00
C1082  C     0.46320   0.48935   0.59068   0.00000  Uiso   1.00
C1083  C     0.50135   0.49890   0.88382   0.00000  Uiso   1.00
C1084  C     0.49930   0.49865   0.61625   0.00000  Uiso   1.00
C1085  C     0.46639   0.48283   0.90385   0.00000  Uiso   1.00
C1086  C     0.53654   0.50506   0.59625   0.00000  Uiso   1.00
C1087  C     0.46645   0.47856   0.95067   0.00000  Uiso   1.00
C1088  C     0.53843   0.50097   0.54950   0.00000  Uiso   1.00
C1089  C     0.50235   0.49072   0.97659   0.00000  Uiso   1.00
C1090  C     0.50205   0.49094   0.52356   0.00000  Uiso   1.00
C1091  C     0.53884   0.50183   0.95561   0.00000  Uiso   1.00
C1092  C     0.46527   0.48114   0.54451   0.00000  Uiso   1.00
C1093  C     0.43260   0.46039   0.97236   0.00000  Uiso   1.00
C1094  C     0.57587   0.50372   0.52808   0.00000  Uiso   1.00
C1095  C     0.43199   0.46159   0.51900   0.00000  Uiso   1.00
C1096  C     0.57607   0.50317   0.98143   0.00000  Uiso   1.00
C1097  C     0.35431   0.45788   0.75072   0.00000  Uiso   1.00
C1098  C     0.64580   0.54216   0.75070   0.00000  Uiso   1.00
C1099  C     0.64536   0.45794   0.74898   0.00000  Uiso   1.00
C1100  C     0.35476   0.54209   0.75243   0.00000  Uiso   1.00
C1101  C     0.62393   0.50008   0.74967   0.00000  Uiso   1.00
C1102  C     0.37617   0.49995   0.75161   0.00000  Uiso   1.00
C1103  C     0.47963   0.35752   0.71672   0.00000  Uiso   1.00
C1104  C     0.52010   0.64248   0.78341   0.00000  Uiso   1.00
C1105  C     0.52025   0.35847   0.78338   0.00000  Uiso   1.00
C1106  C     0.47970   0.64152   0.71664   0.00000  Uiso   1.00
N1107  N     0.50000   0.61736   0.75000   0.00000  Uiso   1.00
N1108  N     0.50000   0.38264   0.75000   0.00000  Uiso   1.00
N1109  N     0.57190   0.52807   0.88764   0.00000  Uiso   1.00
O1110  O     0.58722   0.50685   0.85397   0.00000  Uiso   1.00
O1111  O     0.58874   0.56643   0.90271   0.00000  Uiso   1.00
N1112  N     0.42426   0.49515   0.61019   0.00000  Uiso   1.00
O1113  O     0.41627   0.47512   0.64735   0.00000  Uiso   1.00
O1114  O     0.39739   0.52303   0.59189   0.00000  Uiso   1.00
N1115  N     0.43018   0.47456   0.87613   0.00000  Uiso   1.00
O1116  O     0.40691   0.50928   0.86459   0.00000  Uiso   1.00
O1117  O     0.42507   0.43487   0.85558   0.00000  Uiso   1.00
N1118  N     0.57144   0.51922   0.62374   0.00000  Uiso   1.00
O1119  O     0.58189   0.56279   0.62605   0.00000  Uiso   1.00
O1120  O     0.58917   0.48984   0.65083   0.00000  Uiso   1.00
N1121  N     0.40102   0.43520   0.94791   0.00000  Uiso   1.00
O1122  O     0.36799   0.45631   0.93392   0.00000  Uiso   1.00
O1123  O     0.40308   0.39025   0.94463   0.00000  Uiso   1.00
N1124  N     0.61408   0.50001   0.55298   0.00000  Uiso   1.00
O1125  O     0.63871   0.53547   0.55707   0.00000  Uiso   1.00
O1126  O     0.62425   0.46090   0.57156   0.00000  Uiso   1.00
N1127  N     0.39979   0.43760   0.54026   0.00000  Uiso   1.00
O1128  O     0.36187   0.44404   0.52727   0.00000  Uiso   1.00
O1129  O     0.40861   0.40549   0.56924   0.00000  Uiso   1.00
N1130  N     0.61397   0.49512   0.96082   0.00000  Uiso   1.00
O1131  O     0.64458   0.52367   0.96728   0.00000  Uiso   1.00
O1132  O     0.61806   0.45820   0.93624   0.00000  Uiso   1.00
F1133  F     0.37350   0.41629   0.75193   0.00000  Uiso   1.00
F1134  F     0.62663   0.58375   0.74935   0.00000  Uiso   1.00
F1135  F     0.62575   0.41639   0.74577   0.00000  Uiso   1.00
F1136  F     0.37438   0.58364   0.75547   0.00000  Uiso   1.00
N1137  N     0.45733   0.38061   0.68157   0.00000  Uiso   1.00
O1138  O     0.41802   0.38457   0.68380   0.00000  Uiso   1.00
O1139  O     0.47310   0.38311   0.64278   0.00000  Uiso   1.00
N1140  N     0.54119   0.61932   0.81927   0.00000  Uiso   1.00
O1141  O     0.57995   0.61117   0.81684   0.00000  Uiso   1.00
O1142  O     0.52524   0.61901   0.85806   0.00000  Uiso   1.00
N1143  N     0.54179   0.38261   0.81913   0.00000  Uiso   1.00
O1144  O     0.58001   0.39330   0.81554   0.00000  Uiso   1.00
O1145  O     0.52682   0.38311   0.85843   0.00000  Uiso   1.00
N1146  N     0.45824   0.61737   0.68085   0.00000  Uiso   1.00
O1147  O     0.42033   0.60550   0.68479   0.00000  Uiso   1.00
O1148  O     0.47283   0.61773   0.64136   0.00000  Uiso   1.00
O1149  O     0.77321   0.53958   0.74999   0.00000  Uiso   1.00
O1150  O     0.89345   0.46042   0.75000   0.00000  Uiso   1.00
O1151  O     0.89345   0.53958   0.75000   0.00000  Uiso   1.00
O1152  O     0.77321   0.46042   0.74999   0.00000  Uiso   1.00
C1153  C     0.75414   0.49995   0.75082   0.00000  Uiso   1.00
C1154  C     0.91257   0.50007   0.74981   0.00000  Uiso   1.00
O1155  O     0.83332   0.53960   0.68513   0.00000  Uiso   1.00
O1156  O     0.83334   0.46040   0.81487   0.00000  Uiso   1.00
O1157  O     0.83334   0.53960   0.81487   0.00000  Uiso   1.00
O1158  O     0.83332   0.46040   0.68513   0.00000  Uiso   1.00
C1159  C     0.83222   0.49979   0.66457   0.00000  Uiso   1.00
C1160  C     0.83421   0.50005   0.83543   0.00000  Uiso   1.00
Cu1161 Cu    0.83333   0.54689   0.75000   0.00000  Uiso   1.00
Cu1162 Cu    0.83333   0.45311   0.75000   0.00000  Uiso   1.00
C1163  C     0.87085   0.50871   0.90906   0.00000  Uiso   1.00
C1164  C     0.79653   0.48935   0.59068   0.00000  Uiso   1.00
C1165  C     0.83469   0.49890   0.88382   0.00000  Uiso   1.00
C1166  C     0.83263   0.49865   0.61625   0.00000  Uiso   1.00
C1167  C     0.79973   0.48283   0.90385   0.00000  Uiso   1.00
C1168  C     0.86988   0.50506   0.59625   0.00000  Uiso   1.00
C1169  C     0.79978   0.47856   0.95067   0.00000  Uiso   1.00
C1170  C     0.87177   0.50097   0.54950   0.00000  Uiso   1.00
C1171  C     0.83569   0.49072   0.97659   0.00000  Uiso   1.00
C1172  C     0.83538   0.49094   0.52356   0.00000  Uiso   1.00
C1173  C     0.87217   0.50183   0.95561   0.00000  Uiso   1.00
C1174  C     0.79860   0.48114   0.54451   0.00000  Uiso   1.00
C1175  C     0.76593   0.46039   0.97236   0.00000  Uiso   1.00
C1176  C     0.90921   0.50372   0.52808   0.00000  Uiso   1.00
C1177  C     0.76532   0.46159   0.51900   0.00000  Uiso   1.00
C1178  C     0.90940   0.50317   0.98143   0.00000  Uiso   1.00
C1179  C     0.68764   0.45788   0.75072   0.00000  Uiso   1.00
C1180  C     0.97914   0.54216   0.75070   0.00000  Uiso   1.00
C1181  C     0.97869   0.45794   0.74898   0.00000  Uiso   1.00
C1182  C     0.68809   0.54209   0.75243   0.00000  Uiso   1.00
C1183  C     0.95726   0.50008   0.74967   0.00000  Uiso   1.00
C1184  C     0.70951   0.49995   0.75161   0.00000  Uiso   1.00
C1185  C     0.81297   0.35752   0.71672   0.00000  Uiso   1.00
C1186  C     0.85343   0.64248   0.78341   0.00000  Uiso   1.00
C1187  C     0.85358   0.35847   0.78338   0.00000  Uiso   1.00
C1188  C     0.81303   0.64152   0.71664   0.00000  Uiso   1.00
N1189  N     0.83333   0.61736   0.75000   0.00000  Uiso   1.00
N1190  N     0.83333   0.38264   0.75000   0.00000  Uiso   1.00
N1191  N     0.90523   0.52807   0.88764   0.00000  Uiso   1.00
O1192  O     0.92055   0.50685   0.85397   0.00000  Uiso   1.00
O1193  O     0.92207   0.56643   0.90271   0.00000  Uiso   1.00
N1194  N     0.75759   0.49515   0.61019   0.00000  Uiso   1.00
O1195  O     0.74960   0.47512   0.64735   0.00000  Uiso   1.00
O1196  O     0.73072   0.52303   0.59189   0.00000  Uiso   1.00
N1197  N     0.76351   0.47456   0.87613   0.00000  Uiso   1.00
O1198  O     0.74024   0.50928   0.86459   0.00000  Uiso   1.00
O1199  O     0.75840   0.43487   0.85558   0.00000  Uiso   1.00
N1200  N     0.90478   0.51922   0.62374   0.00000  Uiso   1.00
O1201  O     0.91522   0.56279   0.62605   0.00000  Uiso   1.00
O1202  O     0.92250   0.48984   0.65083   0.00000  Uiso   1.00
N1203  N     0.73436   0.43520   0.94791   0.00000  Uiso   1.00
O1204  O     0.70132   0.45631   0.93392   0.00000  Uiso   1.00
O1205  O     0.73641   0.39025   0.94463   0.00000  Uiso   1.00
N1206  N     0.94742   0.50001   0.55298   0.00000  Uiso   1.00
O1207  O     0.97204   0.53547   0.55707   0.00000  Uiso   1.00
O1208  O     0.95758   0.46090   0.57156   0.00000  Uiso   1.00
N1209  N     0.73313   0.43760   0.54026   0.00000  Uiso   1.00
O1210  O     0.69520   0.44404   0.52727   0.00000  Uiso   1.00
O1211  O     0.74194   0.40549   0.56924   0.00000  Uiso   1.00
N1212  N     0.94730   0.49512   0.96082   0.00000  Uiso   1.00
O1213  O     0.97791   0.52367   0.96728   0.00000  Uiso   1.00
O1214  O     0.95139   0.45820   0.93624   0.00000  Uiso   1.00
F1215  F     0.70683   0.41629   0.75193   0.00000  Uiso   1.00
F1216  F     0.95996   0.58375   0.74935   0.00000  Uiso   1.00
F1217  F     0.95909   0.41639   0.74577   0.00000  Uiso   1.00
F1218  F     0.70772   0.58364   0.75547   0.00000  Uiso   1.00
N1219  N     0.79066   0.38061   0.68157   0.00000  Uiso   1.00
O1220  O     0.75136   0.38457   0.68380   0.00000  Uiso   1.00
O1221  O     0.80643   0.38311   0.64278   0.00000  Uiso   1.00
N1222  N     0.87452   0.61932   0.81927   0.00000  Uiso   1.00
O1223  O     0.91328   0.61117   0.81684   0.00000  Uiso   1.00
O1224  O     0.85857   0.61901   0.85806   0.00000  Uiso   1.00
N1225  N     0.87512   0.38261   0.81913   0.00000  Uiso   1.00
O1226  O     0.91334   0.39330   0.81554   0.00000  Uiso   1.00
O1227  O     0.86015   0.38311   0.85843   0.00000  Uiso   1.00
N1228  N     0.79158   0.61737   0.68085   0.00000  Uiso   1.00
O1229  O     0.75366   0.60550   0.68479   0.00000  Uiso   1.00
O1230  O     0.80616   0.61773   0.64136   0.00000  Uiso   1.00
O1231  O     0.10655   0.87291   0.74999   0.00000  Uiso   1.00
O1232  O     0.22679   0.79375   0.75000   0.00000  Uiso   1.00
O1233  O     0.22679   0.87291   0.75000   0.00000  Uiso   1.00
O1234  O     0.10655   0.79375   0.74999   0.00000  Uiso   1.00
C1235  C     0.08747   0.83328   0.75082   0.00000  Uiso   1.00
C1236  C     0.24590   0.83340   0.74981   0.00000  Uiso   1.00
O1237  O     0.16666   0.87293   0.68513   0.00000  Uiso   1.00
O1238  O     0.16668   0.79373   0.81487   0.00000  Uiso   1.00
O1239  O     0.16668   0.87293   0.81487   0.00000  Uiso   1.00
O1240  O     0.16666   0.79373   0.68513   0.00000  Uiso   1.00
C1241  C     0.16555   0.83313   0.66457   0.00000  Uiso   1.00
C1242  C     0.16754   0.83339   0.83543   0.00000  Uiso   1.00
Cu1243 Cu    0.16667   0.88022   0.75000   0.00000  Uiso   1.00
Cu1244 Cu    0.16667   0.78645   0.75000   0.00000  Uiso   1.00
C1245  C     0.20418   0.84204   0.90906   0.00000  Uiso   1.00
C1246  C     0.12986   0.82269   0.59068   0.00000  Uiso   1.00
C1247  C     0.16802   0.83223   0.88382   0.00000  Uiso   1.00
C1248  C     0.16597   0.83198   0.61625   0.00000  Uiso   1.00
C1249  C     0.13306   0.81617   0.90385   0.00000  Uiso   1.00
C1250  C     0.20321   0.83839   0.59625   0.00000  Uiso   1.00
C1251  C     0.13312   0.81190   0.95067   0.00000  Uiso   1.00
C1252  C     0.20510   0.83430   0.54950   0.00000  Uiso   1.00
C1253  C     0.16902   0.82405   0.97659   0.00000  Uiso   1.00
C1254  C     0.16872   0.82428   0.52356   0.00000  Uiso   1.00
C1255  C     0.20550   0.83516   0.95561   0.00000  Uiso   1.00
C1256  C     0.13194   0.81448   0.54451   0.00000  Uiso   1.00
C1257  C     0.09926   0.79372   0.97236   0.00000  Uiso   1.00
C1258  C     0.24254   0.83705   0.52808   0.00000  Uiso   1.00
C1259  C     0.09866   0.79492   0.51900   0.00000  Uiso   1.00
C1260  C     0.24274   0.83651   0.98143   0.00000  Uiso   1.00
C1261  C     0.02098   0.79121   0.75072   0.00000  Uiso   1.00
C1262  C     0.31247   0.87549   0.75070   0.00000  Uiso   1.00
C1263  C     0.31203   0.79127   0.74898   0.00000  Uiso   1.00
C1264  C     0.02142   0.87543   0.75243   0.00000  Uiso   1.00
C1265  C     0.29060   0.83342   0.74967   0.00000  Uiso   1.00
C1266  C     0.04284   0.83328   0.75161   0.00000  Uiso   1.00
C1267  C     0.14630   0.69086   0.71672   0.00000  Uiso   1.00
C1268  C     0.18677   0.97581   0.78341   0.00000  Uiso   1.00
C1269  C     0.18692   0.69181   0.78338   0.00000  Uiso   1.00
C1270  C     0.14637   0.97485   0.71664   0.00000  Uiso   1.00
N1271  N     0.16667   0.95069   0.75000   0.00000  Uiso   1.00
N1272  N     0.16667   0.71598   0.75000   0.00000  Uiso   1.00
N1273  N     0.23857   0.86140   0.88764   0.00000  Uiso   1.00
O1274  O     0.25388   0.84018   0.85397   0.00000  Uiso   1.00
O1275  O     0.25541   0.89977   0.90271   0.00000  Uiso   1.00
N1276  N     0.09093   0.82848   0.61019   0.00000  Uiso   1.00
O1277  O     0.08294   0.80846   0.64735   0.00000  Uiso   1.00
O1278  O     0.06406   0.85636   0.59189   0.00000  Uiso   1.00
N1279  N     0.09684   0.80789   0.87613   0.00000  Uiso   1.00
O1280  O     0.07358   0.84261   0.86459   0.00000  Uiso   1.00
O1281  O     0.09174   0.76820   0.85558   0.00000  Uiso   1.00
N1282  N     0.23811   0.85256   0.62374   0.00000  Uiso   1.00
O1283  O     0.24855   0.89613   0.62605   0.00000  Uiso   1.00
O1284  O     0.25584   0.82317   0.65083   0.00000  Uiso   1.00
N1285  N     0.06769   0.76853   0.94791   0.00000  Uiso   1.00
O1286  O     0.03465   0.78964   0.93392   0.00000  Uiso   1.00
O1287  O     0.06975   0.72358   0.94463   0.00000  Uiso   1.00
N1288  N     0.28075   0.83334   0.55298   0.00000  Uiso   1.00
O1289  O     0.30538   0.86881   0.55707   0.00000  Uiso   1.00
O1290  O     0.29092   0.79423   0.57156   0.00000  Uiso   1.00
N1291  N     0.06646   0.77094   0.54026   0.00000  Uiso   1.00
O1292  O     0.02853   0.77737   0.52727   0.00000  Uiso   1.00
O1293  O     0.07528   0.73883   0.56924   0.00000  Uiso   1.00
N1294  N     0.28063   0.82846   0.96082   0.00000  Uiso   1.00
O1295  O     0.31124   0.85701   0.96728   0.00000  Uiso   1.00
O1296  O     0.28472   0.79154   0.93624   0.00000  Uiso   1.00
F1297  F     0.04017   0.74963   0.75193   0.00000  Uiso   1.00
F1298  F     0.29330   0.91708   0.74935   0.00000  Uiso   1.00
F1299  F     0.29242   0.74973   0.74577   0.00000  Uiso   1.00
F1300  F     0.04105   0.91697   0.75547   0.00000  Uiso   1.00
N1301  N     0.12399   0.71394   0.68157   0.00000  Uiso   1.00
O1302  O     0.08469   0.71790   0.68380   0.00000  Uiso   1.00
O1303  O     0.13977   0.71644   0.64278   0.00000  Uiso   1.00
N1304  N     0.20785   0.95266   0.81927   0.00000  Uiso   1.00
O1305  O     0.24661   0.94451   0.81684   0.00000  Uiso   1.00
O1306  O     0.19190   0.95234   0.85806   0.00000  Uiso   1.00
N1307  N     0.20845   0.71594   0.81913   0.00000  Uiso   1.00
O1308  O     0.24668   0.72663   0.81554   0.00000  Uiso   1.00
O1309  O     0.19348   0.71644   0.85843   0.00000  Uiso   1.00
N1310  N     0.12491   0.95070   0.68085   0.00000  Uiso   1.00
O1311  O     0.08699   0.93884   0.68479   0.00000  Uiso   1.00
O1312  O     0.13950   0.95107   0.64136   0.00000  Uiso   1.00
O1313  O     0.43988   0.87291   0.74999   0.00000  Uiso   1.00
O1314  O     0.56012   0.79375   0.75000   0.00000  Uiso   1.00
O1315  O     0.56012   0.87291   0.75000   0.00000  Uiso   1.00
O1316  O     0.43988   0.79375   0.74999   0.00000  Uiso   1.00
C1317  C     0.42081   0.83328   0.75082   0.00000  Uiso   1.00
C1318  C     0.57924   0.83340   0.74981   0.00000  Uiso   1.00
O1319  O     0.49999   0.87293   0.68513   0.00000  Uiso   1.00
O1320  O     0.50001   0.79373   0.81487   0.00000  Uiso   1.00
O1321  O     0.50001   0.87293   0.81487   0.00000  Uiso   1.00
O1322  O     0.49999   0.79373   0.68513   0.00000  Uiso   1.00
C1323  C     0.49889   0.83313   0.66457   0.00000  Uiso   1.00
C1324  C     0.50087   0.83339   0.83543   0.00000  Uiso   1.00
Cu1325 Cu    0.50000   0.88022   0.75000   0.00000  Uiso   1.00
Cu1326 Cu    0.50000   0.78645   0.75000   0.00000  Uiso   1.00
C1327  C     0.53752   0.84204   0.90906   0.00000  Uiso   1.00
C1328  C     0.46320   0.82269   0.59068   0.00000  Uiso   1.00
C1329  C     0.50135   0.83223   0.88382   0.00000  Uiso   1.00
C1330  C     0.49930   0.83198   0.61625   0.00000  Uiso   1.00
C1331  C     0.46639   0.81617   0.90385   0.00000  Uiso   1.00
C1332  C     0.53654   0.83839   0.59625   0.00000  Uiso   1.00
C1333  C     0.46645   0.81190   0.95067   0.00000  Uiso   1.00
C1334  C     0.53843   0.83430   0.54950   0.00000  Uiso   1.00
C1335  C     0.50235   0.82405   0.97659   0.00000  Uiso   1.00
C1336  C     0.50205   0.82428   0.52356   0.00000  Uiso   1.00
C1337  C     0.53884   0.83516   0.95561   0.00000  Uiso   1.00
C1338  C     0.46527   0.81448   0.54451   0.00000  Uiso   1.00
C1339  C     0.43260   0.79372   0.97236   0.00000  Uiso   1.00
C1340  C     0.57587   0.83705   0.52808   0.00000  Uiso   1.00
C1341  C     0.43199   0.79492   0.51900   0.00000  Uiso   1.00
C1342  C     0.57607   0.83651   0.98143   0.00000  Uiso   1.00
C1343  C     0.35431   0.79121   0.75072   0.00000  Uiso   1.00
C1344  C     0.64580   0.87549   0.75070   0.00000  Uiso   1.00
C1345  C     0.64536   0.79127   0.74898   0.00000  Uiso   1.00
C1346  C     0.35476   0.87543   0.75243   0.00000  Uiso   1.00
C1347  C     0.62393   0.83342   0.74967   0.00000  Uiso   1.00
C1348  C     0.37617   0.83328   0.75161   0.00000  Uiso   1.00
C1349  C     0.47963   0.69086   0.71672   0.00000  Uiso   1.00
C1350  C     0.52010   0.97581   0.78341   0.00000  Uiso   1.00
C1351  C     0.52025   0.69181   0.78338   0.00000  Uiso   1.00
C1352  C     0.47970   0.97485   0.71664   0.00000  Uiso   1.00
N1353  N     0.50000   0.95069   0.75000   0.00000  Uiso   1.00
N1354  N     0.50000   0.71598   0.75000   0.00000  Uiso   1.00
N1355  N     0.57190   0.86140   0.88764   0.00000  Uiso   1.00
O1356  O     0.58722   0.84018   0.85397   0.00000  Uiso   1.00
O1357  O     0.58874   0.89977   0.90271   0.00000  Uiso   1.00
N1358  N     0.42426   0.82848   0.61019   0.00000  Uiso   1.00
O1359  O     0.41627   0.80846   0.64735   0.00000  Uiso   1.00
O1360  O     0.39739   0.85636   0.59189   0.00000  Uiso   1.00
N1361  N     0.43018   0.80789   0.87613   0.00000  Uiso   1.00
O1362  O     0.40691   0.84261   0.86459   0.00000  Uiso   1.00
O1363  O     0.42507   0.76820   0.85558   0.00000  Uiso   1.00
N1364  N     0.57144   0.85256   0.62374   0.00000  Uiso   1.00
O1365  O     0.58189   0.89613   0.62605   0.00000  Uiso   1.00
O1366  O     0.58917   0.82317   0.65083   0.00000  Uiso   1.00
N1367  N     0.40102   0.76853   0.94791   0.00000  Uiso   1.00
O1368  O     0.36799   0.78964   0.93392   0.00000  Uiso   1.00
O1369  O     0.40308   0.72358   0.94463   0.00000  Uiso   1.00
N1370  N     0.61408   0.83334   0.55298   0.00000  Uiso   1.00
O1371  O     0.63871   0.86881   0.55707   0.00000  Uiso   1.00
O1372  O     0.62425   0.79423   0.57156   0.00000  Uiso   1.00
N1373  N     0.39979   0.77094   0.54026   0.00000  Uiso   1.00
O1374  O     0.36187   0.77737   0.52727   0.00000  Uiso   1.00
O1375  O     0.40861   0.73883   0.56924   0.00000  Uiso   1.00
N1376  N     0.61397   0.82846   0.96082   0.00000  Uiso   1.00
O1377  O     0.64458   0.85701   0.96728   0.00000  Uiso   1.00
O1378  O     0.61806   0.79154   0.93624   0.00000  Uiso   1.00
F1379  F     0.37350   0.74963   0.75193   0.00000  Uiso   1.00
F1380  F     0.62663   0.91708   0.74935   0.00000  Uiso   1.00
F1381  F     0.62575   0.74973   0.74577   0.00000  Uiso   1.00
F1382  F     0.37438   0.91697   0.75547   0.00000  Uiso   1.00
N1383  N     0.45733   0.71394   0.68157   0.00000  Uiso   1.00
O1384  O     0.41802   0.71790   0.68380   0.00000  Uiso   1.00
O1385  O     0.47310   0.71644   0.64278   0.00000  Uiso   1.00
N1386  N     0.54119   0.95266   0.81927   0.00000  Uiso   1.00
O1387  O     0.57995   0.94451   0.81684   0.00000  Uiso   1.00
O1388  O     0.52524   0.95234   0.85806   0.00000  Uiso   1.00
N1389  N     0.54179   0.71594   0.81913   0.00000  Uiso   1.00
O1390  O     0.58001   0.72663   0.81554   0.00000  Uiso   1.00
O1391  O     0.52682   0.71644   0.85843   0.00000  Uiso   1.00
N1392  N     0.45824   0.95070   0.68085   0.00000  Uiso   1.00
O1393  O     0.42033   0.93884   0.68479   0.00000  Uiso   1.00
O1394  O     0.47283   0.95107   0.64136   0.00000  Uiso   1.00
O1395  O     0.77321   0.87291   0.74999   0.00000  Uiso   1.00
O1396  O     0.89345   0.79375   0.75000   0.00000  Uiso   1.00
O1397  O     0.89345   0.87291   0.75000   0.00000  Uiso   1.00
O1398  O     0.77321   0.79375   0.74999   0.00000  Uiso   1.00
C1399  C     0.75414   0.83328   0.75082   0.00000  Uiso   1.00
C1400  C     0.91257   0.83340   0.74981   0.00000  Uiso   1.00
O1401  O     0.83332   0.87293   0.68513   0.00000  Uiso   1.00
O1402  O     0.83334   0.79373   0.81487   0.00000  Uiso   1.00
O1403  O     0.83334   0.87293   0.81487   0.00000  Uiso   1.00
O1404  O     0.83332   0.79373   0.68513   0.00000  Uiso   1.00
C1405  C     0.83222   0.83313   0.66457   0.00000  Uiso   1.00
C1406  C     0.83421   0.83339   0.83543   0.00000  Uiso   1.00
Cu1407 Cu    0.83333   0.88022   0.75000   0.00000  Uiso   1.00
Cu1408 Cu    0.83333   0.78645   0.75000   0.00000  Uiso   1.00
C1409  C     0.87085   0.84204   0.90906   0.00000  Uiso   1.00
C1410  C     0.79653   0.82269   0.59068   0.00000  Uiso   1.00
C1411  C     0.83469   0.83223   0.88382   0.00000  Uiso   1.00
C1412  C     0.83263   0.83198   0.61625   0.00000  Uiso   1.00
C1413  C     0.79973   0.81617   0.90385   0.00000  Uiso   1.00
C1414  C     0.86988   0.83839   0.59625   0.00000  Uiso   1.00
C1415  C     0.79978   0.81190   0.95067   0.00000  Uiso   1.00
C1416  C     0.87177   0.83430   0.54950   0.00000  Uiso   1.00
C1417  C     0.83569   0.82405   0.97659   0.00000  Uiso   1.00
C1418  C     0.83538   0.82428   0.52356   0.00000  Uiso   1.00
C1419  C     0.87217   0.83516   0.95561   0.00000  Uiso   1.00
C1420  C     0.79860   0.81448   0.54451   0.00000  Uiso   1.00
C1421  C     0.76593   0.79372   0.97236   0.00000  Uiso   1.00
C1422  C     0.90921   0.83705   0.52808   0.00000  Uiso   1.00
C1423  C     0.76532   0.79492   0.51900   0.00000  Uiso   1.00
C1424  C     0.90940   0.83651   0.98143   0.00000  Uiso   1.00
C1425  C     0.68764   0.79121   0.75072   0.00000  Uiso   1.00
C1426  C     0.97914   0.87549   0.75070   0.00000  Uiso   1.00
C1427  C     0.97869   0.79127   0.74898   0.00000  Uiso   1.00
C1428  C     0.68809   0.87543   0.75243   0.00000  Uiso   1.00
C1429  C     0.95726   0.83342   0.74967   0.00000  Uiso   1.00
C1430  C     0.70951   0.83328   0.75161   0.00000  Uiso   1.00
C1431  C     0.81297   0.69086   0.71672   0.00000  Uiso   1.00
C1432  C     0.85343   0.97581   0.78341   0.00000  Uiso   1.00
C1433  C     0.85358   0.69181   0.78338   0.00000  Uiso   1.00
C1434  C     0.81303   0.97485   0.71664   0.00000  Uiso   1.00
N1435  N     0.83333   0.95069   0.75000   0.00000  Uiso   1.00
N1436  N     0.83333   0.71598   0.75000   0.00000  Uiso   1.00
N1437  N     0.90523   0.86140   0.88764   0.00000  Uiso   1.00
O1438  O     0.92055   0.84018   0.85397   0.00000  Uiso   1.00
O1439  O     0.92207   0.89977   0.90271   0.00000  Uiso   1.00
N1440  N     0.75759   0.82848   0.61019   0.00000  Uiso   1.00
O1441  O     0.74960   0.80846   0.64735   0.00000  Uiso   1.00
O1442  O     0.73072   0.85636   0.59189   0.00000  Uiso   1.00
N1443  N     0.76351   0.80789   0.87613   0.00000  Uiso   1.00
O1444  O     0.74024   0.84261   0.86459   0.00000  Uiso   1.00
O1445  O     0.75840   0.76820   0.85558   0.00000  Uiso   1.00
N1446  N     0.90478   0.85256   0.62374   0.00000  Uiso   1.00
O1447  O     0.91522   0.89613   0.62605   0.00000  Uiso   1.00
O1448  O     0.92250   0.82317   0.65083   0.00000  Uiso   1.00
N1449  N     0.73436   0.76853   0.94791   0.00000  Uiso   1.00
O1450  O     0.70132   0.78964   0.93392   0.00000  Uiso   1.00
O1451  O     0.73641   0.72358   0.94463   0.00000  Uiso   1.00
N1452  N     0.94742   0.83334   0.55298   0.00000  Uiso   1.00
O1453  O     0.97204   0.86881   0.55707   0.00000  Uiso   1.00
O1454  O     0.95758   0.79423   0.57156   0.00000  Uiso   1.00
N1455  N     0.73313   0.77094   0.54026   0.00000  Uiso   1.00
O1456  O     0.69520   0.77737   0.52727   0.00000  Uiso   1.00
O1457  O     0.74194   0.73883   0.56924   0.00000  Uiso   1.00
N1458  N     0.94730   0.82846   0.96082   0.00000  Uiso   1.00
O1459  O     0.97791   0.85701   0.96728   0.00000  Uiso   1.00
O1460  O     0.95139   0.79154   0.93624   0.00000  Uiso   1.00
F1461  F     0.70683   0.74963   0.75193   0.00000  Uiso   1.00
F1462  F     0.95996   0.91708   0.74935   0.00000  Uiso   1.00
F1463  F     0.95909   0.74973   0.74577   0.00000  Uiso   1.00
F1464  F     0.70772   0.91697   0.75547   0.00000  Uiso   1.00
N1465  N     0.79066   0.71394   0.68157   0.00000  Uiso   1.00
O1466  O     0.75136   0.71790   0.68380   0.00000  Uiso   1.00
O1467  O     0.80643   0.71644   0.64278   0.00000  Uiso   1.00
N1468  N     0.87452   0.95266   0.81927   0.00000  Uiso   1.00
O1469  O     0.91328   0.94451   0.81684   0.00000  Uiso   1.00
O1470  O     0.85857   0.95234   0.85806   0.00000  Uiso   1.00
N1471  N     0.87512   0.71594   0.81913   0.00000  Uiso   1.00
O1472  O     0.91334   0.72663   0.81554   0.00000  Uiso   1.00
O1473  O     0.86015   0.71644   0.85843   0.00000  Uiso   1.00
N1474  N     0.79158   0.95070   0.68085   0.00000  Uiso   1.00
O1475  O     0.75366   0.93884   0.68479   0.00000  Uiso   1.00
O1476  O     0.80616   0.95107   0.64136   0.00000  Uiso   1.00
loop_
_geom_bond_atom_site_label_1
_geom_bond_atom_site_label_2
_geom_bond_distance
_geom_bond_site_symmetry_2
_ccdc_geom_bond_type
O1     C5      1.301   .     A
O1     Cu13    1.982   .     S
O2     C6      1.301   .     A
O2     Cu14    1.982   .     S
O3     C6      1.303   .     A
O3     Cu13    1.984   .     S
O4     C5      1.303   .     A
O4     Cu14    1.984   .     S
C5     C36     1.465   .     S
C6     C35     1.466   .     S
O7     C11     1.298   .     A
O7     Cu13    1.959   .     S
O8     C12     1.294   .     A
O8     Cu14    1.959   .     S
O9     Cu13    1.963   .     S
O9     C12     1.302   .     A
O10    Cu14    1.963   .     S
O10    C11     1.298   .     A
C11    C18     1.453   .     S
C12    C17     1.455   .     S
Cu13   N41     2.032   .     S
Cu13   Cu14    2.704   .     S
Cu14   N42     2.032   .     S
C15    C25     1.414   .     A
C15    C17     1.402   .     A
C15    N43     1.439   .     S
C16    C26     1.411   .     A
C16    N46     1.441   .     S
C16    C18     1.403   .     A
C17    C19     1.400   .     A
C18    C20     1.400   .     A
C19    C21     1.414   .     A
C19    N49     1.434   .     S
C20    C22     1.414   .     A
C20    N52     1.434   .     S
C21    C27     1.416   .     A
C21    C23     1.420   .     A
C22    C28     1.416   .     A
C22    C24     1.420   .     A
C23    C25     1.416   .     A
C23    C762    1.412   .     S
C24    C26     1.416   .     A
C24    C761    1.412   1_554 S
C25    C30     1.414   .     A
C26    C29     1.414   .     A
C27    N55     1.431   .     S
C27    C767    1.403   .     S
C28    N58     1.433   .     S
C28    C768    1.402   1_554 S
C29    N61     1.438   .     S
C29    C765    1.403   1_554 S
C30    N64     1.435   .     S
C30    C766    1.402   .     S
C31    F67     1.357   .     S
C31    C36     1.405   .     A
C31    C197    1.385   1_455 S
C32    F68     1.357   .     S
C32    C35     1.406   .     A
C32    C116    1.385   .     S
C33    C35     1.407   .     A
C33    F69     1.357   .     S
C33    C113    1.385   .     S
C34    F70     1.357   .     S
C34    C36     1.407   .     A
C34    C196    1.385   1_455 S
C37    N71     1.427   .     S
C37    N42     1.374   .     A
C37    C532    1.423   1_545 S
C38    N41     1.373   .     A
C38    N74     1.425   .     S
C38    C285    1.422   .     S
C39    N77     1.430   .     S
C39    N42     1.373   .     A
C39    C530    1.422   1_545 S
C40    N80     1.430   .     S
C40    N41     1.374   .     A
C40    C283    1.423   .     S
N43    O44     1.301   .     A
N43    O45     1.301   .     A
N46    O48     1.301   .     A
N46    O47     1.300   .     A
N49    O51     1.302   .     A
N49    O50     1.301   .     A
N52    O54     1.300   .     A
N52    O53     1.301   .     A
N55    O56     1.299   .     A
N55    O57     1.301   .     A
N58    O60     1.301   .     A
N58    O59     1.301   .     A
N61    O63     1.301   .     A
N61    O62     1.300   .     A
N64    O65     1.301   .     A
N64    O66     1.301   .     A
N71    O73     1.301   .     A
N71    O72     1.299   .     A
N74    O76     1.301   .     A
N74    O75     1.299   .     A
N77    O78     1.299   .     A
N77    O79     1.301   .     A
N80    O82     1.301   .     A
N80    O81     1.299   .     A
O83    C87     1.301   .     A
O83    Cu95    1.982   .     S
O84    C88     1.301   .     A
O84    Cu96    1.982   .     S
O85    C88     1.303   .     A
O85    Cu95    1.984   .     S
O86    C87     1.303   .     A
O86    Cu96    1.984   .     S
C87    C118    1.465   .     S
C88    C117    1.466   .     S
O89    C93     1.298   .     A
O89    Cu95    1.959   .     S
O90    C94     1.294   .     A
O90    Cu96    1.959   .     S
O91    Cu95    1.963   .     S
O91    C94     1.302   .     A
O92    Cu96    1.963   .     S
O92    C93     1.298   .     A
C93    C100    1.453   .     S
C94    C99     1.455   .     S
Cu95   N123    2.032   .     S
Cu95   Cu96    2.704   .     S
Cu96   N124    2.032   .     S
C97    C107    1.414   .     A
C97    C99     1.402   .     A
C97    N125    1.439   .     S
C98    C108    1.411   .     A
C98    N128    1.441   .     S
C98    C100    1.403   .     A
C99    C101    1.400   .     A
C100   C102    1.400   .     A
C101   C103    1.414   .     A
C101   N131    1.434   .     S
C102   C104    1.414   .     A
C102   N134    1.434   .     S
C103   C109    1.416   .     A
C103   C105    1.420   .     A
C104   C110    1.416   .     A
C104   C106    1.420   .     A
C105   C107    1.416   .     A
C105   C844    1.412   .     S
C106   C108    1.416   .     A
C106   C843    1.412   1_554 S
C107   C112    1.414   .     A
C108   C111    1.414   .     A
C109   N137    1.431   .     S
C109   C849    1.403   .     S
C110   N140    1.433   .     S
C110   C850    1.402   1_554 S
C111   N143    1.438   .     S
C111   C847    1.403   1_554 S
C112   N146    1.435   .     S
C112   C848    1.402   .     S
C113   F149    1.357   .     S
C113   C118    1.405   .     A
C114   F150    1.357   .     S
C114   C117    1.406   .     A
C114   C198    1.385   .     S
C115   C117    1.407   .     A
C115   F151    1.357   .     S
C115   C195    1.385   .     S
C116   F152    1.357   .     S
C116   C118    1.407   .     A
C119   N153    1.427   .     S
C119   N124    1.374   .     A
C119   C614    1.423   1_545 S
C120   N123    1.373   .     A
C120   N156    1.425   .     S
C120   C367    1.422   .     S
C121   N159    1.430   .     S
C121   N124    1.373   .     A
C121   C612    1.422   1_545 S
C122   N162    1.430   .     S
C122   N123    1.374   .     A
C122   C365    1.423   .     S
N125   O126    1.301   .     A
N125   O127    1.301   .     A
N128   O130    1.301   .     A
N128   O129    1.300   .     A
N131   O133    1.302   .     A
N131   O132    1.301   .     A
N134   O136    1.300   .     A
N134   O135    1.301   .     A
N137   O138    1.299   .     A
N137   O139    1.301   .     A
N140   O142    1.301   .     A
N140   O141    1.301   .     A
N143   O145    1.301   .     A
N143   O144    1.300   .     A
N146   O147    1.301   .     A
N146   O148    1.301   .     A
N153   O155    1.301   .     A
N153   O154    1.299   .     A
N156   O158    1.301   .     A
N156   O157    1.299   .     A
N159   O160    1.299   .     A
N159   O161    1.301   .     A
N162   O164    1.301   .     A
N162   O163    1.299   .     A
O165   C169    1.301   .     A
O165   Cu177   1.982   .     S
O166   C170    1.301   .     A
O166   Cu178   1.982   .     S
O167   C170    1.303   .     A
O167   Cu177   1.984   .     S
O168   C169    1.303   .     A
O168   Cu178   1.984   .     S
C169   C200    1.465   .     S
C170   C199    1.466   .     S
O171   C175    1.298   .     A
O171   Cu177   1.959   .     S
O172   C176    1.294   .     A
O172   Cu178   1.959   .     S
O173   Cu177   1.963   .     S
O173   C176    1.302   .     A
O174   Cu178   1.963   .     S
O174   C175    1.298   .     A
C175   C182    1.453   .     S
C176   C181    1.455   .     S
Cu177  N205    2.032   .     S
Cu177  Cu178   2.704   .     S
Cu178  N206    2.032   .     S
C179   C189    1.414   .     A
C179   C181    1.402   .     A
C179   N207    1.439   .     S
C180   C190    1.411   .     A
C180   N210    1.441   .     S
C180   C182    1.403   .     A
C181   C183    1.400   .     A
C182   C184    1.400   .     A
C183   C185    1.414   .     A
C183   N213    1.434   .     S
C184   C186    1.414   .     A
C184   N216    1.434   .     S
C185   C191    1.416   .     A
C185   C187    1.420   .     A
C186   C192    1.416   .     A
C186   C188    1.420   .     A
C187   C189    1.416   .     A
C187   C926    1.412   .     S
C188   C190    1.416   .     A
C188   C925    1.412   1_554 S
C189   C194    1.414   .     A
C190   C193    1.414   .     A
C191   N219    1.431   .     S
C191   C931    1.403   .     S
C192   N222    1.433   .     S
C192   C932    1.402   1_554 S
C193   N225    1.438   .     S
C193   C929    1.403   1_554 S
C194   N228    1.435   .     S
C194   C930    1.402   .     S
C195   F231    1.357   .     S
C195   C200    1.405   .     A
C196   F232    1.357   .     S
C196   C199    1.406   .     A
C196   C34     1.385   1_655 S
C197   C199    1.407   .     A
C197   F233    1.357   .     S
C197   C31     1.385   1_655 S
C198   F234    1.357   .     S
C198   C200    1.407   .     A
C201   N235    1.427   .     S
C201   N206    1.374   .     A
C201   C696    1.423   1_545 S
C202   N205    1.373   .     A
C202   N238    1.425   .     S
C202   C449    1.422   .     S
C203   N241    1.430   .     S
C203   N206    1.373   .     A
C203   C694    1.422   1_545 S
C204   N244    1.430   .     S
C204   N205    1.374   .     A
C204   C447    1.423   .     S
N207   O208    1.301   .     A
N207   O209    1.301   .     A
N210   O212    1.301   .     A
N210   O211    1.300   .     A
N213   O215    1.302   .     A
N213   O214    1.301   .     A
N216   O218    1.300   .     A
N216   O217    1.301   .     A
N219   O220    1.299   .     A
N219   O221    1.301   .     A
N222   O224    1.301   .     A
N222   O223    1.301   .     A
N225   O227    1.301   .     A
N225   O226    1.300   .     A
N228   O229    1.301   .     A
N228   O230    1.301   .     A
N235   O237    1.301   .     A
N235   O236    1.299   .     A
N238   O240    1.301   .     A
N238   O239    1.299   .     A
N241   O242    1.299   .     A
N241   O243    1.301   .     A
N244   O246    1.301   .     A
N244   O245    1.299   .     A
O247   C251    1.301   .     A
O247   Cu259   1.982   .     S
O248   C252    1.301   .     A
O248   Cu260   1.982   .     S
O249   C252    1.303   .     A
O249   Cu259   1.984   .     S
O250   C251    1.303   .     A
O250   Cu260   1.984   .     S
C251   C282    1.465   .     S
C252   C281    1.466   .     S
O253   C257    1.298   .     A
O253   Cu259   1.959   .     S
O254   C258    1.294   .     A
O254   Cu260   1.959   .     S
O255   Cu259   1.963   .     S
O255   C258    1.302   .     A
O256   Cu260   1.963   .     S
O256   C257    1.298   .     A
C257   C264    1.453   .     S
C258   C263    1.455   .     S
Cu259  N287    2.032   .     S
Cu259  Cu260   2.704   .     S
Cu260  N288    2.032   .     S
C261   C271    1.414   .     A
C261   C263    1.402   .     A
C261   N289    1.439   .     S
C262   C272    1.411   .     A
C262   N292    1.441   .     S
C262   C264    1.403   .     A
C263   C265    1.400   .     A
C264   C266    1.400   .     A
C265   C267    1.414   .     A
C265   N295    1.434   .     S
C266   C268    1.414   .     A
C266   N298    1.434   .     S
C267   C273    1.416   .     A
C267   C269    1.420   .     A
C268   C274    1.416   .     A
C268   C270    1.420   .     A
C269   C271    1.416   .     A
C269   C1008   1.412   .     S
C270   C272    1.416   .     A
C270   C1007   1.412   1_554 S
C271   C276    1.414   .     A
C272   C275    1.414   .     A
C273   N301    1.431   .     S
C273   C1013   1.403   .     S
C274   N304    1.433   .     S
C274   C1014   1.402   1_554 S
C275   N307    1.438   .     S
C275   C1011   1.403   1_554 S
C276   N310    1.435   .     S
C276   C1012   1.402   .     S
C277   F313    1.357   .     S
C277   C282    1.405   .     A
C277   C443    1.385   1_455 S
C278   F314    1.357   .     S
C278   C281    1.406   .     A
C278   C362    1.385   .     S
C279   C281    1.407   .     A
C279   F315    1.357   .     S
C279   C359    1.385   .     S
C280   F316    1.357   .     S
C280   C282    1.407   .     A
C280   C442    1.385   1_455 S
C283   N317    1.427   .     S
C283   N288    1.374   .     A
C284   N287    1.373   .     A
C284   N320    1.425   .     S
C284   C531    1.422   .     S
C285   N323    1.430   .     S
C285   N288    1.373   .     A
C286   N326    1.430   .     S
C286   N287    1.374   .     A
C286   C529    1.423   .     S
N289   O290    1.301   .     A
N289   O291    1.301   .     A
N292   O294    1.301   .     A
N292   O293    1.300   .     A
N295   O297    1.302   .     A
N295   O296    1.301   .     A
N298   O300    1.300   .     A
N298   O299    1.301   .     A
N301   O302    1.299   .     A
N301   O303    1.301   .     A
N304   O306    1.301   .     A
N304   O305    1.301   .     A
N307   O309    1.301   .     A
N307   O308    1.300   .     A
N310   O311    1.301   .     A
N310   O312    1.301   .     A
N317   O319    1.301   .     A
N317   O318    1.299   .     A
N320   O322    1.301   .     A
N320   O321    1.299   .     A
N323   O324    1.299   .     A
N323   O325    1.301   .     A
N326   O328    1.301   .     A
N326   O327    1.299   .     A
O329   C333    1.301   .     A
O329   Cu341   1.982   .     S
O330   C334    1.301   .     A
O330   Cu342   1.982   .     S
O331   C334    1.303   .     A
O331   Cu341   1.984   .     S
O332   C333    1.303   .     A
O332   Cu342   1.984   .     S
C333   C364    1.465   .     S
C334   C363    1.466   .     S
O335   C339    1.298   .     A
O335   Cu341   1.959   .     S
O336   C340    1.294   .     A
O336   Cu342   1.959   .     S
O337   Cu341   1.963   .     S
O337   C340    1.302   .     A
O338   Cu342   1.963   .     S
O338   C339    1.298   .     A
C339   C346    1.453   .     S
C340   C345    1.455   .     S
Cu341  N369    2.032   .     S
Cu341  Cu342   2.704   .     S
Cu342  N370    2.032   .     S
C343   C353    1.414   .     A
C343   C345    1.402   .     A
C343   N371    1.439   .     S
C344   C354    1.411   .     A
C344   N374    1.441   .     S
C344   C346    1.403   .     A
C345   C347    1.400   .     A
C346   C348    1.400   .     A
C347   C349    1.414   .     A
C347   N377    1.434   .     S
C348   C350    1.414   .     A
C348   N380    1.434   .     S
C349   C355    1.416   .     A
C349   C351    1.420   .     A
C350   C356    1.416   .     A
C350   C352    1.420   .     A
C351   C353    1.416   .     A
C351   C1090   1.412   .     S
C352   C354    1.416   .     A
C352   C1089   1.412   1_554 S
C353   C358    1.414   .     A
C354   C357    1.414   .     A
C355   N383    1.431   .     S
C355   C1095   1.403   .     S
C356   N386    1.433   .     S
C356   C1096   1.402   1_554 S
C357   N389    1.438   .     S
C357   C1093   1.403   1_554 S
C358   N392    1.435   .     S
C358   C1094   1.402   .     S
C359   F395    1.357   .     S
C359   C364    1.405   .     A
C360   F396    1.357   .     S
C360   C363    1.406   .     A
C360   C444    1.385   .     S
C361   C363    1.407   .     A
C361   F397    1.357   .     S
C361   C441    1.385   .     S
C362   F398    1.357   .     S
C362   C364    1.407   .     A
C365   N399    1.427   .     S
C365   N370    1.374   .     A
C366   N369    1.373   .     A
C366   N402    1.425   .     S
C366   C613    1.422   .     S
C367   N405    1.430   .     S
C367   N370    1.373   .     A
C368   N408    1.430   .     S
C368   N369    1.374   .     A
C368   C611    1.423   .     S
N371   O372    1.301   .     A
N371   O373    1.301   .     A
N374   O376    1.301   .     A
N374   O375    1.300   .     A
N377   O379    1.302   .     A
N377   O378    1.301   .     A
N380   O382    1.300   .     A
N380   O381    1.301   .     A
N383   O384    1.299   .     A
N383   O385    1.301   .     A
N386   O388    1.301   .     A
N386   O387    1.301   .     A
N389   O391    1.301   .     A
N389   O390    1.300   .     A
N392   O393    1.301   .     A
N392   O394    1.301   .     A
N399   O401    1.301   .     A
N399   O400    1.299   .     A
N402   O404    1.301   .     A
N402   O403    1.299   .     A
N405   O406    1.299   .     A
N405   O407    1.301   .     A
N408   O410    1.301   .     A
N408   O409    1.299   .     A
O411   C415    1.301   .     A
O411   Cu423   1.982   .     S
O412   C416    1.301   .     A
O412   Cu424   1.982   .     S
O413   C416    1.303   .     A
O413   Cu423   1.984   .     S
O414   C415    1.303   .     A
O414   Cu424   1.984   .     S
C415   C446    1.465   .     S
C416   C445    1.466   .     S
O417   C421    1.298   .     A
O417   Cu423   1.959   .     S
O418   C422    1.294   .     A
O418   Cu424   1.959   .     S
O419   Cu423   1.963   .     S
O419   C422    1.302   .     A
O420   Cu424   1.963   .     S
O420   C421    1.298   .     A
C421   C428    1.453   .     S
C422   C427    1.455   .     S
Cu423  N451    2.032   .     S
Cu423  Cu424   2.704   .     S
Cu424  N452    2.032   .     S
C425   C435    1.414   .     A
C425   C427    1.402   .     A
C425   N453    1.439   .     S
C426   C436    1.411   .     A
C426   N456    1.441   .     S
C426   C428    1.403   .     A
C427   C429    1.400   .     A
C428   C430    1.400   .     A
C429   C431    1.414   .     A
C429   N459    1.434   .     S
C430   C432    1.414   .     A
C430   N462    1.434   .     S
C431   C437    1.416   .     A
C431   C433    1.420   .     A
C432   C438    1.416   .     A
C432   C434    1.420   .     A
C433   C435    1.416   .     A
C433   C1172   1.412   .     S
C434   C436    1.416   .     A
C434   C1171   1.412   1_554 S
C435   C440    1.414   .     A
C436   C439    1.414   .     A
C437   N465    1.431   .     S
C437   C1177   1.403   .     S
C438   N468    1.433   .     S
C438   C1178   1.402   1_554 S
C439   N471    1.438   .     S
C439   C1175   1.403   1_554 S
C440   N474    1.435   .     S
C440   C1176   1.402   .     S
C441   F477    1.357   .     S
C441   C446    1.405   .     A
C442   F478    1.357   .     S
C442   C445    1.406   .     A
C442   C280    1.385   1_655 S
C443   C445    1.407   .     A
C443   F479    1.357   .     S
C443   C277    1.385   1_655 S
C444   F480    1.357   .     S
C444   C446    1.407   .     A
C447   N481    1.427   .     S
C447   N452    1.374   .     A
C448   N451    1.373   .     A
C448   N484    1.425   .     S
C448   C695    1.422   .     S
C449   N487    1.430   .     S
C449   N452    1.373   .     A
C450   N490    1.430   .     S
C450   N451    1.374   .     A
C450   C693    1.423   .     S
N453   O454    1.301   .     A
N453   O455    1.301   .     A
N456   O458    1.301   .     A
N456   O457    1.300   .     A
N459   O461    1.302   .     A
N459   O460    1.301   .     A
N462   O464    1.300   .     A
N462   O463    1.301   .     A
N465   O466    1.299   .     A
N465   O467    1.301   .     A
N468   O470    1.301   .     A
N468   O469    1.301   .     A
N471   O473    1.301   .     A
N471   O472    1.300   .     A
N474   O475    1.301   .     A
N474   O476    1.301   .     A
N481   O483    1.301   .     A
N481   O482    1.299   .     A
N484   O486    1.301   .     A
N484   O485    1.299   .     A
N487   O488    1.299   .     A
N487   O489    1.301   .     A
N490   O492    1.301   .     A
N490   O491    1.299   .     A
O493   C497    1.301   .     A
O493   Cu505   1.982   .     S
O494   C498    1.301   .     A
O494   Cu506   1.982   .     S
O495   C498    1.303   .     A
O495   Cu505   1.984   .     S
O496   C497    1.303   .     A
O496   Cu506   1.984   .     S
C497   C528    1.465   .     S
C498   C527    1.466   .     S
O499   C503    1.298   .     A
O499   Cu505   1.959   .     S
O500   C504    1.294   .     A
O500   Cu506   1.959   .     S
O501   Cu505   1.963   .     S
O501   C504    1.302   .     A
O502   Cu506   1.963   .     S
O502   C503    1.298   .     A
C503   C510    1.453   .     S
C504   C509    1.455   .     S
Cu505  N533    2.032   .     S
Cu505  Cu506   2.704   .     S
Cu506  N534    2.032   .     S
C507   C517    1.414   .     A
C507   C509    1.402   .     A
C507   N535    1.439   .     S
C508   C518    1.411   .     A
C508   N538    1.441   .     S
C508   C510    1.403   .     A
C509   C511    1.400   .     A
C510   C512    1.400   .     A
C511   C513    1.414   .     A
C511   N541    1.434   .     S
C512   C514    1.414   .     A
C512   N544    1.434   .     S
C513   C519    1.416   .     A
C513   C515    1.420   .     A
C514   C520    1.416   .     A
C514   C516    1.420   .     A
C515   C517    1.416   .     A
C515   C1254   1.412   .     S
C516   C518    1.416   .     A
C516   C1253   1.412   1_554 S
C517   C522    1.414   .     A
C518   C521    1.414   .     A
C519   N547    1.431   .     S
C519   C1259   1.403   .     S
C520   N550    1.433   .     S
C520   C1260   1.402   1_554 S
C521   N553    1.438   .     S
C521   C1257   1.403   1_554 S
C522   N556    1.435   .     S
C522   C1258   1.402   .     S
C523   F559    1.357   .     S
C523   C528    1.405   .     A
C523   C689    1.385   1_455 S
C524   F560    1.357   .     S
C524   C527    1.406   .     A
C524   C608    1.385   .     S
C525   C527    1.407   .     A
C525   F561    1.357   .     S
C525   C605    1.385   .     S
C526   F562    1.357   .     S
C526   C528    1.407   .     A
C526   C688    1.385   1_455 S
C529   N563    1.427   .     S
C529   N534    1.374   .     A
C530   N533    1.373   .     A
C530   N566    1.425   .     S
C530   C39     1.422   1_565 S
C531   N569    1.430   .     S
C531   N534    1.373   .     A
C532   N572    1.430   .     S
C532   N533    1.374   .     A
C532   C37     1.423   1_565 S
N535   O536    1.301   .     A
N535   O537    1.301   .     A
N538   O540    1.301   .     A
N538   O539    1.300   .     A
N541   O543    1.302   .     A
N541   O542    1.301   .     A
N544   O546    1.300   .     A
N544   O545    1.301   .     A
N547   O548    1.299   .     A
N547   O549    1.301   .     A
N550   O552    1.301   .     A
N550   O551    1.301   .     A
N553   O555    1.301   .     A
N553   O554    1.300   .     A
N556   O557    1.301   .     A
N556   O558    1.301   .     A
N563   O565    1.301   .     A
N563   O564    1.299   .     A
N566   O568    1.301   .     A
N566   O567    1.299   .     A
N569   O570    1.299   .     A
N569   O571    1.301   .     A
N572   O574    1.301   .     A
N572   O573    1.299   .     A
O575   C579    1.301   .     A
O575   Cu587   1.982   .     S
O576   C580    1.301   .     A
O576   Cu588   1.982   .     S
O577   C580    1.303   .     A
O577   Cu587   1.984   .     S
O578   C579    1.303   .     A
O578   Cu588   1.984   .     S
C579   C610    1.465   .     S
C580   C609    1.466   .     S
O581   C585    1.298   .     A
O581   Cu587   1.959   .     S
O582   C586    1.294   .     A
O582   Cu588   1.959   .     S
O583   Cu587   1.963   .     S
O583   C586    1.302   .     A
O584   Cu588   1.963   .     S
O584   C585    1.298   .     A
C585   C592    1.453   .     S
C586   C591    1.455   .     S
Cu587  N615    2.032   .     S
Cu587  Cu588   2.704   .     S
Cu588  N616    2.032   .     S
C589   C599    1.414   .     A
C589   C591    1.402   .     A
C589   N617    1.439   .     S
C590   C600    1.411   .     A
C590   N620    1.441   .     S
C590   C592    1.403   .     A
C591   C593    1.400   .     A
C592   C594    1.400   .     A
C593   C595    1.414   .     A
C593   N623    1.434   .     S
C594   C596    1.414   .     A
C594   N626    1.434   .     S
C595   C601    1.416   .     A
C595   C597    1.420   .     A
C596   C602    1.416   .     A
C596   C598    1.420   .     A
C597   C599    1.416   .     A
C597   C1336   1.412   .     S
C598   C600    1.416   .     A
C598   C1335   1.412   1_554 S
C599   C604    1.414   .     A
C600   C603    1.414   .     A
C601   N629    1.431   .     S
C601   C1341   1.403   .     S
C602   N632    1.433   .     S
C602   C1342   1.402   1_554 S
C603   N635    1.438   .     S
C603   C1339   1.403   1_554 S
C604   N638    1.435   .     S
C604   C1340   1.402   .     S
C605   F641    1.357   .     S
C605   C610    1.405   .     A
C606   F642    1.357   .     S
C606   C609    1.406   .     A
C606   C690    1.385   .     S
C607   C609    1.407   .     A
C607   F643    1.357   .     S
C607   C687    1.385   .     S
C608   F644    1.357   .     S
C608   C610    1.407   .     A
C611   N645    1.427   .     S
C611   N616    1.374   .     A
C612   N615    1.373   .     A
C612   N648    1.425   .     S
C612   C121    1.422   1_565 S
C613   N651    1.430   .     S
C613   N616    1.373   .     A
C614   N654    1.430   .     S
C614   N615    1.374   .     A
C614   C119    1.423   1_565 S
N617   O618    1.301   .     A
N617   O619    1.301   .     A
N620   O622    1.301   .     A
N620   O621    1.300   .     A
N623   O625    1.302   .     A
N623   O624    1.301   .     A
N626   O628    1.300   .     A
N626   O627    1.301   .     A
N629   O630    1.299   .     A
N629   O631    1.301   .     A
N632   O634    1.301   .     A
N632   O633    1.301   .     A
N635   O637    1.301   .     A
N635   O636    1.300   .     A
N638   O639    1.301   .     A
N638   O640    1.301   .     A
N645   O647    1.301   .     A
N645   O646    1.299   .     A
N648   O650    1.301   .     A
N648   O649    1.299   .     A
N651   O652    1.299   .     A
N651   O653    1.301   .     A
N654   O656    1.301   .     A
N654   O655    1.299   .     A
O657   C661    1.301   .     A
O657   Cu669   1.982   .     S
O658   C662    1.301   .     A
O658   Cu670   1.982   .     S
O659   C662    1.303   .     A
O659   Cu669   1.984   .     S
O660   C661    1.303   .     A
O660   Cu670   1.984   .     S
C661   C692    1.465   .     S
C662   C691    1.466   .     S
O663   C667    1.298   .     A
O663   Cu669   1.959   .     S
O664   C668    1.294   .     A
O664   Cu670   1.959   .     S
O665   Cu669   1.963   .     S
O665   C668    1.302   .     A
O666   Cu670   1.963   .     S
O666   C667    1.298   .     A
C667   C674    1.453   .     S
C668   C673    1.455   .     S
Cu669  N697    2.032   .     S
Cu669  Cu670   2.704   .     S
Cu670  N698    2.032   .     S
C671   C681    1.414   .     A
C671   C673    1.402   .     A
C671   N699    1.439   .     S
C672   C682    1.411   .     A
C672   N702    1.441   .     S
C672   C674    1.403   .     A
C673   C675    1.400   .     A
C674   C676    1.400   .     A
C675   C677    1.414   .     A
C675   N705    1.434   .     S
C676   C678    1.414   .     A
C676   N708    1.434   .     S
C677   C683    1.416   .     A
C677   C679    1.420   .     A
C678   C684    1.416   .     A
C678   C680    1.420   .     A
C679   C681    1.416   .     A
C679   C1418   1.412   .     S
C680   C682    1.416   .     A
C680   C1417   1.412   1_554 S
C681   C686    1.414   .     A
C682   C685    1.414   .     A
C683   N711    1.431   .     S
C683   C1423   1.403   .     S
C684   N714    1.433   .     S
C684   C1424   1.402   1_554 S
C685   N717    1.438   .     S
C685   C1421   1.403   1_554 S
C686   N720    1.435   .     S
C686   C1422   1.402   .     S
C687   F723    1.357   .     S
C687   C692    1.405   .     A
C688   F724    1.357   .     S
C688   C691    1.406   .     A
C688   C526    1.385   1_655 S
C689   C691    1.407   .     A
C689   F725    1.357   .     S
C689   C523    1.385   1_655 S
C690   F726    1.357   .     S
C690   C692    1.407   .     A
C693   N727    1.427   .     S
C693   N698    1.374   .     A
C694   N697    1.373   .     A
C694   N730    1.425   .     S
C694   C203    1.422   1_565 S
C695   N733    1.430   .     S
C695   N698    1.373   .     A
C696   N736    1.430   .     S
C696   N697    1.374   .     A
C696   C201    1.423   1_565 S
N699   O700    1.301   .     A
N699   O701    1.301   .     A
N702   O704    1.301   .     A
N702   O703    1.300   .     A
N705   O707    1.302   .     A
N705   O706    1.301   .     A
N708   O710    1.300   .     A
N708   O709    1.301   .     A
N711   O712    1.299   .     A
N711   O713    1.301   .     A
N714   O716    1.301   .     A
N714   O715    1.301   .     A
N717   O719    1.301   .     A
N717   O718    1.300   .     A
N720   O721    1.301   .     A
N720   O722    1.301   .     A
N727   O729    1.301   .     A
N727   O728    1.299   .     A
N730   O732    1.301   .     A
N730   O731    1.299   .     A
N733   O734    1.299   .     A
N733   O735    1.301   .     A
N736   O738    1.301   .     A
N736   O737    1.299   .     A
O739   C743    1.301   .     A
O739   Cu751   1.982   .     S
O740   C744    1.301   .     A
O740   Cu752   1.982   .     S
O741   C744    1.303   .     A
O741   Cu751   1.984   .     S
O742   C743    1.303   .     A
O742   Cu752   1.984   .     S
C743   C774    1.465   .     S
C744   C773    1.466   .     S
O745   C749    1.298   .     A
O745   Cu751   1.959   .     S
O746   C750    1.294   .     A
O746   Cu752   1.959   .     S
O747   Cu751   1.963   .     S
O747   C750    1.302   .     A
O748   Cu752   1.963   .     S
O748   C749    1.298   .     A
C749   C756    1.453   .     S
C750   C755    1.455   .     S
Cu751  N779    2.032   .     S
Cu751  Cu752   2.704   .     S
Cu752  N780    2.032   .     S
C753   C763    1.414   .     A
C753   C755    1.402   .     A
C753   N781    1.439   .     S
C754   C764    1.411   .     A
C754   N784    1.441   .     S
C754   C756    1.403   .     A
C755   C757    1.400   .     A
C756   C758    1.400   .     A
C757   C759    1.414   .     A
C757   N787    1.434   .     S
C758   C760    1.414   .     A
C758   N790    1.434   .     S
C759   C765    1.416   .     A
C759   C761    1.420   .     A
C760   C766    1.416   .     A
C760   C762    1.420   .     A
C761   C763    1.416   .     A
C761   C24     1.412   1_556 S
C762   C764    1.416   .     A
C763   C768    1.414   .     A
C764   C767    1.414   .     A
C765   N793    1.431   .     S
C765   C29     1.403   1_556 S
C766   N796    1.433   .     S
C767   N799    1.438   .     S
C768   N802    1.435   .     S
C768   C28     1.402   1_556 S
C769   F805    1.357   .     S
C769   C774    1.405   .     A
C769   C935    1.385   1_455 S
C770   F806    1.357   .     S
C770   C773    1.406   .     A
C770   C854    1.385   .     S
C771   C773    1.407   .     A
C771   F807    1.357   .     S
C771   C851    1.385   .     S
C772   F808    1.357   .     S
C772   C774    1.407   .     A
C772   C934    1.385   1_455 S
C775   N809    1.427   .     S
C775   N780    1.374   .     A
C775   C1270   1.423   1_545 S
C776   N779    1.373   .     A
C776   N812    1.425   .     S
C776   C1023   1.422   .     S
C777   N815    1.430   .     S
C777   N780    1.373   .     A
C777   C1268   1.422   1_545 S
C778   N818    1.430   .     S
C778   N779    1.374   .     A
C778   C1021   1.423   .     S
N781   O782    1.301   .     A
N781   O783    1.301   .     A
N784   O786    1.301   .     A
N784   O785    1.300   .     A
N787   O789    1.302   .     A
N787   O788    1.301   .     A
N790   O792    1.300   .     A
N790   O791    1.301   .     A
N793   O794    1.299   .     A
N793   O795    1.301   .     A
N796   O798    1.301   .     A
N796   O797    1.301   .     A
N799   O801    1.301   .     A
N799   O800    1.300   .     A
N802   O803    1.301   .     A
N802   O804    1.301   .     A
N809   O811    1.301   .     A
N809   O810    1.299   .     A
N812   O814    1.301   .     A
N812   O813    1.299   .     A
N815   O816    1.299   .     A
N815   O817    1.301   .     A
N818   O820    1.301   .     A
N818   O819    1.299   .     A
O821   C825    1.301   .     A
O821   Cu833   1.982   .     S
O822   C826    1.301   .     A
O822   Cu834   1.982   .     S
O823   C826    1.303   .     A
O823   Cu833   1.984   .     S
O824   C825    1.303   .     A
O824   Cu834   1.984   .     S
C825   C856    1.465   .     S
C826   C855    1.466   .     S
O827   C831    1.298   .     A
O827   Cu833   1.959   .     S
O828   C832    1.294   .     A
O828   Cu834   1.959   .     S
O829   Cu833   1.963   .     S
O829   C832    1.302   .     A
O830   Cu834   1.963   .     S
O830   C831    1.298   .     A
C831   C838    1.453   .     S
C832   C837    1.455   .     S
Cu833  N861    2.032   .     S
Cu833  Cu834   2.704   .     S
Cu834  N862    2.032   .     S
C835   C845    1.414   .     A
C835   C837    1.402   .     A
C835   N863    1.439   .     S
C836   C846    1.411   .     A
C836   N866    1.441   .     S
C836   C838    1.403   .     A
C837   C839    1.400   .     A
C838   C840    1.400   .     A
C839   C841    1.414   .     A
C839   N869    1.434   .     S
C840   C842    1.414   .     A
C840   N872    1.434   .     S
C841   C847    1.416   .     A
C841   C843    1.420   .     A
C842   C848    1.416   .     A
C842   C844    1.420   .     A
C843   C845    1.416   .     A
C843   C106    1.412   1_556 S
C844   C846    1.416   .     A
C845   C850    1.414   .     A
C846   C849    1.414   .     A
C847   N875    1.431   .     S
C847   C111    1.403   1_556 S
C848   N878    1.433   .     S
C849   N881    1.438   .     S
C850   N884    1.435   .     S
C850   C110    1.402   1_556 S
C851   F887    1.357   .     S
C851   C856    1.405   .     A
C852   F888    1.357   .     S
C852   C855    1.406   .     A
C852   C936    1.385   .     S
C853   C855    1.407   .     A
C853   F889    1.357   .     S
C853   C933    1.385   .     S
C854   F890    1.357   .     S
C854   C856    1.407   .     A
C857   N891    1.427   .     S
C857   N862    1.374   .     A
C857   C1352   1.423   1_545 S
C858   N861    1.373   .     A
C858   N894    1.425   .     S
C858   C1105   1.422   .     S
C859   N897    1.430   .     S
C859   N862    1.373   .     A
C859   C1350   1.422   1_545 S
C860   N900    1.430   .     S
C860   N861    1.374   .     A
C860   C1103   1.423   .     S
N863   O864    1.301   .     A
N863   O865    1.301   .     A
N866   O868    1.301   .     A
N866   O867    1.300   .     A
N869   O871    1.302   .     A
N869   O870    1.301   .     A
N872   O874    1.300   .     A
N872   O873    1.301   .     A
N875   O876    1.299   .     A
N875   O877    1.301   .     A
N878   O880    1.301   .     A
N878   O879    1.301   .     A
N881   O883    1.301   .     A
N881   O882    1.300   .     A
N884   O885    1.301   .     A
N884   O886    1.301   .     A
N891   O893    1.301   .     A
N891   O892    1.299   .     A
N894   O896    1.301   .     A
N894   O895    1.299   .     A
N897   O898    1.299   .     A
N897   O899    1.301   .     A
N900   O902    1.301   .     A
N900   O901    1.299   .     A
O903   C907    1.301   .     A
O903   Cu915   1.982   .     S
O904   C908    1.301   .     A
O904   Cu916   1.982   .     S
O905   C908    1.303   .     A
O905   Cu915   1.984   .     S
O906   C907    1.303   .     A
O906   Cu916   1.984   .     S
C907   C938    1.465   .     S
C908   C937    1.466   .     S
O909   C913    1.298   .     A
O909   Cu915   1.959   .     S
O910   C914    1.294   .     A
O910   Cu916   1.959   .     S
O911   Cu915   1.963   .     S
O911   C914    1.302   .     A
O912   Cu916   1.963   .     S
O912   C913    1.298   .     A
C913   C920    1.453   .     S
C914   C919    1.455   .     S
Cu915  N943    2.032   .     S
Cu915  Cu916   2.704   .     S
Cu916  N944    2.032   .     S
C917   C927    1.414   .     A
C917   C919    1.402   .     A
C917   N945    1.439   .     S
C918   C928    1.411   .     A
C918   N948    1.441   .     S
C918   C920    1.403   .     A
C919   C921    1.400   .     A
C920   C922    1.400   .     A
C921   C923    1.414   .     A
C921   N951    1.434   .     S
C922   C924    1.414   .     A
C922   N954    1.434   .     S
C923   C929    1.416   .     A
C923   C925    1.420   .     A
C924   C930    1.416   .     A
C924   C926    1.420   .     A
C925   C927    1.416   .     A
C925   C188    1.412   1_556 S
C926   C928    1.416   .     A
C927   C932    1.414   .     A
C928   C931    1.414   .     A
C929   N957    1.431   .     S
C929   C193    1.403   1_556 S
C930   N960    1.433   .     S
C931   N963    1.438   .     S
C932   N966    1.435   .     S
C932   C192    1.402   1_556 S
C933   F969    1.357   .     S
C933   C938    1.405   .     A
C934   F970    1.357   .     S
C934   C937    1.406   .     A
C934   C772    1.385   1_655 S
C935   C937    1.407   .     A
C935   F971    1.357   .     S
C935   C769    1.385   1_655 S
C936   F972    1.357   .     S
C936   C938    1.407   .     A
C939   N973    1.427   .     S
C939   N944    1.374   .     A
C939   C1434   1.423   1_545 S
C940   N943    1.373   .     A
C940   N976    1.425   .     S
C940   C1187   1.422   .     S
C941   N979    1.430   .     S
C941   N944    1.373   .     A
C941   C1432   1.422   1_545 S
C942   N982    1.430   .     S
C942   N943    1.374   .     A
C942   C1185   1.423   .     S
N945   O946    1.301   .     A
N945   O947    1.301   .     A
N948   O950    1.301   .     A
N948   O949    1.300   .     A
N951   O953    1.302   .     A
N951   O952    1.301   .     A
N954   O956    1.300   .     A
N954   O955    1.301   .     A
N957   O958    1.299   .     A
N957   O959    1.301   .     A
N960   O962    1.301   .     A
N960   O961    1.301   .     A
N963   O965    1.301   .     A
N963   O964    1.300   .     A
N966   O967    1.301   .     A
N966   O968    1.301   .     A
N973   O975    1.301   .     A
N973   O974    1.299   .     A
N976   O978    1.301   .     A
N976   O977    1.299   .     A
N979   O980    1.299   .     A
N979   O981    1.301   .     A
N982   O984    1.301   .     A
N982   O983    1.299   .     A
O985   C989    1.301   .     A
O985   Cu997   1.982   .     S
O986   C990    1.301   .     A
O986   Cu998   1.982   .     S
O987   C990    1.303   .     A
O987   Cu997   1.984   .     S
O988   C989    1.303   .     A
O988   Cu998   1.984   .     S
C989   C1020   1.465   .     S
C990   C1019   1.466   .     S
O991   C995    1.298   .     A
O991   Cu997   1.959   .     S
O992   C996    1.294   .     A
O992   Cu998   1.959   .     S
O993   Cu997   1.963   .     S
O993   C996    1.302   .     A
O994   Cu998   1.963   .     S
O994   C995    1.298   .     A
C995   C1002   1.453   .     S
C996   C1001   1.455   .     S
Cu997  N1025   2.032   .     S
Cu997  Cu998   2.704   .     S
Cu998  N1026   2.032   .     S
C999   C1009   1.414   .     A
C999   C1001   1.402   .     A
C999   N1027   1.439   .     S
C1000  C1010   1.411   .     A
C1000  N1030   1.441   .     S
C1000  C1002   1.403   .     A
C1001  C1003   1.400   .     A
C1002  C1004   1.400   .     A
C1003  C1005   1.414   .     A
C1003  N1033   1.434   .     S
C1004  C1006   1.414   .     A
C1004  N1036   1.434   .     S
C1005  C1011   1.416   .     A
C1005  C1007   1.420   .     A
C1006  C1012   1.416   .     A
C1006  C1008   1.420   .     A
C1007  C1009   1.416   .     A
C1007  C270    1.412   1_556 S
C1008  C1010   1.416   .     A
C1009  C1014   1.414   .     A
C1010  C1013   1.414   .     A
C1011  N1039   1.431   .     S
C1011  C275    1.403   1_556 S
C1012  N1042   1.433   .     S
C1013  N1045   1.438   .     S
C1014  N1048   1.435   .     S
C1014  C274    1.402   1_556 S
C1015  F1051   1.357   .     S
C1015  C1020   1.405   .     A
C1015  C1181   1.385   1_455 S
C1016  F1052   1.357   .     S
C1016  C1019   1.406   .     A
C1016  C1100   1.385   .     S
C1017  C1019   1.407   .     A
C1017  F1053   1.357   .     S
C1017  C1097   1.385   .     S
C1018  F1054   1.357   .     S
C1018  C1020   1.407   .     A
C1018  C1180   1.385   1_455 S
C1021  N1055   1.427   .     S
C1021  N1026   1.374   .     A
C1022  N1025   1.373   .     A
C1022  N1058   1.425   .     S
C1022  C1269   1.422   .     S
C1023  N1061   1.430   .     S
C1023  N1026   1.373   .     A
C1024  N1064   1.430   .     S
C1024  N1025   1.374   .     A
C1024  C1267   1.423   .     S
N1027  O1028   1.301   .     A
N1027  O1029   1.301   .     A
N1030  O1032   1.301   .     A
N1030  O1031   1.300   .     A
N1033  O1035   1.302   .     A
N1033  O1034   1.301   .     A
N1036  O1038   1.300   .     A
N1036  O1037   1.301   .     A
N1039  O1040   1.299   .     A
N1039  O1041   1.301   .     A
N1042  O1044   1.301   .     A
N1042  O1043   1.301   .     A
N1045  O1047   1.301   .     A
N1045  O1046   1.300   .     A
N1048  O1049   1.301   .     A
N1048  O1050   1.301   .     A
N1055  O1057   1.301   .     A
N1055  O1056   1.299   .     A
N1058  O1060   1.301   .     A
N1058  O1059   1.299   .     A
N1061  O1062   1.299   .     A
N1061  O1063   1.301   .     A
N1064  O1066   1.301   .     A
N1064  O1065   1.299   .     A
O1067  C1071   1.301   .     A
O1067  Cu1079  1.982   .     S
O1068  C1072   1.301   .     A
O1068  Cu1080  1.982   .     S
O1069  C1072   1.303   .     A
O1069  Cu1079  1.984   .     S
O1070  C1071   1.303   .     A
O1070  Cu1080  1.984   .     S
C1071  C1102   1.465   .     S
C1072  C1101   1.466   .     S
O1073  C1077   1.298   .     A
O1073  Cu1079  1.959   .     S
O1074  C1078   1.294   .     A
O1074  Cu1080  1.959   .     S
O1075  Cu1079  1.963   .     S
O1075  C1078   1.302   .     A
O1076  Cu1080  1.963   .     S
O1076  C1077   1.298   .     A
C1077  C1084   1.453   .     S
C1078  C1083   1.455   .     S
Cu1079 N1107   2.032   .     S
Cu1079 Cu1080  2.704   .     S
Cu1080 N1108   2.032   .     S
C1081  C1091   1.414   .     A
C1081  C1083   1.402   .     A
C1081  N1109   1.439   .     S
C1082  C1092   1.411   .     A
C1082  N1112   1.441   .     S
C1082  C1084   1.403   .     A
C1083  C1085   1.400   .     A
C1084  C1086   1.400   .     A
C1085  C1087   1.414   .     A
C1085  N1115   1.434   .     S
C1086  C1088   1.414   .     A
C1086  N1118   1.434   .     S
C1087  C1093   1.416   .     A
C1087  C1089   1.420   .     A
C1088  C1094   1.416   .     A
C1088  C1090   1.420   .     A
C1089  C1091   1.416   .     A
C1089  C352    1.412   1_556 S
C1090  C1092   1.416   .     A
C1091  C1096   1.414   .     A
C1092  C1095   1.414   .     A
C1093  N1121   1.431   .     S
C1093  C357    1.403   1_556 S
C1094  N1124   1.433   .     S
C1095  N1127   1.438   .     S
C1096  N1130   1.435   .     S
C1096  C356    1.402   1_556 S
C1097  F1133   1.357   .     S
C1097  C1102   1.405   .     A
C1098  F1134   1.357   .     S
C1098  C1101   1.406   .     A
C1098  C1182   1.385   .     S
C1099  C1101   1.407   .     A
C1099  F1135   1.357   .     S
C1099  C1179   1.385   .     S
C1100  F1136   1.357   .     S
C1100  C1102   1.407   .     A
C1103  N1137   1.427   .     S
C1103  N1108   1.374   .     A
C1104  N1107   1.373   .     A
C1104  N1140   1.425   .     S
C1104  C1351   1.422   .     S
C1105  N1143   1.430   .     S
C1105  N1108   1.373   .     A
C1106  N1146   1.430   .     S
C1106  N1107   1.374   .     A
C1106  C1349   1.423   .     S
N1109  O1110   1.301   .     A
N1109  O1111   1.301   .     A
N1112  O1114   1.301   .     A
N1112  O1113   1.300   .     A
N1115  O1117   1.302   .     A
N1115  O1116   1.301   .     A
N1118  O1120   1.300   .     A
N1118  O1119   1.301   .     A
N1121  O1122   1.299   .     A
N1121  O1123   1.301   .     A
N1124  O1126   1.301   .     A
N1124  O1125   1.301   .     A
N1127  O1129   1.301   .     A
N1127  O1128   1.300   .     A
N1130  O1131   1.301   .     A
N1130  O1132   1.301   .     A
N1137  O1139   1.301   .     A
N1137  O1138   1.299   .     A
N1140  O1142   1.301   .     A
N1140  O1141   1.299   .     A
N1143  O1144   1.299   .     A
N1143  O1145   1.301   .     A
N1146  O1148   1.301   .     A
N1146  O1147   1.299   .     A
O1149  C1153   1.301   .     A
O1149  Cu1161  1.982   .     S
O1150  C1154   1.301   .     A
O1150  Cu1162  1.982   .     S
O1151  C1154   1.303   .     A
O1151  Cu1161  1.984   .     S
O1152  C1153   1.303   .     A
O1152  Cu1162  1.984   .     S
C1153  C1184   1.465   .     S
C1154  C1183   1.466   .     S
O1155  C1159   1.298   .     A
O1155  Cu1161  1.959   .     S
O1156  C1160   1.294   .     A
O1156  Cu1162  1.959   .     S
O1157  Cu1161  1.963   .     S
O1157  C1160   1.302   .     A
O1158  Cu1162  1.963   .     S
O1158  C1159   1.298   .     A
C1159  C1166   1.453   .     S
C1160  C1165   1.455   .     S
Cu1161 N1189   2.032   .     S
Cu1161 Cu1162  2.704   .     S
Cu1162 N1190   2.032   .     S
C1163  C1173   1.414   .     A
C1163  C1165   1.402   .     A
C1163  N1191   1.439   .     S
C1164  C1174   1.411   .     A
C1164  N1194   1.441   .     S
C1164  C1166   1.403   .     A
C1165  C1167   1.400   .     A
C1166  C1168   1.400   .     A
C1167  C1169   1.414   .     A
C1167  N1197   1.434   .     S
C1168  C1170   1.414   .     A
C1168  N1200   1.434   .     S
C1169  C1175   1.416   .     A
C1169  C1171   1.420   .     A
C1170  C1176   1.416   .     A
C1170  C1172   1.420   .     A
C1171  C1173   1.416   .     A
C1171  C434    1.412   1_556 S
C1172  C1174   1.416   .     A
C1173  C1178   1.414   .     A
C1174  C1177   1.414   .     A
C1175  N1203   1.431   .     S
C1175  C439    1.403   1_556 S
C1176  N1206   1.433   .     S
C1177  N1209   1.438   .     S
C1178  N1212   1.435   .     S
C1178  C438    1.402   1_556 S
C1179  F1215   1.357   .     S
C1179  C1184   1.405   .     A
C1180  F1216   1.357   .     S
C1180  C1183   1.406   .     A
C1180  C1018   1.385   1_655 S
C1181  C1183   1.407   .     A
C1181  F1217   1.357   .     S
C1181  C1015   1.385   1_655 S
C1182  F1218   1.357   .     S
C1182  C1184   1.407   .     A
C1185  N1219   1.427   .     S
C1185  N1190   1.374   .     A
C1186  N1189   1.373   .     A
C1186  N1222   1.425   .     S
C1186  C1433   1.422   .     S
C1187  N1225   1.430   .     S
C1187  N1190   1.373   .     A
C1188  N1228   1.430   .     S
C1188  N1189   1.374   .     A
C1188  C1431   1.423   .     S
N1191  O1192   1.301   .     A
N1191  O1193   1.301   .     A
N1194  O1196   1.301   .     A
N1194  O1195   1.300   .     A
N1197  O1199   1.302   .     A
N1197  O1198   1.301   .     A
N1200  O1202   1.300   .     A
N1200  O1201   1.301   .     A
N1203  O1204   1.299   .     A
N1203  O1205   1.301   .     A
N1206  O1208   1.301   .     A
N1206  O1207   1.301   .     A
N1209  O1211   1.301   .     A
N1209  O1210   1.300   .     A
N1212  O1213   1.301   .     A
N1212  O1214   1.301   .     A
N1219  O1221   1.301   .     A
N1219  O1220   1.299   .     A
N1222  O1224   1.301   .     A
N1222  O1223   1.299   .     A
N1225  O1226   1.299   .     A
N1225  O1227   1.301   .     A
N1228  O1230   1.301   .     A
N1228  O1229   1.299   .     A
O1231  C1235   1.301   .     A
O1231  Cu1243  1.982   .     S
O1232  C1236   1.301   .     A
O1232  Cu1244  1.982   .     S
O1233  C1236   1.303   .     A
O1233  Cu1243  1.984   .     S
O1234  C1235   1.303   .     A
O1234  Cu1244  1.984   .     S
C1235  C1266   1.465   .     S
C1236  C1265   1.466   .     S
O1237  C1241   1.298   .     A
O1237  Cu1243  1.959   .     S
O1238  C1242   1.294   .     A
O1238  Cu1244  1.959   .     S
O1239  Cu1243  1.963   .     S
O1239  C1242   1.302   .     A
O1240  Cu1244  1.963   .     S
O1240  C1241   1.298   .     A
C1241  C1248   1.453   .     S
C1242  C1247   1.455   .     S
Cu1243 N1271   2.032   .     S
Cu1243 Cu1244  2.704   .     S
Cu1244 N1272   2.032   .     S
C1245  C1255   1.414   .     A
C1245  C1247   1.402   .     A
C1245  N1273   1.439   .     S
C1246  C1256   1.411   .     A
C1246  N1276   1.441   .     S
C1246  C1248   1.403   .     A
C1247  C1249   1.400   .     A
C1248  C1250   1.400   .     A
C1249  C1251   1.414   .     A
C1249  N1279   1.434   .     S
C1250  C1252   1.414   .     A
C1250  N1282   1.434   .     S
C1251  C1257   1.416   .     A
C1251  C1253   1.420   .     A
C1252  C1258   1.416   .     A
C1252  C1254   1.420   .     A
C1253  C1255   1.416   .     A
C1253  C516    1.412   1_556 S
C1254  C1256   1.416   .     A
C1255  C1260   1.414   .     A
C1256  C1259   1.414   .     A
C1257  N1285   1.431   .     S
C1257  C521    1.403   1_556 S
C1258  N1288   1.433   .     S
C1259  N1291   1.438   .     S
C1260  N1294   1.435   .     S
C1260  C520    1.402   1_556 S
C1261  F1297   1.357   .     S
C1261  C1266   1.405   .     A
C1261  C1427   1.385   1_455 S
C1262  F1298   1.357   .     S
C1262  C1265   1.406   .     A
C1262  C1346   1.385   .     S
C1263  C1265   1.407   .     A
C1263  F1299   1.357   .     S
C1263  C1343   1.385   .     S
C1264  F1300   1.357   .     S
C1264  C1266   1.407   .     A
C1264  C1426   1.385   1_455 S
C1267  N1301   1.427   .     S
C1267  N1272   1.374   .     A
C1268  N1271   1.373   .     A
C1268  N1304   1.425   .     S
C1268  C777    1.422   1_565 S
C1269  N1307   1.430   .     S
C1269  N1272   1.373   .     A
C1270  N1310   1.430   .     S
C1270  N1271   1.374   .     A
C1270  C775    1.423   1_565 S
N1273  O1274   1.301   .     A
N1273  O1275   1.301   .     A
N1276  O1278   1.301   .     A
N1276  O1277   1.300   .     A
N1279  O1281   1.302   .     A
N1279  O1280   1.301   .     A
N1282  O1284   1.300   .     A
N1282  O1283   1.301   .     A
N1285  O1286   1.299   .     A
N1285  O1287   1.301   .     A
N1288  O1290   1.301   .     A
N1288  O1289   1.301   .     A
N1291  O1293   1.301   .     A
N1291  O1292   1.300   .     A
N1294  O1295   1.301   .     A
N1294  O1296   1.301   .     A
N1301  O1303   1.301   .     A
N1301  O1302   1.299   .     A
N1304  O1306   1.301   .     A
N1304  O1305   1.299   .     A
N1307  O1308   1.299   .     A
N1307  O1309   1.301   .     A
N1310  O1312   1.301   .     A
N1310  O1311   1.299   .     A
O1313  C1317   1.301   .     A
O1313  Cu1325  1.982   .     S
O1314  C1318   1.301   .     A
O1314  Cu1326  1.982   .     S
O1315  C1318   1.303   .     A
O1315  Cu1325  1.984   .     S
O1316  C1317   1.303   .     A
O1316  Cu1326  1.984   .     S
C1317  C1348   1.465   .     S
C1318  C1347   1.466   .     S
O1319  C1323   1.298   .     A
O1319  Cu1325  1.959   .     S
O1320  C1324   1.294   .     A
O1320  Cu1326  1.959   .     S
O1321  Cu1325  1.963   .     S
O1321  C1324   1.302   .     A
O1322  Cu1326  1.963   .     S
O1322  C1323   1.298   .     A
C1323  C1330   1.453   .     S
C1324  C1329   1.455   .     S
Cu1325 N1353   2.032   .     S
Cu1325 Cu1326  2.704   .     S
Cu1326 N1354   2.032   .     S
C1327  C1337   1.414   .     A
C1327  C1329   1.402   .     A
C1327  N1355   1.439   .     S
C1328  C1338   1.411   .     A
C1328  N1358   1.441   .     S
C1328  C1330   1.403   .     A
C1329  C1331   1.400   .     A
C1330  C1332   1.400   .     A
C1331  C1333   1.414   .     A
C1331  N1361   1.434   .     S
C1332  C1334   1.414   .     A
C1332  N1364   1.434   .     S
C1333  C1339   1.416   .     A
C1333  C1335   1.420   .     A
C1334  C1340   1.416   .     A
C1334  C1336   1.420   .     A
C1335  C1337   1.416   .     A
C1335  C598    1.412   1_556 S
C1336  C1338   1.416   .     A
C1337  C1342   1.414   .     A
C1338  C1341   1.414   .     A
C1339  N1367   1.431   .     S
C1339  C603    1.403   1_556 S
C1340  N1370   1.433   .     S
C1341  N1373   1.438   .     S
C1342  N1376   1.435   .     S
C1342  C602    1.402   1_556 S
C1343  F1379   1.357   .     S
C1343  C1348   1.405   .     A
C1344  F1380   1.357   .     S
C1344  C1347   1.406   .     A
C1344  C1428   1.385   .     S
C1345  C1347   1.407   .     A
C1345  F1381   1.357   .     S
C1345  C1425   1.385   .     S
C1346  F1382   1.357   .     S
C1346  C1348   1.407   .     A
C1349  N1383   1.427   .     S
C1349  N1354   1.374   .     A
C1350  N1353   1.373   .     A
C1350  N1386   1.425   .     S
C1350  C859    1.422   1_565 S
C1351  N1389   1.430   .     S
C1351  N1354   1.373   .     A
C1352  N1392   1.430   .     S
C1352  N1353   1.374   .     A
C1352  C857    1.423   1_565 S
N1355  O1356   1.301   .     A
N1355  O1357   1.301   .     A
N1358  O1360   1.301   .     A
N1358  O1359   1.300   .     A
N1361  O1363   1.302   .     A
N1361  O1362   1.301   .     A
N1364  O1366   1.300   .     A
N1364  O1365   1.301   .     A
N1367  O1368   1.299   .     A
N1367  O1369   1.301   .     A
N1370  O1372   1.301   .     A
N1370  O1371   1.301   .     A
N1373  O1375   1.301   .     A
N1373  O1374   1.300   .     A
N1376  O1377   1.301   .     A
N1376  O1378   1.301   .     A
N1383  O1385   1.301   .     A
N1383  O1384   1.299   .     A
N1386  O1388   1.301   .     A
N1386  O1387   1.299   .     A
N1389  O1390   1.299   .     A
N1389  O1391   1.301   .     A
N1392  O1394   1.301   .     A
N1392  O1393   1.299   .     A
O1395  C1399   1.301   .     A
O1395  Cu1407  1.982   .     S
O1396  C1400   1.301   .     A
O1396  Cu1408  1.982   .     S
O1397  C1400   1.303   .     A
O1397  Cu1407  1.984   .     S
O1398  C1399   1.303   .     A
O1398  Cu1408  1.984   .     S
C1399  C1430   1.465   .     S
C1400  C1429   1.466   .     S
O1401  C1405   1.298   .     A
O1401  Cu1407  1.959   .     S
O1402  C1406   1.294   .     A
O1402  Cu1408  1.959   .     S
O1403  Cu1407  1.963   .     S
O1403  C1406   1.302   .     A
O1404  Cu1408  1.963   .     S
O1404  C1405   1.298   .     A
C1405  C1412   1.453   .     S
C1406  C1411   1.455   .     S
Cu1407 N1435   2.032   .     S
Cu1407 Cu1408  2.704   .     S
Cu1408 N1436   2.032   .     S
C1409  C1419   1.414   .     A
C1409  C1411   1.402   .     A
C1409  N1437   1.439   .     S
C1410  C1420   1.411   .     A
C1410  N1440   1.441   .     S
C1410  C1412   1.403   .     A
C1411  C1413   1.400   .     A
C1412  C1414   1.400   .     A
C1413  C1415   1.414   .     A
C1413  N1443   1.434   .     S
C1414  C1416   1.414   .     A
C1414  N1446   1.434   .     S
C1415  C1421   1.416   .     A
C1415  C1417   1.420   .     A
C1416  C1422   1.416   .     A
C1416  C1418   1.420   .     A
C1417  C1419   1.416   .     A
C1417  C680    1.412   1_556 S
C1418  C1420   1.416   .     A
C1419  C1424   1.414   .     A
C1420  C1423   1.414   .     A
C1421  N1449   1.431   .     S
C1421  C685    1.403   1_556 S
C1422  N1452   1.433   .     S
C1423  N1455   1.438   .     S
C1424  N1458   1.435   .     S
C1424  C684    1.402   1_556 S
C1425  F1461   1.357   .     S
C1425  C1430   1.405   .     A
C1426  F1462   1.357   .     S
C1426  C1429   1.406   .     A
C1426  C1264   1.385   1_655 S
C1427  C1429   1.407   .     A
C1427  F1463   1.357   .     S
C1427  C1261   1.385   1_655 S
C1428  F1464   1.357   .     S
C1428  C1430   1.407   .     A
C1431  N1465   1.427   .     S
C1431  N1436   1.374   .     A
C1432  N1435   1.373   .     A
C1432  N1468   1.425   .     S
C1432  C941    1.422   1_565 S
C1433  N1471   1.430   .     S
C1433  N1436   1.373   .     A
C1434  N1474   1.430   .     S
C1434  N1435   1.374   .     A
C1434  C939    1.423   1_565 S
N1437  O1438   1.301   .     A
N1437  O1439   1.301   .     A
N1440  O1442   1.301   .     A
N1440  O1441   1.300   .     A
N1443  O1445   1.302   .     A
N1443  O1444   1.301   .     A
N1446  O1448   1.300   .     A
N1446  O1447   1.301   .     A
N1449  O1450   1.299   .     A
N1449  O1451   1.301   .     A
N1452  O1454   1.301   .     A
N1452  O1453   1.301   .     A
N1455  O1457   1.301   .     A
N1455  O1456   1.300   .     A
N1458  O1459   1.301   .     A
N1458  O1460   1.301   .     A
N1465  O1467   1.301   .     A
N1465  O1466   1.299   .     A
N1468  O1470   1.301   .     A
N1468  O1469   1.299   .     A
N1471  O1472   1.299   .     A
N1471  O1473   1.301   .     A
N1474  O1476   1.301   .     A
N1474  O1475   1.299   .     A
