data_str_m1_o1_o2_pcu_sym.30
_audit_creation_date              2020-01-03
_audit_creation_method            'Materials Studio'
_symmetry_space_group_name_H-M    'P1'
_symmetry_Int_Tables_number       1
_symmetry_cell_setting            triclinic
loop_
_symmetry_equiv_pos_as_xyz
  x,y,z
_cell_length_a                    36.6487
_cell_length_b                    36.6508
_cell_length_c                    34.4490
_cell_angle_alpha                 90.0008
_cell_angle_beta                  89.9929
_cell_angle_gamma                 89.9986
loop_
_atom_site_label
_atom_site_type_symbol
_atom_site_fract_x
_atom_site_fract_y
_atom_site_fract_z
_atom_site_U_iso_or_equiv
_atom_site_adp_type
_atom_site_occupancy
Zn1    Zn    0.20660  -0.00000   0.21760   0.00000  Uiso   1.00
Zn2    Zn    0.29340  -0.00000   0.78240   0.00000  Uiso   1.00
Zn3    Zn    0.00000   0.20660   0.21760   0.00000  Uiso   1.00
Zn4    Zn    0.00000   0.29340   0.78240   0.00000  Uiso   1.00
Zn5    Zn    0.29340  -0.00000   0.21760   0.00000  Uiso   1.00
Zn6    Zn    0.20660  -0.00000   0.78240   0.00000  Uiso   1.00
Zn7    Zn    0.00000   0.29340   0.21760   0.00000  Uiso   1.00
Zn8    Zn    0.00000   0.20660   0.78240   0.00000  Uiso   1.00
Zn9    Zn    0.45660   0.25000   0.71760   0.00000  Uiso   1.00
Zn10   Zn    0.04340   0.25000   0.28240   0.00000  Uiso   1.00
Zn11   Zn    0.25000   0.45660   0.71760   0.00000  Uiso   1.00
Zn12   Zn    0.25000   0.04340   0.28240   0.00000  Uiso   1.00
Zn13   Zn    0.04340   0.25000   0.71760   0.00000  Uiso   1.00
Zn14   Zn    0.45660   0.25000   0.28240   0.00000  Uiso   1.00
Zn15   Zn    0.25000   0.04340   0.71760   0.00000  Uiso   1.00
Zn16   Zn    0.25000   0.45660   0.28240   0.00000  Uiso   1.00
C17    C     0.22343   0.47997   0.04177   0.00000  Uiso   1.00
C18    C     0.27657   0.47997   0.95823   0.00000  Uiso   1.00
C19    C     0.47997   0.22343   0.04177   0.00000  Uiso   1.00
C20    C     0.47997   0.27657   0.95824   0.00000  Uiso   1.00
C21    C     0.27658   0.02002   0.04176   0.00000  Uiso   1.00
C22    C     0.22342   0.02002   0.95824   0.00000  Uiso   1.00
C23    C     0.02003   0.27657   0.04177   0.00000  Uiso   1.00
C24    C     0.02003   0.22343   0.95823   0.00000  Uiso   1.00
C25    C     0.47342   0.22998   0.54177   0.00000  Uiso   1.00
C26    C     0.02656   0.22996   0.45823   0.00000  Uiso   1.00
C27    C     0.22997   0.47343   0.54177   0.00000  Uiso   1.00
C28    C     0.22998   0.02658   0.45824   0.00000  Uiso   1.00
C29    C     0.02658   0.27001   0.54176   0.00000  Uiso   1.00
C30    C     0.47343   0.27003   0.45824   0.00000  Uiso   1.00
C31    C     0.27004   0.02656   0.54177   0.00000  Uiso   1.00
C32    C     0.27002   0.47342   0.45823   0.00000  Uiso   1.00
C33    C     0.22324   0.48054   0.08220   0.00000  Uiso   1.00
C34    C     0.27677   0.48054   0.91780   0.00000  Uiso   1.00
C35    C     0.48055   0.22323   0.08220   0.00000  Uiso   1.00
C36    C     0.48054   0.27677   0.91781   0.00000  Uiso   1.00
C37    C     0.27677   0.01945   0.08219   0.00000  Uiso   1.00
C38    C     0.22323   0.01945   0.91781   0.00000  Uiso   1.00
C39    C     0.01945   0.27677   0.08219   0.00000  Uiso   1.00
C40    C     0.01946   0.22324   0.91780   0.00000  Uiso   1.00
C41    C     0.47323   0.23055   0.58220   0.00000  Uiso   1.00
C42    C     0.02676   0.23053   0.41780   0.00000  Uiso   1.00
C43    C     0.23054   0.47324   0.58220   0.00000  Uiso   1.00
C44    C     0.23055   0.02677   0.41781   0.00000  Uiso   1.00
C45    C     0.02678   0.26944   0.58219   0.00000  Uiso   1.00
C46    C     0.47323   0.26946   0.41781   0.00000  Uiso   1.00
C47    C     0.26946   0.02676   0.58220   0.00000  Uiso   1.00
C48    C     0.26945   0.47323   0.41780   0.00000  Uiso   1.00
O49    O     0.25000  -0.00000   0.25000   0.00000  Uiso   1.00
O50    O     0.25000  -0.00000   0.75000   0.00000  Uiso   1.00
O51    O     0.00000   0.25000   0.25000   0.00000  Uiso   1.00
O52    O     0.00000   0.25000   0.75000   0.00000  Uiso   1.00
O53    O     0.25000   0.46964   0.33683   0.00000  Uiso   1.00
O54    O     0.25000   0.03036   0.66317   0.00000  Uiso   1.00
O55    O     0.03036   0.25000   0.33683   0.00000  Uiso   1.00
O56    O     0.46964   0.25000   0.66317   0.00000  Uiso   1.00
O57    O     0.25000   0.03036   0.33683   0.00000  Uiso   1.00
O58    O     0.25000   0.46964   0.66317   0.00000  Uiso   1.00
O59    O     0.46964   0.25000   0.33683   0.00000  Uiso   1.00
O60    O     0.03036   0.25000   0.66317   0.00000  Uiso   1.00
O61    O     0.00000   0.21964   0.83683   0.00000  Uiso   1.00
O62    O     0.00000   0.28036   0.16317   0.00000  Uiso   1.00
O63    O     0.28036  -0.00000   0.83683   0.00000  Uiso   1.00
O64    O     0.21964  -0.00000   0.16317   0.00000  Uiso   1.00
O65    O     0.00000   0.28036   0.83683   0.00000  Uiso   1.00
O66    O     0.00000   0.21964   0.16317   0.00000  Uiso   1.00
O67    O     0.21964  -0.00000   0.83683   0.00000  Uiso   1.00
O68    O     0.28036  -0.00000   0.16317   0.00000  Uiso   1.00
O69    O     0.20726   0.07307   0.27282   0.00000  Uiso   1.00
O70    O     0.29275   0.42693   0.72718   0.00000  Uiso   1.00
O71    O     0.42693   0.20725   0.27282   0.00000  Uiso   1.00
O72    O     0.07307   0.29274   0.72718   0.00000  Uiso   1.00
O73    O     0.29275   0.42693   0.27282   0.00000  Uiso   1.00
O74    O     0.20726   0.07307   0.72718   0.00000  Uiso   1.00
O75    O     0.07307   0.29274   0.27282   0.00000  Uiso   1.00
O76    O     0.42693   0.20725   0.72718   0.00000  Uiso   1.00
O77    O     0.20726   0.42693   0.72718   0.00000  Uiso   1.00
O78    O     0.29275   0.07307   0.27282   0.00000  Uiso   1.00
O79    O     0.42693   0.29274   0.72718   0.00000  Uiso   1.00
O80    O     0.07307   0.20725   0.27282   0.00000  Uiso   1.00
O81    O     0.29275   0.07307   0.72718   0.00000  Uiso   1.00
O82    O     0.20726   0.42693   0.27282   0.00000  Uiso   1.00
O83    O     0.07307   0.20725   0.72718   0.00000  Uiso   1.00
O84    O     0.42693   0.29274   0.27282   0.00000  Uiso   1.00
O85    O     0.45726   0.32307   0.77282   0.00000  Uiso   1.00
O86    O     0.04275   0.17693   0.22718   0.00000  Uiso   1.00
O87    O     0.17693   0.45725   0.77282   0.00000  Uiso   1.00
O88    O     0.32307   0.04274   0.22718   0.00000  Uiso   1.00
O89    O     0.04275   0.17693   0.77282   0.00000  Uiso   1.00
O90    O     0.45726   0.32307   0.22718   0.00000  Uiso   1.00
O91    O     0.32307   0.04274   0.77282   0.00000  Uiso   1.00
O92    O     0.17693   0.45725   0.22718   0.00000  Uiso   1.00
O93    O     0.45726   0.17693   0.22718   0.00000  Uiso   1.00
O94    O     0.04275   0.32307   0.77282   0.00000  Uiso   1.00
O95    O     0.17693   0.04274   0.22718   0.00000  Uiso   1.00
O96    O     0.32307   0.45725   0.77282   0.00000  Uiso   1.00
O97    O     0.04275   0.32307   0.22718   0.00000  Uiso   1.00
O98    O     0.45726   0.17693   0.77282   0.00000  Uiso   1.00
O99    O     0.32307   0.45725   0.22718   0.00000  Uiso   1.00
O100   O     0.17693   0.04274   0.77282   0.00000  Uiso   1.00
C101   C     0.25000  -0.00000   0.02131   0.00000  Uiso   1.00
C102   C     0.25000  -0.00000   0.97869   0.00000  Uiso   1.00
C103   C    -0.00000   0.25000   0.02131   0.00000  Uiso   1.00
C104   C    -0.00000   0.25000   0.97869   0.00000  Uiso   1.00
C105   C    -0.00000   0.25000   0.52131   0.00000  Uiso   1.00
C106   C    -0.00000   0.25000   0.47869   0.00000  Uiso   1.00
C107   C     0.25000  -0.00000   0.52131   0.00000  Uiso   1.00
C108   C     0.25000  -0.00000   0.47869   0.00000  Uiso   1.00
C109   C     0.25000  -0.00000   0.35519   0.00000  Uiso   1.00
C110   C     0.25000  -0.00000   0.64481   0.00000  Uiso   1.00
C111   C    -0.00000   0.25000   0.35519   0.00000  Uiso   1.00
C112   C     0.00000   0.25000   0.64481   0.00000  Uiso   1.00
C113   C     0.00000   0.25000   0.85519   0.00000  Uiso   1.00
C114   C     0.00000   0.25000   0.14481   0.00000  Uiso   1.00
C115   C     0.25000  -0.00000   0.85519   0.00000  Uiso   1.00
C116   C     0.25000  -0.00000   0.14481   0.00000  Uiso   1.00
C117   C     0.17998   0.07003   0.25001   0.00000  Uiso   1.00
C118   C     0.32001   0.42996   0.75002   0.00000  Uiso   1.00
C119   C     0.42996   0.17999   0.24998   0.00000  Uiso   1.00
C120   C     0.07003   0.32002   0.74999   0.00000  Uiso   1.00
C121   C     0.32003   0.42998   0.25001   0.00000  Uiso   1.00
C122   C     0.17998   0.07003   0.75002   0.00000  Uiso   1.00
C123   C     0.07002   0.32002   0.24999   0.00000  Uiso   1.00
C124   C     0.42997   0.17998   0.75000   0.00000  Uiso   1.00
C125   C     0.17996   0.42999   0.74998   0.00000  Uiso   1.00
C126   C     0.32003   0.07002   0.24999   0.00000  Uiso   1.00
C127   C     0.42997   0.32002   0.75001   0.00000  Uiso   1.00
C128   C     0.07000   0.17995   0.25002   0.00000  Uiso   1.00
C129   C     0.32004   0.07001   0.74998   0.00000  Uiso   1.00
C130   C     0.17999   0.42996   0.24998   0.00000  Uiso   1.00
C131   C     0.07003   0.17998   0.75001   0.00000  Uiso   1.00
C132   C     0.42998   0.32003   0.25001   0.00000  Uiso   1.00
C133   C     0.13831   0.38867   0.21437   0.00000  Uiso   1.00
C134   C     0.36178   0.11122   0.78553   0.00000  Uiso   1.00
C135   C     0.11128   0.13828   0.21448   0.00000  Uiso   1.00
C136   C     0.38867   0.36168   0.78562   0.00000  Uiso   1.00
C137   C     0.36174   0.11127   0.21439   0.00000  Uiso   1.00
C138   C     0.13821   0.38878   0.78553   0.00000  Uiso   1.00
C139   C     0.38868   0.36170   0.21444   0.00000  Uiso   1.00
C140   C     0.11132   0.13831   0.78562   0.00000  Uiso   1.00
C141   C     0.13833   0.11136   0.78564   0.00000  Uiso   1.00
C142   C     0.36172   0.38869   0.21445   0.00000  Uiso   1.00
C143   C     0.11133   0.36170   0.78558   0.00000  Uiso   1.00
C144   C     0.38864   0.13833   0.21435   0.00000  Uiso   1.00
C145   C     0.36165   0.38863   0.78564   0.00000  Uiso   1.00
C146   C     0.13835   0.11139   0.21442   0.00000  Uiso   1.00
C147   C     0.38860   0.13835   0.78560   0.00000  Uiso   1.00
C148   C     0.11132   0.36169   0.21438   0.00000  Uiso   1.00
C149   C     0.38827   0.13874   0.71440   0.00000  Uiso   1.00
C150   C     0.11164   0.36139   0.28559   0.00000  Uiso   1.00
C151   C     0.36132   0.38830   0.71445   0.00000  Uiso   1.00
C152   C     0.13872   0.11172   0.28560   0.00000  Uiso   1.00
C153   C     0.11177   0.36123   0.71440   0.00000  Uiso   1.00
C154   C     0.38825   0.13873   0.28554   0.00000  Uiso   1.00
C155   C     0.13869   0.11170   0.71445   0.00000  Uiso   1.00
C156   C     0.36133   0.38832   0.28563   0.00000  Uiso   1.00
C157   C     0.38830   0.36132   0.28563   0.00000  Uiso   1.00
C158   C     0.11169   0.13865   0.71444   0.00000  Uiso   1.00
C159   C     0.36134   0.11169   0.28557   0.00000  Uiso   1.00
C160   C     0.13866   0.38832   0.71435   0.00000  Uiso   1.00
C161   C     0.11159   0.13856   0.28567   0.00000  Uiso   1.00
C162   C     0.38834   0.36136   0.71444   0.00000  Uiso   1.00
C163   C     0.13874   0.38824   0.28553   0.00000  Uiso   1.00
C164   C     0.36135   0.11169   0.71435   0.00000  Uiso   1.00
H165   H     0.20269   0.46515   0.09782   0.00000  Uiso   1.00
H166   H     0.29732   0.46516   0.90218   0.00000  Uiso   1.00
H167   H     0.46516   0.20268   0.09781   0.00000  Uiso   1.00
H168   H     0.46515   0.29732   0.90220   0.00000  Uiso   1.00
H169   H     0.29732   0.03484   0.09780   0.00000  Uiso   1.00
H170   H     0.20267   0.03484   0.90220   0.00000  Uiso   1.00
H171   H     0.03484   0.29732   0.09781   0.00000  Uiso   1.00
H172   H     0.03485   0.20269   0.90219   0.00000  Uiso   1.00
H173   H     0.45267   0.21517   0.59782   0.00000  Uiso   1.00
H174   H     0.04730   0.21513   0.40218   0.00000  Uiso   1.00
H175   H     0.21514   0.45269   0.59781   0.00000  Uiso   1.00
H176   H     0.21517   0.04733   0.40220   0.00000  Uiso   1.00
H177   H     0.04734   0.28482   0.59780   0.00000  Uiso   1.00
H178   H     0.45269   0.28486   0.40220   0.00000  Uiso   1.00
H179   H     0.28486   0.04731   0.59781   0.00000  Uiso   1.00
H180   H     0.28483   0.45267   0.40219   0.00000  Uiso   1.00
C181   C     0.09807   0.34813   0.24999   0.00000  Uiso   1.00
C182   C     0.40183   0.15196   0.75001   0.00000  Uiso   1.00
C183   C     0.15196   0.09817   0.25000   0.00000  Uiso   1.00
C184   C     0.34807   0.40186   0.75004   0.00000  Uiso   1.00
C185   C     0.40184   0.15195   0.24995   0.00000  Uiso   1.00
C186   C     0.09816   0.34805   0.75000   0.00000  Uiso   1.00
C187   C     0.34813   0.40192   0.25004   0.00000  Uiso   1.00
C188   C     0.15192   0.09813   0.75004   0.00000  Uiso   1.00
C189   C     0.09810   0.15189   0.75002   0.00000  Uiso   1.00
C190   C     0.40190   0.34810   0.25003   0.00000  Uiso   1.00
C191   C     0.15182   0.40197   0.74994   0.00000  Uiso   1.00
C192   C     0.34814   0.09807   0.24999   0.00000  Uiso   1.00
C193   C     0.40191   0.34812   0.75002   0.00000  Uiso   1.00
C194   C     0.09801   0.15181   0.25007   0.00000  Uiso   1.00
C195   C     0.34819   0.09802   0.74994   0.00000  Uiso   1.00
C196   C     0.15195   0.40184   0.24995   0.00000  Uiso   1.00
C197   C     0.25001  -0.00000   0.10247   0.00000  Uiso   1.00
C198   C     0.25000  -0.00000   0.89753   0.00000  Uiso   1.00
C199   C     0.00000   0.25000   0.10247   0.00000  Uiso   1.00
C200   C     0.00000   0.25000   0.89753   0.00000  Uiso   1.00
C201   C     0.00000   0.25000   0.60247   0.00000  Uiso   1.00
C202   C    -0.00000   0.25000   0.39753   0.00000  Uiso   1.00
C203   C     0.25000  -0.00000   0.60247   0.00000  Uiso   1.00
C204   C     0.25000   0.00000   0.39753   0.00000  Uiso   1.00
Cl205  Cl    0.19045   0.45335   0.01763   0.00000  Uiso   1.00
Cl206  Cl    0.30956   0.45335   0.98237   0.00000  Uiso   1.00
Cl207  Cl    0.45335   0.19045   0.01763   0.00000  Uiso   1.00
Cl208  Cl    0.45335   0.30955   0.98239   0.00000  Uiso   1.00
Cl209  Cl    0.30955   0.04664   0.01761   0.00000  Uiso   1.00
Cl210  Cl    0.19044   0.04664   0.98239   0.00000  Uiso   1.00
Cl211  Cl    0.04665   0.30955   0.01762   0.00000  Uiso   1.00
Cl212  Cl    0.04665   0.19045   0.98237   0.00000  Uiso   1.00
Cl213  Cl    0.44043   0.20337   0.51763   0.00000  Uiso   1.00
Cl214  Cl    0.05953   0.20333   0.48237   0.00000  Uiso   1.00
Cl215  Cl    0.20334   0.44046   0.51763   0.00000  Uiso   1.00
Cl216  Cl    0.20337   0.05956   0.48239   0.00000  Uiso   1.00
Cl217  Cl    0.05957   0.29662   0.51761   0.00000  Uiso   1.00
Cl218  Cl    0.44046   0.29667   0.48239   0.00000  Uiso   1.00
Cl219  Cl    0.29667   0.05954   0.51762   0.00000  Uiso   1.00
Cl220  Cl    0.29663   0.44044   0.48237   0.00000  Uiso   1.00
N221   N     0.15376   0.40067   0.17825   0.00000  Uiso   1.00
O222   O     0.18828   0.39565   0.17120   0.00000  Uiso   1.00
O223   O     0.13415   0.41937   0.15388   0.00000  Uiso   1.00
N224   N     0.34641   0.09908   0.82159   0.00000  Uiso   1.00
O225   O     0.31226   0.10548   0.82937   0.00000  Uiso   1.00
O226   O     0.36525   0.07814   0.84455   0.00000  Uiso   1.00
N227   N     0.09928   0.15375   0.17840   0.00000  Uiso   1.00
O228   O     0.10496   0.18812   0.17109   0.00000  Uiso   1.00
O229   O     0.07957   0.13451   0.15459   0.00000  Uiso   1.00
N230   N     0.40066   0.34620   0.82171   0.00000  Uiso   1.00
O231   O     0.39545   0.31172   0.82881   0.00000  Uiso   1.00
O232   O     0.41968   0.36568   0.84593   0.00000  Uiso   1.00
N233   N     0.34631   0.09921   0.17830   0.00000  Uiso   1.00
O234   O     0.31192   0.10474   0.17099   0.00000  Uiso   1.00
O235   O     0.36565   0.07963   0.15446   0.00000  Uiso   1.00
N236   N     0.15361   0.40085   0.82162   0.00000  Uiso   1.00
O237   O     0.18795   0.39513   0.82905   0.00000  Uiso   1.00
O238   O     0.13435   0.42069   0.84529   0.00000  Uiso   1.00
N239   N     0.40062   0.34620   0.17833   0.00000  Uiso   1.00
O240   O     0.39572   0.31165   0.17140   0.00000  Uiso   1.00
O241   O     0.41893   0.36589   0.15369   0.00000  Uiso   1.00
N242   N     0.09932   0.15380   0.82172   0.00000  Uiso   1.00
O243   O     0.10450   0.18828   0.82880   0.00000  Uiso   1.00
O244   O     0.08036   0.13430   0.84597   0.00000  Uiso   1.00
N245   N     0.15383   0.09942   0.82176   0.00000  Uiso   1.00
O246   O     0.18844   0.10409   0.82858   0.00000  Uiso   1.00
O247   O     0.13405   0.08142   0.84657   0.00000  Uiso   1.00
N248   N     0.34624   0.40066   0.17834   0.00000  Uiso   1.00
O249   O     0.31174   0.39554   0.17129   0.00000  Uiso   1.00
O250   O     0.36582   0.41938   0.15395   0.00000  Uiso   1.00
N251   N     0.09941   0.34622   0.82172   0.00000  Uiso   1.00
O252   O     0.10377   0.31155   0.82843   0.00000  Uiso   1.00
O253   O     0.08218   0.36622   0.84695   0.00000  Uiso   1.00
N254   N     0.40058   0.15382   0.17822   0.00000  Uiso   1.00
O255   O     0.39619   0.18849   0.17150   0.00000  Uiso   1.00
O256   O     0.41802   0.13388   0.15310   0.00000  Uiso   1.00
N257   N     0.34613   0.40056   0.82176   0.00000  Uiso   1.00
O258   O     0.31151   0.39593   0.82855   0.00000  Uiso   1.00
O259   O     0.36592   0.41846   0.84664   0.00000  Uiso   1.00
N260   N     0.15389   0.09952   0.17829   0.00000  Uiso   1.00
O261   O     0.18856   0.10390   0.17163   0.00000  Uiso   1.00
O262   O     0.13394   0.08223   0.15305   0.00000  Uiso   1.00
N263   N     0.40044   0.15390   0.82176   0.00000  Uiso   1.00
O264   O     0.39665   0.18869   0.82815   0.00000  Uiso   1.00
O265   O     0.41642   0.13365   0.84768   0.00000  Uiso   1.00
N266   N     0.09935   0.34619   0.17828   0.00000  Uiso   1.00
O267   O     0.10421   0.31162   0.17136   0.00000  Uiso   1.00
O268   O     0.08105   0.36588   0.15364   0.00000  Uiso   1.00
N269   N     0.40371   0.15080   0.67831   0.00000  Uiso   1.00
O270   O     0.43813   0.14537   0.67106   0.00000  Uiso   1.00
O271   O     0.38431   0.17017   0.65434   0.00000  Uiso   1.00
N272   N     0.09607   0.34956   0.32173   0.00000  Uiso   1.00
O273   O     0.06131   0.35353   0.32818   0.00000  Uiso   1.00
O274   O     0.11621   0.33318   0.34747   0.00000  Uiso   1.00
N275   N     0.34936   0.40379   0.67836   0.00000  Uiso   1.00
O276   O     0.35464   0.43826   0.67126   0.00000  Uiso   1.00
O277   O     0.33034   0.38433   0.65413   0.00000  Uiso   1.00
N278   N     0.15082   0.09629   0.32166   0.00000  Uiso   1.00
O279   O     0.14462   0.06208   0.32928   0.00000  Uiso   1.00
O280   O     0.17151   0.11520   0.34482   0.00000  Uiso   1.00
N281   N     0.09638   0.34913   0.67831   0.00000  Uiso   1.00
O282   O     0.06205   0.35482   0.67087   0.00000  Uiso   1.00
O283   O     0.11564   0.32924   0.65469   0.00000  Uiso   1.00
N284   N     0.40370   0.15075   0.32163   0.00000  Uiso   1.00
O285   O     0.43811   0.14527   0.32888   0.00000  Uiso   1.00
O286   O     0.38432   0.17013   0.34561   0.00000  Uiso   1.00
N287   N     0.15066   0.09621   0.67836   0.00000  Uiso   1.00
O288   O     0.14542   0.06173   0.67127   0.00000  Uiso   1.00
O289   O     0.16959   0.11570   0.65407   0.00000  Uiso   1.00
N290   N     0.34936   0.40380   0.32175   0.00000  Uiso   1.00
O291   O     0.35419   0.43837   0.32867   0.00000  Uiso   1.00
O292   O     0.33104   0.38410   0.34637   0.00000  Uiso   1.00
N293   N     0.40377   0.34932   0.32173   0.00000  Uiso   1.00
O294   O     0.43829   0.35435   0.32876   0.00000  Uiso   1.00
O295   O     0.38416   0.33065   0.34614   0.00000  Uiso   1.00
N296   N     0.09618   0.15057   0.67832   0.00000  Uiso   1.00
O297   O     0.06159   0.14579   0.67146   0.00000  Uiso   1.00
O298   O     0.11592   0.16864   0.65353   0.00000  Uiso   1.00
N299   N     0.34943   0.09618   0.32170   0.00000  Uiso   1.00
O300   O     0.35399   0.06155   0.32847   0.00000  Uiso   1.00
O301   O     0.33178   0.11605   0.34672   0.00000  Uiso   1.00
N302   N     0.15061   0.40378   0.67820   0.00000  Uiso   1.00
O303   O     0.14638   0.43846   0.67151   0.00000  Uiso   1.00
O304   O     0.16777   0.38373   0.65295   0.00000  Uiso   1.00
N305   N     0.09602   0.15039   0.32182   0.00000  Uiso   1.00
O306   O     0.06122   0.14662   0.32818   0.00000  Uiso   1.00
O307   O     0.11621   0.16652   0.34769   0.00000  Uiso   1.00
N308   N     0.40387   0.34945   0.67832   0.00000  Uiso   1.00
O309   O     0.43847   0.35417   0.67150   0.00000  Uiso   1.00
O310   O     0.38410   0.33150   0.65345   0.00000  Uiso   1.00
N311   N     0.15082   0.40365   0.32161   0.00000  Uiso   1.00
O312   O     0.14468   0.43787   0.32922   0.00000  Uiso   1.00
O313   O     0.17137   0.38467   0.34484   0.00000  Uiso   1.00
N314   N     0.34939   0.09624   0.67822   0.00000  Uiso   1.00
O315   O     0.35389   0.06161   0.67140   0.00000  Uiso   1.00
O316   O     0.33170   0.11615   0.65327   0.00000  Uiso   1.00
Zn317  Zn    0.70660  -0.00000   0.21760   0.00000  Uiso   1.00
Zn318  Zn    0.79340  -0.00000   0.78240   0.00000  Uiso   1.00
Zn319  Zn    0.50000   0.20660   0.21760   0.00000  Uiso   1.00
Zn320  Zn    0.50000   0.29340   0.78240   0.00000  Uiso   1.00
Zn321  Zn    0.79340  -0.00000   0.21760   0.00000  Uiso   1.00
Zn322  Zn    0.70660  -0.00000   0.78240   0.00000  Uiso   1.00
Zn323  Zn    0.50000   0.29340   0.21760   0.00000  Uiso   1.00
Zn324  Zn    0.50000   0.20660   0.78240   0.00000  Uiso   1.00
Zn325  Zn    0.95660   0.25000   0.71760   0.00000  Uiso   1.00
Zn326  Zn    0.54340   0.25000   0.28240   0.00000  Uiso   1.00
Zn327  Zn    0.75000   0.45660   0.71760   0.00000  Uiso   1.00
Zn328  Zn    0.75000   0.04340   0.28240   0.00000  Uiso   1.00
Zn329  Zn    0.54340   0.25000   0.71760   0.00000  Uiso   1.00
Zn330  Zn    0.95660   0.25000   0.28240   0.00000  Uiso   1.00
Zn331  Zn    0.75000   0.04340   0.71760   0.00000  Uiso   1.00
Zn332  Zn    0.75000   0.45660   0.28240   0.00000  Uiso   1.00
C333   C     0.72343   0.47997   0.04177   0.00000  Uiso   1.00
C334   C     0.77657   0.47997   0.95823   0.00000  Uiso   1.00
C335   C     0.97997   0.22343   0.04177   0.00000  Uiso   1.00
C336   C     0.97997   0.27657   0.95824   0.00000  Uiso   1.00
C337   C     0.77658   0.02002   0.04176   0.00000  Uiso   1.00
C338   C     0.72342   0.02002   0.95824   0.00000  Uiso   1.00
C339   C     0.52003   0.27657   0.04177   0.00000  Uiso   1.00
C340   C     0.52003   0.22343   0.95823   0.00000  Uiso   1.00
C341   C     0.97342   0.22998   0.54177   0.00000  Uiso   1.00
C342   C     0.52656   0.22996   0.45823   0.00000  Uiso   1.00
C343   C     0.72997   0.47343   0.54177   0.00000  Uiso   1.00
C344   C     0.72998   0.02658   0.45824   0.00000  Uiso   1.00
C345   C     0.52658   0.27001   0.54176   0.00000  Uiso   1.00
C346   C     0.97343   0.27003   0.45824   0.00000  Uiso   1.00
C347   C     0.77004   0.02656   0.54177   0.00000  Uiso   1.00
C348   C     0.77002   0.47342   0.45823   0.00000  Uiso   1.00
C349   C     0.72324   0.48054   0.08220   0.00000  Uiso   1.00
C350   C     0.77677   0.48054   0.91780   0.00000  Uiso   1.00
C351   C     0.98055   0.22323   0.08220   0.00000  Uiso   1.00
C352   C     0.98054   0.27677   0.91781   0.00000  Uiso   1.00
C353   C     0.77677   0.01945   0.08219   0.00000  Uiso   1.00
C354   C     0.72323   0.01945   0.91781   0.00000  Uiso   1.00
C355   C     0.51945   0.27677   0.08219   0.00000  Uiso   1.00
C356   C     0.51946   0.22324   0.91780   0.00000  Uiso   1.00
C357   C     0.97323   0.23055   0.58220   0.00000  Uiso   1.00
C358   C     0.52676   0.23053   0.41780   0.00000  Uiso   1.00
C359   C     0.73054   0.47324   0.58220   0.00000  Uiso   1.00
C360   C     0.73055   0.02677   0.41781   0.00000  Uiso   1.00
C361   C     0.52678   0.26944   0.58219   0.00000  Uiso   1.00
C362   C     0.97323   0.26946   0.41781   0.00000  Uiso   1.00
C363   C     0.76946   0.02676   0.58220   0.00000  Uiso   1.00
C364   C     0.76945   0.47323   0.41780   0.00000  Uiso   1.00
O365   O     0.75000  -0.00000   0.25000   0.00000  Uiso   1.00
O366   O     0.75000  -0.00000   0.75000   0.00000  Uiso   1.00
O367   O     0.50000   0.25000   0.25000   0.00000  Uiso   1.00
O368   O     0.50000   0.25000   0.75000   0.00000  Uiso   1.00
O369   O     0.75000   0.46964   0.33683   0.00000  Uiso   1.00
O370   O     0.75000   0.03036   0.66317   0.00000  Uiso   1.00
O371   O     0.53036   0.25000   0.33683   0.00000  Uiso   1.00
O372   O     0.96964   0.25000   0.66317   0.00000  Uiso   1.00
O373   O     0.75000   0.03036   0.33683   0.00000  Uiso   1.00
O374   O     0.75000   0.46964   0.66317   0.00000  Uiso   1.00
O375   O     0.96964   0.25000   0.33683   0.00000  Uiso   1.00
O376   O     0.53036   0.25000   0.66317   0.00000  Uiso   1.00
O377   O     0.50000   0.21964   0.83683   0.00000  Uiso   1.00
O378   O     0.50000   0.28036   0.16317   0.00000  Uiso   1.00
O379   O     0.78036  -0.00000   0.83683   0.00000  Uiso   1.00
O380   O     0.71964  -0.00000   0.16317   0.00000  Uiso   1.00
O381   O     0.50000   0.28036   0.83683   0.00000  Uiso   1.00
O382   O     0.50000   0.21964   0.16317   0.00000  Uiso   1.00
O383   O     0.71964  -0.00000   0.83683   0.00000  Uiso   1.00
O384   O     0.78036  -0.00000   0.16317   0.00000  Uiso   1.00
O385   O     0.70726   0.07307   0.27282   0.00000  Uiso   1.00
O386   O     0.79275   0.42693   0.72718   0.00000  Uiso   1.00
O387   O     0.92693   0.20725   0.27282   0.00000  Uiso   1.00
O388   O     0.57307   0.29274   0.72718   0.00000  Uiso   1.00
O389   O     0.79275   0.42693   0.27282   0.00000  Uiso   1.00
O390   O     0.70726   0.07307   0.72718   0.00000  Uiso   1.00
O391   O     0.57307   0.29274   0.27282   0.00000  Uiso   1.00
O392   O     0.92693   0.20725   0.72718   0.00000  Uiso   1.00
O393   O     0.70726   0.42693   0.72718   0.00000  Uiso   1.00
O394   O     0.79275   0.07307   0.27282   0.00000  Uiso   1.00
O395   O     0.92693   0.29274   0.72718   0.00000  Uiso   1.00
O396   O     0.57307   0.20725   0.27282   0.00000  Uiso   1.00
O397   O     0.79275   0.07307   0.72718   0.00000  Uiso   1.00
O398   O     0.70726   0.42693   0.27282   0.00000  Uiso   1.00
O399   O     0.57307   0.20725   0.72718   0.00000  Uiso   1.00
O400   O     0.92693   0.29274   0.27282   0.00000  Uiso   1.00
O401   O     0.95726   0.32307   0.77282   0.00000  Uiso   1.00
O402   O     0.54275   0.17693   0.22718   0.00000  Uiso   1.00
O403   O     0.67693   0.45725   0.77282   0.00000  Uiso   1.00
O404   O     0.82307   0.04274   0.22718   0.00000  Uiso   1.00
O405   O     0.54275   0.17693   0.77282   0.00000  Uiso   1.00
O406   O     0.95726   0.32307   0.22718   0.00000  Uiso   1.00
O407   O     0.82307   0.04274   0.77282   0.00000  Uiso   1.00
O408   O     0.67693   0.45725   0.22718   0.00000  Uiso   1.00
O409   O     0.95726   0.17693   0.22718   0.00000  Uiso   1.00
O410   O     0.54275   0.32307   0.77282   0.00000  Uiso   1.00
O411   O     0.67693   0.04274   0.22718   0.00000  Uiso   1.00
O412   O     0.82307   0.45725   0.77282   0.00000  Uiso   1.00
O413   O     0.54275   0.32307   0.22718   0.00000  Uiso   1.00
O414   O     0.95726   0.17693   0.77282   0.00000  Uiso   1.00
O415   O     0.82307   0.45725   0.22718   0.00000  Uiso   1.00
O416   O     0.67693   0.04274   0.77282   0.00000  Uiso   1.00
C417   C     0.75000  -0.00000   0.02131   0.00000  Uiso   1.00
C418   C     0.75000  -0.00000   0.97869   0.00000  Uiso   1.00
C419   C     0.50000   0.25000   0.02131   0.00000  Uiso   1.00
C420   C     0.50000   0.25000   0.97869   0.00000  Uiso   1.00
C421   C     0.50000   0.25000   0.52131   0.00000  Uiso   1.00
C422   C     0.50000   0.25000   0.47869   0.00000  Uiso   1.00
C423   C     0.75000  -0.00000   0.52131   0.00000  Uiso   1.00
C424   C     0.75000  -0.00000   0.47869   0.00000  Uiso   1.00
C425   C     0.75000  -0.00000   0.35519   0.00000  Uiso   1.00
C426   C     0.75000  -0.00000   0.64481   0.00000  Uiso   1.00
C427   C     0.50000   0.25000   0.35519   0.00000  Uiso   1.00
C428   C     0.50000   0.25000   0.64481   0.00000  Uiso   1.00
C429   C     0.50000   0.25000   0.85519   0.00000  Uiso   1.00
C430   C     0.50000   0.25000   0.14481   0.00000  Uiso   1.00
C431   C     0.75000  -0.00000   0.85519   0.00000  Uiso   1.00
C432   C     0.75000  -0.00000   0.14481   0.00000  Uiso   1.00
C433   C     0.67998   0.07003   0.25001   0.00000  Uiso   1.00
C434   C     0.82001   0.42996   0.75002   0.00000  Uiso   1.00
C435   C     0.92996   0.17999   0.24998   0.00000  Uiso   1.00
C436   C     0.57003   0.32002   0.74999   0.00000  Uiso   1.00
C437   C     0.82003   0.42998   0.25001   0.00000  Uiso   1.00
C438   C     0.67998   0.07003   0.75002   0.00000  Uiso   1.00
C439   C     0.57002   0.32002   0.24999   0.00000  Uiso   1.00
C440   C     0.92997   0.17998   0.75000   0.00000  Uiso   1.00
C441   C     0.67996   0.42999   0.74998   0.00000  Uiso   1.00
C442   C     0.82003   0.07002   0.24999   0.00000  Uiso   1.00
C443   C     0.92997   0.32002   0.75001   0.00000  Uiso   1.00
C444   C     0.57000   0.17995   0.25002   0.00000  Uiso   1.00
C445   C     0.82004   0.07001   0.74998   0.00000  Uiso   1.00
C446   C     0.67999   0.42996   0.24998   0.00000  Uiso   1.00
C447   C     0.57003   0.17998   0.75001   0.00000  Uiso   1.00
C448   C     0.92998   0.32003   0.25001   0.00000  Uiso   1.00
C449   C     0.63831   0.38867   0.21437   0.00000  Uiso   1.00
C450   C     0.86178   0.11122   0.78553   0.00000  Uiso   1.00
C451   C     0.61128   0.13828   0.21448   0.00000  Uiso   1.00
C452   C     0.88867   0.36168   0.78562   0.00000  Uiso   1.00
C453   C     0.86174   0.11127   0.21439   0.00000  Uiso   1.00
C454   C     0.63821   0.38878   0.78553   0.00000  Uiso   1.00
C455   C     0.88868   0.36170   0.21444   0.00000  Uiso   1.00
C456   C     0.61132   0.13831   0.78562   0.00000  Uiso   1.00
C457   C     0.63833   0.11136   0.78564   0.00000  Uiso   1.00
C458   C     0.86172   0.38869   0.21445   0.00000  Uiso   1.00
C459   C     0.61133   0.36170   0.78558   0.00000  Uiso   1.00
C460   C     0.88864   0.13833   0.21435   0.00000  Uiso   1.00
C461   C     0.86165   0.38863   0.78564   0.00000  Uiso   1.00
C462   C     0.63835   0.11139   0.21442   0.00000  Uiso   1.00
C463   C     0.88860   0.13835   0.78560   0.00000  Uiso   1.00
C464   C     0.61132   0.36169   0.21438   0.00000  Uiso   1.00
C465   C     0.88827   0.13874   0.71440   0.00000  Uiso   1.00
C466   C     0.61164   0.36139   0.28559   0.00000  Uiso   1.00
C467   C     0.86132   0.38830   0.71445   0.00000  Uiso   1.00
C468   C     0.63872   0.11172   0.28560   0.00000  Uiso   1.00
C469   C     0.61177   0.36123   0.71440   0.00000  Uiso   1.00
C470   C     0.88825   0.13873   0.28554   0.00000  Uiso   1.00
C471   C     0.63869   0.11170   0.71445   0.00000  Uiso   1.00
C472   C     0.86133   0.38832   0.28563   0.00000  Uiso   1.00
C473   C     0.88830   0.36132   0.28563   0.00000  Uiso   1.00
C474   C     0.61169   0.13865   0.71444   0.00000  Uiso   1.00
C475   C     0.86134   0.11169   0.28557   0.00000  Uiso   1.00
C476   C     0.63866   0.38832   0.71435   0.00000  Uiso   1.00
C477   C     0.61159   0.13856   0.28567   0.00000  Uiso   1.00
C478   C     0.88834   0.36136   0.71444   0.00000  Uiso   1.00
C479   C     0.63874   0.38824   0.28553   0.00000  Uiso   1.00
C480   C     0.86135   0.11169   0.71435   0.00000  Uiso   1.00
H481   H     0.70269   0.46515   0.09782   0.00000  Uiso   1.00
H482   H     0.79732   0.46516   0.90218   0.00000  Uiso   1.00
H483   H     0.96516   0.20268   0.09781   0.00000  Uiso   1.00
H484   H     0.96515   0.29732   0.90220   0.00000  Uiso   1.00
H485   H     0.79732   0.03484   0.09780   0.00000  Uiso   1.00
H486   H     0.70267   0.03484   0.90220   0.00000  Uiso   1.00
H487   H     0.53484   0.29732   0.09781   0.00000  Uiso   1.00
H488   H     0.53485   0.20269   0.90219   0.00000  Uiso   1.00
H489   H     0.95267   0.21517   0.59782   0.00000  Uiso   1.00
H490   H     0.54730   0.21513   0.40218   0.00000  Uiso   1.00
H491   H     0.71514   0.45269   0.59781   0.00000  Uiso   1.00
H492   H     0.71517   0.04733   0.40220   0.00000  Uiso   1.00
H493   H     0.54734   0.28482   0.59780   0.00000  Uiso   1.00
H494   H     0.95269   0.28486   0.40220   0.00000  Uiso   1.00
H495   H     0.78486   0.04731   0.59781   0.00000  Uiso   1.00
H496   H     0.78483   0.45267   0.40219   0.00000  Uiso   1.00
C497   C     0.59807   0.34813   0.24999   0.00000  Uiso   1.00
C498   C     0.90183   0.15196   0.75001   0.00000  Uiso   1.00
C499   C     0.65196   0.09817   0.25000   0.00000  Uiso   1.00
C500   C     0.84807   0.40186   0.75004   0.00000  Uiso   1.00
C501   C     0.90184   0.15195   0.24995   0.00000  Uiso   1.00
C502   C     0.59816   0.34805   0.75000   0.00000  Uiso   1.00
C503   C     0.84813   0.40192   0.25004   0.00000  Uiso   1.00
C504   C     0.65192   0.09813   0.75004   0.00000  Uiso   1.00
C505   C     0.59810   0.15189   0.75002   0.00000  Uiso   1.00
C506   C     0.90190   0.34810   0.25003   0.00000  Uiso   1.00
C507   C     0.65182   0.40197   0.74994   0.00000  Uiso   1.00
C508   C     0.84814   0.09807   0.24999   0.00000  Uiso   1.00
C509   C     0.90191   0.34812   0.75002   0.00000  Uiso   1.00
C510   C     0.59801   0.15181   0.25007   0.00000  Uiso   1.00
C511   C     0.84819   0.09802   0.74994   0.00000  Uiso   1.00
C512   C     0.65195   0.40184   0.24995   0.00000  Uiso   1.00
C513   C     0.75001  -0.00000   0.10247   0.00000  Uiso   1.00
C514   C     0.75000  -0.00000   0.89753   0.00000  Uiso   1.00
C515   C     0.50000   0.25000   0.10247   0.00000  Uiso   1.00
C516   C     0.50000   0.25000   0.89753   0.00000  Uiso   1.00
C517   C     0.50000   0.25000   0.60247   0.00000  Uiso   1.00
C518   C     0.50000   0.25000   0.39753   0.00000  Uiso   1.00
C519   C     0.75000  -0.00000   0.60247   0.00000  Uiso   1.00
C520   C     0.75000   0.00000   0.39753   0.00000  Uiso   1.00
Cl521  Cl    0.69045   0.45335   0.01763   0.00000  Uiso   1.00
Cl522  Cl    0.80956   0.45335   0.98237   0.00000  Uiso   1.00
Cl523  Cl    0.95335   0.19045   0.01763   0.00000  Uiso   1.00
Cl524  Cl    0.95335   0.30955   0.98239   0.00000  Uiso   1.00
Cl525  Cl    0.80955   0.04664   0.01761   0.00000  Uiso   1.00
Cl526  Cl    0.69044   0.04664   0.98239   0.00000  Uiso   1.00
Cl527  Cl    0.54665   0.30955   0.01762   0.00000  Uiso   1.00
Cl528  Cl    0.54665   0.19045   0.98237   0.00000  Uiso   1.00
Cl529  Cl    0.94043   0.20337   0.51763   0.00000  Uiso   1.00
Cl530  Cl    0.55953   0.20333   0.48237   0.00000  Uiso   1.00
Cl531  Cl    0.70334   0.44046   0.51763   0.00000  Uiso   1.00
Cl532  Cl    0.70337   0.05956   0.48239   0.00000  Uiso   1.00
Cl533  Cl    0.55957   0.29662   0.51761   0.00000  Uiso   1.00
Cl534  Cl    0.94046   0.29667   0.48239   0.00000  Uiso   1.00
Cl535  Cl    0.79667   0.05954   0.51762   0.00000  Uiso   1.00
Cl536  Cl    0.79663   0.44044   0.48237   0.00000  Uiso   1.00
N537   N     0.65376   0.40067   0.17825   0.00000  Uiso   1.00
O538   O     0.68828   0.39565   0.17120   0.00000  Uiso   1.00
O539   O     0.63415   0.41937   0.15388   0.00000  Uiso   1.00
N540   N     0.84641   0.09908   0.82159   0.00000  Uiso   1.00
O541   O     0.81226   0.10548   0.82937   0.00000  Uiso   1.00
O542   O     0.86525   0.07814   0.84455   0.00000  Uiso   1.00
N543   N     0.59928   0.15375   0.17840   0.00000  Uiso   1.00
O544   O     0.60496   0.18812   0.17109   0.00000  Uiso   1.00
O545   O     0.57957   0.13451   0.15459   0.00000  Uiso   1.00
N546   N     0.90066   0.34620   0.82171   0.00000  Uiso   1.00
O547   O     0.89545   0.31172   0.82881   0.00000  Uiso   1.00
O548   O     0.91968   0.36568   0.84593   0.00000  Uiso   1.00
N549   N     0.84631   0.09921   0.17830   0.00000  Uiso   1.00
O550   O     0.81192   0.10474   0.17099   0.00000  Uiso   1.00
O551   O     0.86565   0.07963   0.15446   0.00000  Uiso   1.00
N552   N     0.65361   0.40085   0.82162   0.00000  Uiso   1.00
O553   O     0.68795   0.39513   0.82905   0.00000  Uiso   1.00
O554   O     0.63435   0.42069   0.84529   0.00000  Uiso   1.00
N555   N     0.90062   0.34620   0.17833   0.00000  Uiso   1.00
O556   O     0.89572   0.31165   0.17140   0.00000  Uiso   1.00
O557   O     0.91893   0.36589   0.15369   0.00000  Uiso   1.00
N558   N     0.59932   0.15380   0.82172   0.00000  Uiso   1.00
O559   O     0.60450   0.18828   0.82880   0.00000  Uiso   1.00
O560   O     0.58036   0.13430   0.84597   0.00000  Uiso   1.00
N561   N     0.65383   0.09942   0.82176   0.00000  Uiso   1.00
O562   O     0.68844   0.10409   0.82858   0.00000  Uiso   1.00
O563   O     0.63405   0.08142   0.84657   0.00000  Uiso   1.00
N564   N     0.84624   0.40066   0.17834   0.00000  Uiso   1.00
O565   O     0.81174   0.39554   0.17129   0.00000  Uiso   1.00
O566   O     0.86582   0.41938   0.15395   0.00000  Uiso   1.00
N567   N     0.59941   0.34622   0.82172   0.00000  Uiso   1.00
O568   O     0.60377   0.31155   0.82843   0.00000  Uiso   1.00
O569   O     0.58218   0.36622   0.84695   0.00000  Uiso   1.00
N570   N     0.90058   0.15382   0.17822   0.00000  Uiso   1.00
O571   O     0.89619   0.18849   0.17150   0.00000  Uiso   1.00
O572   O     0.91802   0.13388   0.15310   0.00000  Uiso   1.00
N573   N     0.84613   0.40056   0.82176   0.00000  Uiso   1.00
O574   O     0.81151   0.39593   0.82855   0.00000  Uiso   1.00
O575   O     0.86592   0.41846   0.84664   0.00000  Uiso   1.00
N576   N     0.65389   0.09952   0.17829   0.00000  Uiso   1.00
O577   O     0.68856   0.10390   0.17163   0.00000  Uiso   1.00
O578   O     0.63394   0.08223   0.15305   0.00000  Uiso   1.00
N579   N     0.90044   0.15390   0.82176   0.00000  Uiso   1.00
O580   O     0.89665   0.18869   0.82815   0.00000  Uiso   1.00
O581   O     0.91642   0.13365   0.84768   0.00000  Uiso   1.00
N582   N     0.59935   0.34619   0.17828   0.00000  Uiso   1.00
O583   O     0.60421   0.31162   0.17136   0.00000  Uiso   1.00
O584   O     0.58105   0.36588   0.15364   0.00000  Uiso   1.00
N585   N     0.90371   0.15080   0.67831   0.00000  Uiso   1.00
O586   O     0.93813   0.14537   0.67106   0.00000  Uiso   1.00
O587   O     0.88431   0.17017   0.65434   0.00000  Uiso   1.00
N588   N     0.59607   0.34956   0.32173   0.00000  Uiso   1.00
O589   O     0.56131   0.35353   0.32818   0.00000  Uiso   1.00
O590   O     0.61621   0.33318   0.34747   0.00000  Uiso   1.00
N591   N     0.84936   0.40379   0.67836   0.00000  Uiso   1.00
O592   O     0.85464   0.43826   0.67126   0.00000  Uiso   1.00
O593   O     0.83034   0.38433   0.65413   0.00000  Uiso   1.00
N594   N     0.65082   0.09629   0.32166   0.00000  Uiso   1.00
O595   O     0.64462   0.06208   0.32928   0.00000  Uiso   1.00
O596   O     0.67151   0.11520   0.34482   0.00000  Uiso   1.00
N597   N     0.59638   0.34913   0.67831   0.00000  Uiso   1.00
O598   O     0.56205   0.35482   0.67087   0.00000  Uiso   1.00
O599   O     0.61564   0.32924   0.65469   0.00000  Uiso   1.00
N600   N     0.90370   0.15075   0.32163   0.00000  Uiso   1.00
O601   O     0.93811   0.14527   0.32888   0.00000  Uiso   1.00
O602   O     0.88432   0.17013   0.34561   0.00000  Uiso   1.00
N603   N     0.65066   0.09621   0.67836   0.00000  Uiso   1.00
O604   O     0.64542   0.06173   0.67127   0.00000  Uiso   1.00
O605   O     0.66959   0.11570   0.65407   0.00000  Uiso   1.00
N606   N     0.84936   0.40380   0.32175   0.00000  Uiso   1.00
O607   O     0.85419   0.43837   0.32867   0.00000  Uiso   1.00
O608   O     0.83104   0.38410   0.34637   0.00000  Uiso   1.00
N609   N     0.90377   0.34932   0.32173   0.00000  Uiso   1.00
O610   O     0.93829   0.35435   0.32876   0.00000  Uiso   1.00
O611   O     0.88416   0.33065   0.34614   0.00000  Uiso   1.00
N612   N     0.59618   0.15057   0.67832   0.00000  Uiso   1.00
O613   O     0.56159   0.14579   0.67146   0.00000  Uiso   1.00
O614   O     0.61592   0.16864   0.65353   0.00000  Uiso   1.00
N615   N     0.84943   0.09618   0.32170   0.00000  Uiso   1.00
O616   O     0.85399   0.06155   0.32847   0.00000  Uiso   1.00
O617   O     0.83178   0.11605   0.34672   0.00000  Uiso   1.00
N618   N     0.65061   0.40378   0.67820   0.00000  Uiso   1.00
O619   O     0.64638   0.43846   0.67151   0.00000  Uiso   1.00
O620   O     0.66777   0.38373   0.65295   0.00000  Uiso   1.00
N621   N     0.59602   0.15039   0.32182   0.00000  Uiso   1.00
O622   O     0.56122   0.14662   0.32818   0.00000  Uiso   1.00
O623   O     0.61621   0.16652   0.34769   0.00000  Uiso   1.00
N624   N     0.90387   0.34945   0.67832   0.00000  Uiso   1.00
O625   O     0.93847   0.35417   0.67150   0.00000  Uiso   1.00
O626   O     0.88410   0.33150   0.65345   0.00000  Uiso   1.00
N627   N     0.65082   0.40365   0.32161   0.00000  Uiso   1.00
O628   O     0.64468   0.43787   0.32922   0.00000  Uiso   1.00
O629   O     0.67137   0.38467   0.34484   0.00000  Uiso   1.00
N630   N     0.84939   0.09624   0.67822   0.00000  Uiso   1.00
O631   O     0.85389   0.06161   0.67140   0.00000  Uiso   1.00
O632   O     0.83170   0.11615   0.65327   0.00000  Uiso   1.00
Zn633  Zn    0.20660   0.50000   0.21760   0.00000  Uiso   1.00
Zn634  Zn    0.29340   0.50000   0.78240   0.00000  Uiso   1.00
Zn635  Zn    0.00000   0.70660   0.21760   0.00000  Uiso   1.00
Zn636  Zn    0.00000   0.79340   0.78240   0.00000  Uiso   1.00
Zn637  Zn    0.29340   0.50000   0.21760   0.00000  Uiso   1.00
Zn638  Zn    0.20660   0.50000   0.78240   0.00000  Uiso   1.00
Zn639  Zn    0.00000   0.79340   0.21760   0.00000  Uiso   1.00
Zn640  Zn    0.00000   0.70660   0.78240   0.00000  Uiso   1.00
Zn641  Zn    0.45660   0.75000   0.71760   0.00000  Uiso   1.00
Zn642  Zn    0.04340   0.75000   0.28240   0.00000  Uiso   1.00
Zn643  Zn    0.25000   0.95660   0.71760   0.00000  Uiso   1.00
Zn644  Zn    0.25000   0.54340   0.28240   0.00000  Uiso   1.00
Zn645  Zn    0.04340   0.75000   0.71760   0.00000  Uiso   1.00
Zn646  Zn    0.45660   0.75000   0.28240   0.00000  Uiso   1.00
Zn647  Zn    0.25000   0.54340   0.71760   0.00000  Uiso   1.00
Zn648  Zn    0.25000   0.95660   0.28240   0.00000  Uiso   1.00
C649   C     0.22343   0.97997   0.04177   0.00000  Uiso   1.00
C650   C     0.27657   0.97997   0.95823   0.00000  Uiso   1.00
C651   C     0.47997   0.72343   0.04177   0.00000  Uiso   1.00
C652   C     0.47997   0.77657   0.95824   0.00000  Uiso   1.00
C653   C     0.27658   0.52002   0.04176   0.00000  Uiso   1.00
C654   C     0.22342   0.52002   0.95824   0.00000  Uiso   1.00
C655   C     0.02003   0.77657   0.04177   0.00000  Uiso   1.00
C656   C     0.02003   0.72343   0.95823   0.00000  Uiso   1.00
C657   C     0.47342   0.72998   0.54177   0.00000  Uiso   1.00
C658   C     0.02656   0.72996   0.45823   0.00000  Uiso   1.00
C659   C     0.22997   0.97343   0.54177   0.00000  Uiso   1.00
C660   C     0.22998   0.52658   0.45824   0.00000  Uiso   1.00
C661   C     0.02658   0.77001   0.54176   0.00000  Uiso   1.00
C662   C     0.47343   0.77003   0.45824   0.00000  Uiso   1.00
C663   C     0.27004   0.52656   0.54177   0.00000  Uiso   1.00
C664   C     0.27002   0.97342   0.45823   0.00000  Uiso   1.00
C665   C     0.22324   0.98054   0.08220   0.00000  Uiso   1.00
C666   C     0.27677   0.98054   0.91780   0.00000  Uiso   1.00
C667   C     0.48055   0.72323   0.08220   0.00000  Uiso   1.00
C668   C     0.48054   0.77677   0.91781   0.00000  Uiso   1.00
C669   C     0.27677   0.51945   0.08219   0.00000  Uiso   1.00
C670   C     0.22323   0.51945   0.91781   0.00000  Uiso   1.00
C671   C     0.01945   0.77677   0.08219   0.00000  Uiso   1.00
C672   C     0.01946   0.72324   0.91780   0.00000  Uiso   1.00
C673   C     0.47323   0.73055   0.58220   0.00000  Uiso   1.00
C674   C     0.02676   0.73053   0.41780   0.00000  Uiso   1.00
C675   C     0.23054   0.97324   0.58220   0.00000  Uiso   1.00
C676   C     0.23055   0.52677   0.41781   0.00000  Uiso   1.00
C677   C     0.02678   0.76944   0.58219   0.00000  Uiso   1.00
C678   C     0.47323   0.76946   0.41781   0.00000  Uiso   1.00
C679   C     0.26946   0.52676   0.58220   0.00000  Uiso   1.00
C680   C     0.26945   0.97323   0.41780   0.00000  Uiso   1.00
O681   O     0.25000   0.50000   0.25000   0.00000  Uiso   1.00
O682   O     0.25000   0.50000   0.75000   0.00000  Uiso   1.00
O683   O     0.00000   0.75000   0.25000   0.00000  Uiso   1.00
O684   O     0.00000   0.75000   0.75000   0.00000  Uiso   1.00
O685   O     0.25000   0.96964   0.33683   0.00000  Uiso   1.00
O686   O     0.25000   0.53036   0.66317   0.00000  Uiso   1.00
O687   O     0.03036   0.75000   0.33683   0.00000  Uiso   1.00
O688   O     0.46964   0.75000   0.66317   0.00000  Uiso   1.00
O689   O     0.25000   0.53036   0.33683   0.00000  Uiso   1.00
O690   O     0.25000   0.96964   0.66317   0.00000  Uiso   1.00
O691   O     0.46964   0.75000   0.33683   0.00000  Uiso   1.00
O692   O     0.03036   0.75000   0.66317   0.00000  Uiso   1.00
O693   O     0.00000   0.71964   0.83683   0.00000  Uiso   1.00
O694   O     0.00000   0.78036   0.16317   0.00000  Uiso   1.00
O695   O     0.28036   0.50000   0.83683   0.00000  Uiso   1.00
O696   O     0.21964   0.50000   0.16317   0.00000  Uiso   1.00
O697   O     0.00000   0.78036   0.83683   0.00000  Uiso   1.00
O698   O     0.00000   0.71964   0.16317   0.00000  Uiso   1.00
O699   O     0.21964   0.50000   0.83683   0.00000  Uiso   1.00
O700   O     0.28036   0.50000   0.16317   0.00000  Uiso   1.00
O701   O     0.20726   0.57307   0.27282   0.00000  Uiso   1.00
O702   O     0.29275   0.92693   0.72718   0.00000  Uiso   1.00
O703   O     0.42693   0.70725   0.27282   0.00000  Uiso   1.00
O704   O     0.07307   0.79274   0.72718   0.00000  Uiso   1.00
O705   O     0.29275   0.92693   0.27282   0.00000  Uiso   1.00
O706   O     0.20726   0.57307   0.72718   0.00000  Uiso   1.00
O707   O     0.07307   0.79274   0.27282   0.00000  Uiso   1.00
O708   O     0.42693   0.70725   0.72718   0.00000  Uiso   1.00
O709   O     0.20726   0.92693   0.72718   0.00000  Uiso   1.00
O710   O     0.29275   0.57307   0.27282   0.00000  Uiso   1.00
O711   O     0.42693   0.79274   0.72718   0.00000  Uiso   1.00
O712   O     0.07307   0.70725   0.27282   0.00000  Uiso   1.00
O713   O     0.29275   0.57307   0.72718   0.00000  Uiso   1.00
O714   O     0.20726   0.92693   0.27282   0.00000  Uiso   1.00
O715   O     0.07307   0.70725   0.72718   0.00000  Uiso   1.00
O716   O     0.42693   0.79274   0.27282   0.00000  Uiso   1.00
O717   O     0.45726   0.82307   0.77282   0.00000  Uiso   1.00
O718   O     0.04275   0.67693   0.22718   0.00000  Uiso   1.00
O719   O     0.17693   0.95725   0.77282   0.00000  Uiso   1.00
O720   O     0.32307   0.54274   0.22718   0.00000  Uiso   1.00
O721   O     0.04275   0.67693   0.77282   0.00000  Uiso   1.00
O722   O     0.45726   0.82307   0.22718   0.00000  Uiso   1.00
O723   O     0.32307   0.54274   0.77282   0.00000  Uiso   1.00
O724   O     0.17693   0.95725   0.22718   0.00000  Uiso   1.00
O725   O     0.45726   0.67693   0.22718   0.00000  Uiso   1.00
O726   O     0.04275   0.82307   0.77282   0.00000  Uiso   1.00
O727   O     0.17693   0.54274   0.22718   0.00000  Uiso   1.00
O728   O     0.32307   0.95725   0.77282   0.00000  Uiso   1.00
O729   O     0.04275   0.82307   0.22718   0.00000  Uiso   1.00
O730   O     0.45726   0.67693   0.77282   0.00000  Uiso   1.00
O731   O     0.32307   0.95725   0.22718   0.00000  Uiso   1.00
O732   O     0.17693   0.54274   0.77282   0.00000  Uiso   1.00
C733   C     0.25000   0.50000   0.02131   0.00000  Uiso   1.00
C734   C     0.25000   0.50000   0.97869   0.00000  Uiso   1.00
C735   C    -0.00000   0.75000   0.02131   0.00000  Uiso   1.00
C736   C    -0.00000   0.75000   0.97869   0.00000  Uiso   1.00
C737   C    -0.00000   0.75000   0.52131   0.00000  Uiso   1.00
C738   C    -0.00000   0.75000   0.47869   0.00000  Uiso   1.00
C739   C     0.25000   0.50000   0.52131   0.00000  Uiso   1.00
C740   C     0.25000   0.50000   0.47869   0.00000  Uiso   1.00
C741   C     0.25000   0.50000   0.35519   0.00000  Uiso   1.00
C742   C     0.25000   0.50000   0.64481   0.00000  Uiso   1.00
C743   C    -0.00000   0.75000   0.35519   0.00000  Uiso   1.00
C744   C     0.00000   0.75000   0.64481   0.00000  Uiso   1.00
C745   C     0.00000   0.75000   0.85519   0.00000  Uiso   1.00
C746   C     0.00000   0.75000   0.14481   0.00000  Uiso   1.00
C747   C     0.25000   0.50000   0.85519   0.00000  Uiso   1.00
C748   C     0.25000   0.50000   0.14481   0.00000  Uiso   1.00
C749   C     0.17998   0.57003   0.25001   0.00000  Uiso   1.00
C750   C     0.32001   0.92996   0.75002   0.00000  Uiso   1.00
C751   C     0.42996   0.67999   0.24998   0.00000  Uiso   1.00
C752   C     0.07003   0.82002   0.74999   0.00000  Uiso   1.00
C753   C     0.32003   0.92998   0.25001   0.00000  Uiso   1.00
C754   C     0.17998   0.57003   0.75002   0.00000  Uiso   1.00
C755   C     0.07002   0.82002   0.24999   0.00000  Uiso   1.00
C756   C     0.42997   0.67998   0.75000   0.00000  Uiso   1.00
C757   C     0.17996   0.92999   0.74998   0.00000  Uiso   1.00
C758   C     0.32003   0.57002   0.24999   0.00000  Uiso   1.00
C759   C     0.42997   0.82002   0.75001   0.00000  Uiso   1.00
C760   C     0.07000   0.67995   0.25002   0.00000  Uiso   1.00
C761   C     0.32004   0.57001   0.74998   0.00000  Uiso   1.00
C762   C     0.17999   0.92996   0.24998   0.00000  Uiso   1.00
C763   C     0.07003   0.67998   0.75001   0.00000  Uiso   1.00
C764   C     0.42998   0.82003   0.25001   0.00000  Uiso   1.00
C765   C     0.13831   0.88867   0.21437   0.00000  Uiso   1.00
C766   C     0.36178   0.61122   0.78553   0.00000  Uiso   1.00
C767   C     0.11128   0.63828   0.21448   0.00000  Uiso   1.00
C768   C     0.38867   0.86168   0.78562   0.00000  Uiso   1.00
C769   C     0.36174   0.61127   0.21439   0.00000  Uiso   1.00
C770   C     0.13821   0.88878   0.78553   0.00000  Uiso   1.00
C771   C     0.38868   0.86170   0.21444   0.00000  Uiso   1.00
C772   C     0.11132   0.63831   0.78562   0.00000  Uiso   1.00
C773   C     0.13833   0.61136   0.78564   0.00000  Uiso   1.00
C774   C     0.36172   0.88869   0.21445   0.00000  Uiso   1.00
C775   C     0.11133   0.86170   0.78558   0.00000  Uiso   1.00
C776   C     0.38864   0.63833   0.21435   0.00000  Uiso   1.00
C777   C     0.36165   0.88863   0.78564   0.00000  Uiso   1.00
C778   C     0.13835   0.61139   0.21442   0.00000  Uiso   1.00
C779   C     0.38860   0.63835   0.78560   0.00000  Uiso   1.00
C780   C     0.11132   0.86169   0.21438   0.00000  Uiso   1.00
C781   C     0.38827   0.63874   0.71440   0.00000  Uiso   1.00
C782   C     0.11164   0.86139   0.28559   0.00000  Uiso   1.00
C783   C     0.36132   0.88830   0.71445   0.00000  Uiso   1.00
C784   C     0.13872   0.61172   0.28560   0.00000  Uiso   1.00
C785   C     0.11177   0.86123   0.71440   0.00000  Uiso   1.00
C786   C     0.38825   0.63873   0.28554   0.00000  Uiso   1.00
C787   C     0.13869   0.61170   0.71445   0.00000  Uiso   1.00
C788   C     0.36133   0.88832   0.28563   0.00000  Uiso   1.00
C789   C     0.38830   0.86132   0.28563   0.00000  Uiso   1.00
C790   C     0.11169   0.63865   0.71444   0.00000  Uiso   1.00
C791   C     0.36134   0.61169   0.28557   0.00000  Uiso   1.00
C792   C     0.13866   0.88832   0.71435   0.00000  Uiso   1.00
C793   C     0.11159   0.63856   0.28567   0.00000  Uiso   1.00
C794   C     0.38834   0.86136   0.71444   0.00000  Uiso   1.00
C795   C     0.13874   0.88824   0.28553   0.00000  Uiso   1.00
C796   C     0.36135   0.61169   0.71435   0.00000  Uiso   1.00
H797   H     0.20269   0.96515   0.09782   0.00000  Uiso   1.00
H798   H     0.29732   0.96516   0.90218   0.00000  Uiso   1.00
H799   H     0.46516   0.70268   0.09781   0.00000  Uiso   1.00
H800   H     0.46515   0.79732   0.90220   0.00000  Uiso   1.00
H801   H     0.29732   0.53484   0.09780   0.00000  Uiso   1.00
H802   H     0.20267   0.53484   0.90220   0.00000  Uiso   1.00
H803   H     0.03484   0.79732   0.09781   0.00000  Uiso   1.00
H804   H     0.03485   0.70269   0.90219   0.00000  Uiso   1.00
H805   H     0.45267   0.71517   0.59782   0.00000  Uiso   1.00
H806   H     0.04730   0.71513   0.40218   0.00000  Uiso   1.00
H807   H     0.21514   0.95269   0.59781   0.00000  Uiso   1.00
H808   H     0.21517   0.54733   0.40220   0.00000  Uiso   1.00
H809   H     0.04734   0.78482   0.59780   0.00000  Uiso   1.00
H810   H     0.45269   0.78486   0.40220   0.00000  Uiso   1.00
H811   H     0.28486   0.54731   0.59781   0.00000  Uiso   1.00
H812   H     0.28483   0.95267   0.40219   0.00000  Uiso   1.00
C813   C     0.09807   0.84813   0.24999   0.00000  Uiso   1.00
C814   C     0.40183   0.65196   0.75001   0.00000  Uiso   1.00
C815   C     0.15196   0.59817   0.25000   0.00000  Uiso   1.00
C816   C     0.34807   0.90186   0.75004   0.00000  Uiso   1.00
C817   C     0.40184   0.65195   0.24995   0.00000  Uiso   1.00
C818   C     0.09816   0.84805   0.75000   0.00000  Uiso   1.00
C819   C     0.34813   0.90192   0.25004   0.00000  Uiso   1.00
C820   C     0.15192   0.59813   0.75004   0.00000  Uiso   1.00
C821   C     0.09810   0.65189   0.75002   0.00000  Uiso   1.00
C822   C     0.40190   0.84810   0.25003   0.00000  Uiso   1.00
C823   C     0.15182   0.90197   0.74994   0.00000  Uiso   1.00
C824   C     0.34814   0.59807   0.24999   0.00000  Uiso   1.00
C825   C     0.40191   0.84812   0.75002   0.00000  Uiso   1.00
C826   C     0.09801   0.65181   0.25007   0.00000  Uiso   1.00
C827   C     0.34819   0.59802   0.74994   0.00000  Uiso   1.00
C828   C     0.15195   0.90184   0.24995   0.00000  Uiso   1.00
C829   C     0.25001   0.50000   0.10247   0.00000  Uiso   1.00
C830   C     0.25000   0.50000   0.89753   0.00000  Uiso   1.00
C831   C     0.00000   0.75000   0.10247   0.00000  Uiso   1.00
C832   C     0.00000   0.75000   0.89753   0.00000  Uiso   1.00
C833   C     0.00000   0.75000   0.60247   0.00000  Uiso   1.00
C834   C    -0.00000   0.75000   0.39753   0.00000  Uiso   1.00
C835   C     0.25000   0.50000   0.60247   0.00000  Uiso   1.00
C836   C     0.25000   0.50000   0.39753   0.00000  Uiso   1.00
Cl837  Cl    0.19045   0.95335   0.01763   0.00000  Uiso   1.00
Cl838  Cl    0.30956   0.95335   0.98237   0.00000  Uiso   1.00
Cl839  Cl    0.45335   0.69045   0.01763   0.00000  Uiso   1.00
Cl840  Cl    0.45335   0.80955   0.98239   0.00000  Uiso   1.00
Cl841  Cl    0.30955   0.54664   0.01761   0.00000  Uiso   1.00
Cl842  Cl    0.19044   0.54664   0.98239   0.00000  Uiso   1.00
Cl843  Cl    0.04665   0.80955   0.01762   0.00000  Uiso   1.00
Cl844  Cl    0.04665   0.69045   0.98237   0.00000  Uiso   1.00
Cl845  Cl    0.44043   0.70337   0.51763   0.00000  Uiso   1.00
Cl846  Cl    0.05953   0.70333   0.48237   0.00000  Uiso   1.00
Cl847  Cl    0.20334   0.94046   0.51763   0.00000  Uiso   1.00
Cl848  Cl    0.20337   0.55956   0.48239   0.00000  Uiso   1.00
Cl849  Cl    0.05957   0.79662   0.51761   0.00000  Uiso   1.00
Cl850  Cl    0.44046   0.79667   0.48239   0.00000  Uiso   1.00
Cl851  Cl    0.29667   0.55954   0.51762   0.00000  Uiso   1.00
Cl852  Cl    0.29663   0.94044   0.48237   0.00000  Uiso   1.00
N853   N     0.15376   0.90067   0.17825   0.00000  Uiso   1.00
O854   O     0.18828   0.89565   0.17120   0.00000  Uiso   1.00
O855   O     0.13415   0.91937   0.15388   0.00000  Uiso   1.00
N856   N     0.34641   0.59908   0.82159   0.00000  Uiso   1.00
O857   O     0.31226   0.60548   0.82937   0.00000  Uiso   1.00
O858   O     0.36525   0.57814   0.84455   0.00000  Uiso   1.00
N859   N     0.09928   0.65375   0.17840   0.00000  Uiso   1.00
O860   O     0.10496   0.68812   0.17109   0.00000  Uiso   1.00
O861   O     0.07957   0.63451   0.15459   0.00000  Uiso   1.00
N862   N     0.40066   0.84620   0.82171   0.00000  Uiso   1.00
O863   O     0.39545   0.81172   0.82881   0.00000  Uiso   1.00
O864   O     0.41968   0.86568   0.84593   0.00000  Uiso   1.00
N865   N     0.34631   0.59921   0.17830   0.00000  Uiso   1.00
O866   O     0.31192   0.60474   0.17099   0.00000  Uiso   1.00
O867   O     0.36565   0.57963   0.15446   0.00000  Uiso   1.00
N868   N     0.15361   0.90085   0.82162   0.00000  Uiso   1.00
O869   O     0.18795   0.89513   0.82905   0.00000  Uiso   1.00
O870   O     0.13435   0.92069   0.84529   0.00000  Uiso   1.00
N871   N     0.40062   0.84620   0.17833   0.00000  Uiso   1.00
O872   O     0.39572   0.81165   0.17140   0.00000  Uiso   1.00
O873   O     0.41893   0.86589   0.15369   0.00000  Uiso   1.00
N874   N     0.09932   0.65380   0.82172   0.00000  Uiso   1.00
O875   O     0.10450   0.68828   0.82880   0.00000  Uiso   1.00
O876   O     0.08036   0.63430   0.84597   0.00000  Uiso   1.00
N877   N     0.15383   0.59942   0.82176   0.00000  Uiso   1.00
O878   O     0.18844   0.60409   0.82858   0.00000  Uiso   1.00
O879   O     0.13405   0.58142   0.84657   0.00000  Uiso   1.00
N880   N     0.34624   0.90066   0.17834   0.00000  Uiso   1.00
O881   O     0.31174   0.89554   0.17129   0.00000  Uiso   1.00
O882   O     0.36582   0.91938   0.15395   0.00000  Uiso   1.00
N883   N     0.09941   0.84622   0.82172   0.00000  Uiso   1.00
O884   O     0.10377   0.81155   0.82843   0.00000  Uiso   1.00
O885   O     0.08218   0.86622   0.84695   0.00000  Uiso   1.00
N886   N     0.40058   0.65382   0.17822   0.00000  Uiso   1.00
O887   O     0.39619   0.68849   0.17150   0.00000  Uiso   1.00
O888   O     0.41802   0.63388   0.15310   0.00000  Uiso   1.00
N889   N     0.34613   0.90056   0.82176   0.00000  Uiso   1.00
O890   O     0.31151   0.89593   0.82855   0.00000  Uiso   1.00
O891   O     0.36592   0.91846   0.84664   0.00000  Uiso   1.00
N892   N     0.15389   0.59952   0.17829   0.00000  Uiso   1.00
O893   O     0.18856   0.60390   0.17163   0.00000  Uiso   1.00
O894   O     0.13394   0.58223   0.15305   0.00000  Uiso   1.00
N895   N     0.40044   0.65390   0.82176   0.00000  Uiso   1.00
O896   O     0.39665   0.68869   0.82815   0.00000  Uiso   1.00
O897   O     0.41642   0.63365   0.84768   0.00000  Uiso   1.00
N898   N     0.09935   0.84619   0.17828   0.00000  Uiso   1.00
O899   O     0.10421   0.81162   0.17136   0.00000  Uiso   1.00
O900   O     0.08105   0.86588   0.15364   0.00000  Uiso   1.00
N901   N     0.40371   0.65080   0.67831   0.00000  Uiso   1.00
O902   O     0.43813   0.64537   0.67106   0.00000  Uiso   1.00
O903   O     0.38431   0.67017   0.65434   0.00000  Uiso   1.00
N904   N     0.09607   0.84956   0.32173   0.00000  Uiso   1.00
O905   O     0.06131   0.85353   0.32818   0.00000  Uiso   1.00
O906   O     0.11621   0.83318   0.34747   0.00000  Uiso   1.00
N907   N     0.34936   0.90379   0.67836   0.00000  Uiso   1.00
O908   O     0.35464   0.93826   0.67126   0.00000  Uiso   1.00
O909   O     0.33034   0.88433   0.65413   0.00000  Uiso   1.00
N910   N     0.15082   0.59629   0.32166   0.00000  Uiso   1.00
O911   O     0.14462   0.56208   0.32928   0.00000  Uiso   1.00
O912   O     0.17151   0.61520   0.34482   0.00000  Uiso   1.00
N913   N     0.09638   0.84913   0.67831   0.00000  Uiso   1.00
O914   O     0.06205   0.85482   0.67087   0.00000  Uiso   1.00
O915   O     0.11564   0.82924   0.65469   0.00000  Uiso   1.00
N916   N     0.40370   0.65075   0.32163   0.00000  Uiso   1.00
O917   O     0.43811   0.64527   0.32888   0.00000  Uiso   1.00
O918   O     0.38432   0.67013   0.34561   0.00000  Uiso   1.00
N919   N     0.15066   0.59621   0.67836   0.00000  Uiso   1.00
O920   O     0.14542   0.56173   0.67127   0.00000  Uiso   1.00
O921   O     0.16959   0.61570   0.65407   0.00000  Uiso   1.00
N922   N     0.34936   0.90380   0.32175   0.00000  Uiso   1.00
O923   O     0.35419   0.93837   0.32867   0.00000  Uiso   1.00
O924   O     0.33104   0.88410   0.34637   0.00000  Uiso   1.00
N925   N     0.40377   0.84932   0.32173   0.00000  Uiso   1.00
O926   O     0.43829   0.85435   0.32876   0.00000  Uiso   1.00
O927   O     0.38416   0.83065   0.34614   0.00000  Uiso   1.00
N928   N     0.09618   0.65057   0.67832   0.00000  Uiso   1.00
O929   O     0.06159   0.64579   0.67146   0.00000  Uiso   1.00
O930   O     0.11592   0.66864   0.65353   0.00000  Uiso   1.00
N931   N     0.34943   0.59618   0.32170   0.00000  Uiso   1.00
O932   O     0.35399   0.56155   0.32847   0.00000  Uiso   1.00
O933   O     0.33178   0.61605   0.34672   0.00000  Uiso   1.00
N934   N     0.15061   0.90378   0.67820   0.00000  Uiso   1.00
O935   O     0.14638   0.93846   0.67151   0.00000  Uiso   1.00
O936   O     0.16777   0.88373   0.65295   0.00000  Uiso   1.00
N937   N     0.09602   0.65039   0.32182   0.00000  Uiso   1.00
O938   O     0.06122   0.64662   0.32818   0.00000  Uiso   1.00
O939   O     0.11621   0.66652   0.34769   0.00000  Uiso   1.00
N940   N     0.40387   0.84945   0.67832   0.00000  Uiso   1.00
O941   O     0.43847   0.85417   0.67150   0.00000  Uiso   1.00
O942   O     0.38410   0.83150   0.65345   0.00000  Uiso   1.00
N943   N     0.15082   0.90365   0.32161   0.00000  Uiso   1.00
O944   O     0.14468   0.93787   0.32922   0.00000  Uiso   1.00
O945   O     0.17137   0.88467   0.34484   0.00000  Uiso   1.00
N946   N     0.34939   0.59624   0.67822   0.00000  Uiso   1.00
O947   O     0.35389   0.56161   0.67140   0.00000  Uiso   1.00
O948   O     0.33170   0.61615   0.65327   0.00000  Uiso   1.00
Zn949  Zn    0.70660   0.50000   0.21760   0.00000  Uiso   1.00
Zn950  Zn    0.79340   0.50000   0.78240   0.00000  Uiso   1.00
Zn951  Zn    0.50000   0.70660   0.21760   0.00000  Uiso   1.00
Zn952  Zn    0.50000   0.79340   0.78240   0.00000  Uiso   1.00
Zn953  Zn    0.79340   0.50000   0.21760   0.00000  Uiso   1.00
Zn954  Zn    0.70660   0.50000   0.78240   0.00000  Uiso   1.00
Zn955  Zn    0.50000   0.79340   0.21760   0.00000  Uiso   1.00
Zn956  Zn    0.50000   0.70660   0.78240   0.00000  Uiso   1.00
Zn957  Zn    0.95660   0.75000   0.71760   0.00000  Uiso   1.00
Zn958  Zn    0.54340   0.75000   0.28240   0.00000  Uiso   1.00
Zn959  Zn    0.75000   0.95660   0.71760   0.00000  Uiso   1.00
Zn960  Zn    0.75000   0.54340   0.28240   0.00000  Uiso   1.00
Zn961  Zn    0.54340   0.75000   0.71760   0.00000  Uiso   1.00
Zn962  Zn    0.95660   0.75000   0.28240   0.00000  Uiso   1.00
Zn963  Zn    0.75000   0.54340   0.71760   0.00000  Uiso   1.00
Zn964  Zn    0.75000   0.95660   0.28240   0.00000  Uiso   1.00
C965   C     0.72343   0.97997   0.04177   0.00000  Uiso   1.00
C966   C     0.77657   0.97997   0.95823   0.00000  Uiso   1.00
C967   C     0.97997   0.72343   0.04177   0.00000  Uiso   1.00
C968   C     0.97997   0.77657   0.95824   0.00000  Uiso   1.00
C969   C     0.77658   0.52002   0.04176   0.00000  Uiso   1.00
C970   C     0.72342   0.52002   0.95824   0.00000  Uiso   1.00
C971   C     0.52003   0.77657   0.04177   0.00000  Uiso   1.00
C972   C     0.52003   0.72343   0.95823   0.00000  Uiso   1.00
C973   C     0.97342   0.72998   0.54177   0.00000  Uiso   1.00
C974   C     0.52656   0.72996   0.45823   0.00000  Uiso   1.00
C975   C     0.72997   0.97343   0.54177   0.00000  Uiso   1.00
C976   C     0.72998   0.52658   0.45824   0.00000  Uiso   1.00
C977   C     0.52658   0.77001   0.54176   0.00000  Uiso   1.00
C978   C     0.97343   0.77003   0.45824   0.00000  Uiso   1.00
C979   C     0.77004   0.52656   0.54177   0.00000  Uiso   1.00
C980   C     0.77002   0.97342   0.45823   0.00000  Uiso   1.00
C981   C     0.72324   0.98054   0.08220   0.00000  Uiso   1.00
C982   C     0.77677   0.98054   0.91780   0.00000  Uiso   1.00
C983   C     0.98055   0.72323   0.08220   0.00000  Uiso   1.00
C984   C     0.98054   0.77677   0.91781   0.00000  Uiso   1.00
C985   C     0.77677   0.51945   0.08219   0.00000  Uiso   1.00
C986   C     0.72323   0.51945   0.91781   0.00000  Uiso   1.00
C987   C     0.51945   0.77677   0.08219   0.00000  Uiso   1.00
C988   C     0.51946   0.72324   0.91780   0.00000  Uiso   1.00
C989   C     0.97323   0.73055   0.58220   0.00000  Uiso   1.00
C990   C     0.52676   0.73053   0.41780   0.00000  Uiso   1.00
C991   C     0.73054   0.97324   0.58220   0.00000  Uiso   1.00
C992   C     0.73055   0.52677   0.41781   0.00000  Uiso   1.00
C993   C     0.52678   0.76944   0.58219   0.00000  Uiso   1.00
C994   C     0.97323   0.76946   0.41781   0.00000  Uiso   1.00
C995   C     0.76946   0.52676   0.58220   0.00000  Uiso   1.00
C996   C     0.76945   0.97323   0.41780   0.00000  Uiso   1.00
O997   O     0.75000   0.50000   0.25000   0.00000  Uiso   1.00
O998   O     0.75000   0.50000   0.75000   0.00000  Uiso   1.00
O999   O     0.50000   0.75000   0.25000   0.00000  Uiso   1.00
O1000  O     0.50000   0.75000   0.75000   0.00000  Uiso   1.00
O1001  O     0.75000   0.96964   0.33683   0.00000  Uiso   1.00
O1002  O     0.75000   0.53036   0.66317   0.00000  Uiso   1.00
O1003  O     0.53036   0.75000   0.33683   0.00000  Uiso   1.00
O1004  O     0.96964   0.75000   0.66317   0.00000  Uiso   1.00
O1005  O     0.75000   0.53036   0.33683   0.00000  Uiso   1.00
O1006  O     0.75000   0.96964   0.66317   0.00000  Uiso   1.00
O1007  O     0.96964   0.75000   0.33683   0.00000  Uiso   1.00
O1008  O     0.53036   0.75000   0.66317   0.00000  Uiso   1.00
O1009  O     0.50000   0.71964   0.83683   0.00000  Uiso   1.00
O1010  O     0.50000   0.78036   0.16317   0.00000  Uiso   1.00
O1011  O     0.78036   0.50000   0.83683   0.00000  Uiso   1.00
O1012  O     0.71964   0.50000   0.16317   0.00000  Uiso   1.00
O1013  O     0.50000   0.78036   0.83683   0.00000  Uiso   1.00
O1014  O     0.50000   0.71964   0.16317   0.00000  Uiso   1.00
O1015  O     0.71964   0.50000   0.83683   0.00000  Uiso   1.00
O1016  O     0.78036   0.50000   0.16317   0.00000  Uiso   1.00
O1017  O     0.70726   0.57307   0.27282   0.00000  Uiso   1.00
O1018  O     0.79275   0.92693   0.72718   0.00000  Uiso   1.00
O1019  O     0.92693   0.70725   0.27282   0.00000  Uiso   1.00
O1020  O     0.57307   0.79274   0.72718   0.00000  Uiso   1.00
O1021  O     0.79275   0.92693   0.27282   0.00000  Uiso   1.00
O1022  O     0.70726   0.57307   0.72718   0.00000  Uiso   1.00
O1023  O     0.57307   0.79274   0.27282   0.00000  Uiso   1.00
O1024  O     0.92693   0.70725   0.72718   0.00000  Uiso   1.00
O1025  O     0.70726   0.92693   0.72718   0.00000  Uiso   1.00
O1026  O     0.79275   0.57307   0.27282   0.00000  Uiso   1.00
O1027  O     0.92693   0.79274   0.72718   0.00000  Uiso   1.00
O1028  O     0.57307   0.70725   0.27282   0.00000  Uiso   1.00
O1029  O     0.79275   0.57307   0.72718   0.00000  Uiso   1.00
O1030  O     0.70726   0.92693   0.27282   0.00000  Uiso   1.00
O1031  O     0.57307   0.70725   0.72718   0.00000  Uiso   1.00
O1032  O     0.92693   0.79274   0.27282   0.00000  Uiso   1.00
O1033  O     0.95726   0.82307   0.77282   0.00000  Uiso   1.00
O1034  O     0.54275   0.67693   0.22718   0.00000  Uiso   1.00
O1035  O     0.67693   0.95725   0.77282   0.00000  Uiso   1.00
O1036  O     0.82307   0.54274   0.22718   0.00000  Uiso   1.00
O1037  O     0.54275   0.67693   0.77282   0.00000  Uiso   1.00
O1038  O     0.95726   0.82307   0.22718   0.00000  Uiso   1.00
O1039  O     0.82307   0.54274   0.77282   0.00000  Uiso   1.00
O1040  O     0.67693   0.95725   0.22718   0.00000  Uiso   1.00
O1041  O     0.95726   0.67693   0.22718   0.00000  Uiso   1.00
O1042  O     0.54275   0.82307   0.77282   0.00000  Uiso   1.00
O1043  O     0.67693   0.54274   0.22718   0.00000  Uiso   1.00
O1044  O     0.82307   0.95725   0.77282   0.00000  Uiso   1.00
O1045  O     0.54275   0.82307   0.22718   0.00000  Uiso   1.00
O1046  O     0.95726   0.67693   0.77282   0.00000  Uiso   1.00
O1047  O     0.82307   0.95725   0.22718   0.00000  Uiso   1.00
O1048  O     0.67693   0.54274   0.77282   0.00000  Uiso   1.00
C1049  C     0.75000   0.50000   0.02131   0.00000  Uiso   1.00
C1050  C     0.75000   0.50000   0.97869   0.00000  Uiso   1.00
C1051  C     0.50000   0.75000   0.02131   0.00000  Uiso   1.00
C1052  C     0.50000   0.75000   0.97869   0.00000  Uiso   1.00
C1053  C     0.50000   0.75000   0.52131   0.00000  Uiso   1.00
C1054  C     0.50000   0.75000   0.47869   0.00000  Uiso   1.00
C1055  C     0.75000   0.50000   0.52131   0.00000  Uiso   1.00
C1056  C     0.75000   0.50000   0.47869   0.00000  Uiso   1.00
C1057  C     0.75000   0.50000   0.35519   0.00000  Uiso   1.00
C1058  C     0.75000   0.50000   0.64481   0.00000  Uiso   1.00
C1059  C     0.50000   0.75000   0.35519   0.00000  Uiso   1.00
C1060  C     0.50000   0.75000   0.64481   0.00000  Uiso   1.00
C1061  C     0.50000   0.75000   0.85519   0.00000  Uiso   1.00
C1062  C     0.50000   0.75000   0.14481   0.00000  Uiso   1.00
C1063  C     0.75000   0.50000   0.85519   0.00000  Uiso   1.00
C1064  C     0.75000   0.50000   0.14481   0.00000  Uiso   1.00
C1065  C     0.67998   0.57003   0.25001   0.00000  Uiso   1.00
C1066  C     0.82001   0.92996   0.75002   0.00000  Uiso   1.00
C1067  C     0.92996   0.67999   0.24998   0.00000  Uiso   1.00
C1068  C     0.57003   0.82002   0.74999   0.00000  Uiso   1.00
C1069  C     0.82003   0.92998   0.25001   0.00000  Uiso   1.00
C1070  C     0.67998   0.57003   0.75002   0.00000  Uiso   1.00
C1071  C     0.57002   0.82002   0.24999   0.00000  Uiso   1.00
C1072  C     0.92997   0.67998   0.75000   0.00000  Uiso   1.00
C1073  C     0.67996   0.92999   0.74998   0.00000  Uiso   1.00
C1074  C     0.82003   0.57002   0.24999   0.00000  Uiso   1.00
C1075  C     0.92997   0.82002   0.75001   0.00000  Uiso   1.00
C1076  C     0.57000   0.67995   0.25002   0.00000  Uiso   1.00
C1077  C     0.82004   0.57001   0.74998   0.00000  Uiso   1.00
C1078  C     0.67999   0.92996   0.24998   0.00000  Uiso   1.00
C1079  C     0.57003   0.67998   0.75001   0.00000  Uiso   1.00
C1080  C     0.92998   0.82003   0.25001   0.00000  Uiso   1.00
C1081  C     0.63831   0.88867   0.21437   0.00000  Uiso   1.00
C1082  C     0.86178   0.61122   0.78553   0.00000  Uiso   1.00
C1083  C     0.61128   0.63828   0.21448   0.00000  Uiso   1.00
C1084  C     0.88867   0.86168   0.78562   0.00000  Uiso   1.00
C1085  C     0.86174   0.61127   0.21439   0.00000  Uiso   1.00
C1086  C     0.63821   0.88878   0.78553   0.00000  Uiso   1.00
C1087  C     0.88868   0.86170   0.21444   0.00000  Uiso   1.00
C1088  C     0.61132   0.63831   0.78562   0.00000  Uiso   1.00
C1089  C     0.63833   0.61136   0.78564   0.00000  Uiso   1.00
C1090  C     0.86172   0.88869   0.21445   0.00000  Uiso   1.00
C1091  C     0.61133   0.86170   0.78558   0.00000  Uiso   1.00
C1092  C     0.88864   0.63833   0.21435   0.00000  Uiso   1.00
C1093  C     0.86165   0.88863   0.78564   0.00000  Uiso   1.00
C1094  C     0.63835   0.61139   0.21442   0.00000  Uiso   1.00
C1095  C     0.88860   0.63835   0.78560   0.00000  Uiso   1.00
C1096  C     0.61132   0.86169   0.21438   0.00000  Uiso   1.00
C1097  C     0.88827   0.63874   0.71440   0.00000  Uiso   1.00
C1098  C     0.61164   0.86139   0.28559   0.00000  Uiso   1.00
C1099  C     0.86132   0.88830   0.71445   0.00000  Uiso   1.00
C1100  C     0.63872   0.61172   0.28560   0.00000  Uiso   1.00
C1101  C     0.61177   0.86123   0.71440   0.00000  Uiso   1.00
C1102  C     0.88825   0.63873   0.28554   0.00000  Uiso   1.00
C1103  C     0.63869   0.61170   0.71445   0.00000  Uiso   1.00
C1104  C     0.86133   0.88832   0.28563   0.00000  Uiso   1.00
C1105  C     0.88830   0.86132   0.28563   0.00000  Uiso   1.00
C1106  C     0.61169   0.63865   0.71444   0.00000  Uiso   1.00
C1107  C     0.86134   0.61169   0.28557   0.00000  Uiso   1.00
C1108  C     0.63866   0.88832   0.71435   0.00000  Uiso   1.00
C1109  C     0.61159   0.63856   0.28567   0.00000  Uiso   1.00
C1110  C     0.88834   0.86136   0.71444   0.00000  Uiso   1.00
C1111  C     0.63874   0.88824   0.28553   0.00000  Uiso   1.00
C1112  C     0.86135   0.61169   0.71435   0.00000  Uiso   1.00
H1113  H     0.70269   0.96515   0.09782   0.00000  Uiso   1.00
H1114  H     0.79732   0.96516   0.90218   0.00000  Uiso   1.00
H1115  H     0.96516   0.70268   0.09781   0.00000  Uiso   1.00
H1116  H     0.96515   0.79732   0.90220   0.00000  Uiso   1.00
H1117  H     0.79732   0.53484   0.09780   0.00000  Uiso   1.00
H1118  H     0.70267   0.53484   0.90220   0.00000  Uiso   1.00
H1119  H     0.53484   0.79732   0.09781   0.00000  Uiso   1.00
H1120  H     0.53485   0.70269   0.90219   0.00000  Uiso   1.00
H1121  H     0.95267   0.71517   0.59782   0.00000  Uiso   1.00
H1122  H     0.54730   0.71513   0.40218   0.00000  Uiso   1.00
H1123  H     0.71514   0.95269   0.59781   0.00000  Uiso   1.00
H1124  H     0.71517   0.54733   0.40220   0.00000  Uiso   1.00
H1125  H     0.54734   0.78482   0.59780   0.00000  Uiso   1.00
H1126  H     0.95269   0.78486   0.40220   0.00000  Uiso   1.00
H1127  H     0.78486   0.54731   0.59781   0.00000  Uiso   1.00
H1128  H     0.78483   0.95267   0.40219   0.00000  Uiso   1.00
C1129  C     0.59807   0.84813   0.24999   0.00000  Uiso   1.00
C1130  C     0.90183   0.65196   0.75001   0.00000  Uiso   1.00
C1131  C     0.65196   0.59817   0.25000   0.00000  Uiso   1.00
C1132  C     0.84807   0.90186   0.75004   0.00000  Uiso   1.00
C1133  C     0.90184   0.65195   0.24995   0.00000  Uiso   1.00
C1134  C     0.59816   0.84805   0.75000   0.00000  Uiso   1.00
C1135  C     0.84813   0.90192   0.25004   0.00000  Uiso   1.00
C1136  C     0.65192   0.59813   0.75004   0.00000  Uiso   1.00
C1137  C     0.59810   0.65189   0.75002   0.00000  Uiso   1.00
C1138  C     0.90190   0.84810   0.25003   0.00000  Uiso   1.00
C1139  C     0.65182   0.90197   0.74994   0.00000  Uiso   1.00
C1140  C     0.84814   0.59807   0.24999   0.00000  Uiso   1.00
C1141  C     0.90191   0.84812   0.75002   0.00000  Uiso   1.00
C1142  C     0.59801   0.65181   0.25007   0.00000  Uiso   1.00
C1143  C     0.84819   0.59802   0.74994   0.00000  Uiso   1.00
C1144  C     0.65195   0.90184   0.24995   0.00000  Uiso   1.00
C1145  C     0.75001   0.50000   0.10247   0.00000  Uiso   1.00
C1146  C     0.75000   0.50000   0.89753   0.00000  Uiso   1.00
C1147  C     0.50000   0.75000   0.10247   0.00000  Uiso   1.00
C1148  C     0.50000   0.75000   0.89753   0.00000  Uiso   1.00
C1149  C     0.50000   0.75000   0.60247   0.00000  Uiso   1.00
C1150  C     0.50000   0.75000   0.39753   0.00000  Uiso   1.00
C1151  C     0.75000   0.50000   0.60247   0.00000  Uiso   1.00
C1152  C     0.75000   0.50000   0.39753   0.00000  Uiso   1.00
Cl1153 Cl    0.69045   0.95335   0.01763   0.00000  Uiso   1.00
Cl1154 Cl    0.80956   0.95335   0.98237   0.00000  Uiso   1.00
Cl1155 Cl    0.95335   0.69045   0.01763   0.00000  Uiso   1.00
Cl1156 Cl    0.95335   0.80955   0.98239   0.00000  Uiso   1.00
Cl1157 Cl    0.80955   0.54664   0.01761   0.00000  Uiso   1.00
Cl1158 Cl    0.69044   0.54664   0.98239   0.00000  Uiso   1.00
Cl1159 Cl    0.54665   0.80955   0.01762   0.00000  Uiso   1.00
Cl1160 Cl    0.54665   0.69045   0.98237   0.00000  Uiso   1.00
Cl1161 Cl    0.94043   0.70337   0.51763   0.00000  Uiso   1.00
Cl1162 Cl    0.55953   0.70333   0.48237   0.00000  Uiso   1.00
Cl1163 Cl    0.70334   0.94046   0.51763   0.00000  Uiso   1.00
Cl1164 Cl    0.70337   0.55956   0.48239   0.00000  Uiso   1.00
Cl1165 Cl    0.55957   0.79662   0.51761   0.00000  Uiso   1.00
Cl1166 Cl    0.94046   0.79667   0.48239   0.00000  Uiso   1.00
Cl1167 Cl    0.79667   0.55954   0.51762   0.00000  Uiso   1.00
Cl1168 Cl    0.79663   0.94044   0.48237   0.00000  Uiso   1.00
N1169  N     0.65376   0.90067   0.17825   0.00000  Uiso   1.00
O1170  O     0.68828   0.89565   0.17120   0.00000  Uiso   1.00
O1171  O     0.63415   0.91937   0.15388   0.00000  Uiso   1.00
N1172  N     0.84641   0.59908   0.82159   0.00000  Uiso   1.00
O1173  O     0.81226   0.60548   0.82937   0.00000  Uiso   1.00
O1174  O     0.86525   0.57814   0.84455   0.00000  Uiso   1.00
N1175  N     0.59928   0.65375   0.17840   0.00000  Uiso   1.00
O1176  O     0.60496   0.68812   0.17109   0.00000  Uiso   1.00
O1177  O     0.57957   0.63451   0.15459   0.00000  Uiso   1.00
N1178  N     0.90066   0.84620   0.82171   0.00000  Uiso   1.00
O1179  O     0.89545   0.81172   0.82881   0.00000  Uiso   1.00
O1180  O     0.91968   0.86568   0.84593   0.00000  Uiso   1.00
N1181  N     0.84631   0.59921   0.17830   0.00000  Uiso   1.00
O1182  O     0.81192   0.60474   0.17099   0.00000  Uiso   1.00
O1183  O     0.86565   0.57963   0.15446   0.00000  Uiso   1.00
N1184  N     0.65361   0.90085   0.82162   0.00000  Uiso   1.00
O1185  O     0.68795   0.89513   0.82905   0.00000  Uiso   1.00
O1186  O     0.63435   0.92069   0.84529   0.00000  Uiso   1.00
N1187  N     0.90062   0.84620   0.17833   0.00000  Uiso   1.00
O1188  O     0.89572   0.81165   0.17140   0.00000  Uiso   1.00
O1189  O     0.91893   0.86589   0.15369   0.00000  Uiso   1.00
N1190  N     0.59932   0.65380   0.82172   0.00000  Uiso   1.00
O1191  O     0.60450   0.68828   0.82880   0.00000  Uiso   1.00
O1192  O     0.58036   0.63430   0.84597   0.00000  Uiso   1.00
N1193  N     0.65383   0.59942   0.82176   0.00000  Uiso   1.00
O1194  O     0.68844   0.60409   0.82858   0.00000  Uiso   1.00
O1195  O     0.63405   0.58142   0.84657   0.00000  Uiso   1.00
N1196  N     0.84624   0.90066   0.17834   0.00000  Uiso   1.00
O1197  O     0.81174   0.89554   0.17129   0.00000  Uiso   1.00
O1198  O     0.86582   0.91938   0.15395   0.00000  Uiso   1.00
N1199  N     0.59941   0.84622   0.82172   0.00000  Uiso   1.00
O1200  O     0.60377   0.81155   0.82843   0.00000  Uiso   1.00
O1201  O     0.58218   0.86622   0.84695   0.00000  Uiso   1.00
N1202  N     0.90058   0.65382   0.17822   0.00000  Uiso   1.00
O1203  O     0.89619   0.68849   0.17150   0.00000  Uiso   1.00
O1204  O     0.91802   0.63388   0.15310   0.00000  Uiso   1.00
N1205  N     0.84613   0.90056   0.82176   0.00000  Uiso   1.00
O1206  O     0.81151   0.89593   0.82855   0.00000  Uiso   1.00
O1207  O     0.86592   0.91846   0.84664   0.00000  Uiso   1.00
N1208  N     0.65389   0.59952   0.17829   0.00000  Uiso   1.00
O1209  O     0.68856   0.60390   0.17163   0.00000  Uiso   1.00
O1210  O     0.63394   0.58223   0.15305   0.00000  Uiso   1.00
N1211  N     0.90044   0.65390   0.82176   0.00000  Uiso   1.00
O1212  O     0.89665   0.68869   0.82815   0.00000  Uiso   1.00
O1213  O     0.91642   0.63365   0.84768   0.00000  Uiso   1.00
N1214  N     0.59935   0.84619   0.17828   0.00000  Uiso   1.00
O1215  O     0.60421   0.81162   0.17136   0.00000  Uiso   1.00
O1216  O     0.58105   0.86588   0.15364   0.00000  Uiso   1.00
N1217  N     0.90371   0.65080   0.67831   0.00000  Uiso   1.00
O1218  O     0.93813   0.64537   0.67106   0.00000  Uiso   1.00
O1219  O     0.88431   0.67017   0.65434   0.00000  Uiso   1.00
N1220  N     0.59607   0.84956   0.32173   0.00000  Uiso   1.00
O1221  O     0.56131   0.85353   0.32818   0.00000  Uiso   1.00
O1222  O     0.61621   0.83318   0.34747   0.00000  Uiso   1.00
N1223  N     0.84936   0.90379   0.67836   0.00000  Uiso   1.00
O1224  O     0.85464   0.93826   0.67126   0.00000  Uiso   1.00
O1225  O     0.83034   0.88433   0.65413   0.00000  Uiso   1.00
N1226  N     0.65082   0.59629   0.32166   0.00000  Uiso   1.00
O1227  O     0.64462   0.56208   0.32928   0.00000  Uiso   1.00
O1228  O     0.67151   0.61520   0.34482   0.00000  Uiso   1.00
N1229  N     0.59638   0.84913   0.67831   0.00000  Uiso   1.00
O1230  O     0.56205   0.85482   0.67087   0.00000  Uiso   1.00
O1231  O     0.61564   0.82924   0.65469   0.00000  Uiso   1.00
N1232  N     0.90370   0.65075   0.32163   0.00000  Uiso   1.00
O1233  O     0.93811   0.64527   0.32888   0.00000  Uiso   1.00
O1234  O     0.88432   0.67013   0.34561   0.00000  Uiso   1.00
N1235  N     0.65066   0.59621   0.67836   0.00000  Uiso   1.00
O1236  O     0.64542   0.56173   0.67127   0.00000  Uiso   1.00
O1237  O     0.66959   0.61570   0.65407   0.00000  Uiso   1.00
N1238  N     0.84936   0.90380   0.32175   0.00000  Uiso   1.00
O1239  O     0.85419   0.93837   0.32867   0.00000  Uiso   1.00
O1240  O     0.83104   0.88410   0.34637   0.00000  Uiso   1.00
N1241  N     0.90377   0.84932   0.32173   0.00000  Uiso   1.00
O1242  O     0.93829   0.85435   0.32876   0.00000  Uiso   1.00
O1243  O     0.88416   0.83065   0.34614   0.00000  Uiso   1.00
N1244  N     0.59618   0.65057   0.67832   0.00000  Uiso   1.00
O1245  O     0.56159   0.64579   0.67146   0.00000  Uiso   1.00
O1246  O     0.61592   0.66864   0.65353   0.00000  Uiso   1.00
N1247  N     0.84943   0.59618   0.32170   0.00000  Uiso   1.00
O1248  O     0.85399   0.56155   0.32847   0.00000  Uiso   1.00
O1249  O     0.83178   0.61605   0.34672   0.00000  Uiso   1.00
N1250  N     0.65061   0.90378   0.67820   0.00000  Uiso   1.00
O1251  O     0.64638   0.93846   0.67151   0.00000  Uiso   1.00
O1252  O     0.66777   0.88373   0.65295   0.00000  Uiso   1.00
N1253  N     0.59602   0.65039   0.32182   0.00000  Uiso   1.00
O1254  O     0.56122   0.64662   0.32818   0.00000  Uiso   1.00
O1255  O     0.61621   0.66652   0.34769   0.00000  Uiso   1.00
N1256  N     0.90387   0.84945   0.67832   0.00000  Uiso   1.00
O1257  O     0.93847   0.85417   0.67150   0.00000  Uiso   1.00
O1258  O     0.88410   0.83150   0.65345   0.00000  Uiso   1.00
N1259  N     0.65082   0.90365   0.32161   0.00000  Uiso   1.00
O1260  O     0.64468   0.93787   0.32922   0.00000  Uiso   1.00
O1261  O     0.67137   0.88467   0.34484   0.00000  Uiso   1.00
N1262  N     0.84939   0.59624   0.67822   0.00000  Uiso   1.00
O1263  O     0.85389   0.56161   0.67140   0.00000  Uiso   1.00
O1264  O     0.83170   0.61615   0.65327   0.00000  Uiso   1.00
loop_
_geom_bond_atom_site_label_1
_geom_bond_atom_site_label_2
_geom_bond_distance
_geom_bond_site_symmetry_2
_ccdc_geom_bond_type
Zn1    O49     1.943   .     S
Zn1    O95     1.935   .     S
Zn1    O64     1.935   .     S
Zn1    O724    1.935   1_545 S
Zn2    O50     1.943   .     S
Zn2    O63     1.935   .     S
Zn2    O91     1.935   .     S
Zn2    O728    1.935   1_545 S
Zn3    O409    1.935   1_455 S
Zn3    O66     1.935   .     S
Zn3    O51     1.943   .     S
Zn3    O86     1.935   .     S
Zn4    O52     1.943   .     S
Zn4    O401    1.935   1_455 S
Zn4    O65     1.935   .     S
Zn4    O94     1.935   .     S
Zn5    O88     1.935   .     S
Zn5    O49     1.943   .     S
Zn5    O68     1.935   .     S
Zn5    O731    1.935   1_545 S
Zn6    O100    1.935   .     S
Zn6    O50     1.943   .     S
Zn6    O67     1.935   .     S
Zn6    O719    1.935   1_545 S
Zn7    O62     1.935   .     S
Zn7    O406    1.935   1_455 S
Zn7    O51     1.943   .     S
Zn7    O97     1.935   .     S
Zn8    O89     1.935   .     S
Zn8    O61     1.935   .     S
Zn8    O52     1.943   .     S
Zn8    O414    1.935   1_455 S
Zn9    O368    1.943   .     S
Zn9    O56     1.935   .     S
Zn9    O76     1.935   .     S
Zn9    O79     1.935   .     S
Zn10   O51     1.943   .     S
Zn10   O80     1.935   .     S
Zn10   O75     1.935   .     S
Zn10   O55     1.935   .     S
Zn11   O70     1.935   .     S
Zn11   O58     1.935   .     S
Zn11   O77     1.935   .     S
Zn11   O682    1.943   .     S
Zn12   O69     1.935   .     S
Zn12   O49     1.943   .     S
Zn12   O57     1.935   .     S
Zn12   O78     1.935   .     S
Zn13   O60     1.935   .     S
Zn13   O72     1.935   .     S
Zn13   O83     1.935   .     S
Zn13   O52     1.943   .     S
Zn14   O71     1.935   .     S
Zn14   O59     1.935   .     S
Zn14   O84     1.935   .     S
Zn14   O367    1.943   .     S
Zn15   O54     1.935   .     S
Zn15   O74     1.935   .     S
Zn15   O81     1.935   .     S
Zn15   O50     1.943   .     S
Zn16   O53     1.935   .     S
Zn16   O73     1.935   .     S
Zn16   O82     1.935   .     S
Zn16   O681    1.943   .     S
C17    C33     1.393   .     A
C17    Cl205   1.762   .     S
C17    C733    1.408   .     A
C18    C734    1.408   .     A
C18    C34     1.393   .     A
C18    Cl206   1.762   .     S
C19    C35     1.393   .     A
C19    C419    1.408   .     A
C19    Cl207   1.762   .     S
C20    C36     1.393   .     A
C20    Cl208   1.762   .     S
C20    C420    1.408   .     A
C21    Cl209   1.762   .     S
C21    C37     1.393   .     A
C21    C101    1.408   .     S
C22    C38     1.393   .     A
C22    Cl210   1.762   .     S
C22    C102    1.408   .     S
C23    Cl211   1.762   .     S
C23    C39     1.393   .     A
C23    C103    1.408   .     S
C24    Cl212   1.762   .     S
C24    C40     1.393   .     A
C24    C104    1.408   .     S
C25    C421    1.408   .     A
C25    Cl213   1.762   .     S
C25    C41     1.393   .     A
C26    C42     1.393   .     A
C26    Cl214   1.762   .     S
C26    C106    1.408   .     S
C27    Cl215   1.762   .     S
C27    C739    1.408   .     A
C27    C43     1.393   .     A
C28    Cl216   1.762   .     S
C28    C44     1.393   .     A
C28    C108    1.408   .     A
C29    C45     1.393   .     A
C29    Cl217   1.762   .     S
C29    C105    1.408   .     S
C30    Cl218   1.762   .     S
C30    C46     1.393   .     A
C30    C422    1.408   .     A
C31    Cl219   1.762   .     S
C31    C47     1.393   .     A
C31    C107    1.408   .     S
C32    Cl220   1.762   .     S
C32    C48     1.393   .     A
C32    C740    1.408   .     S
C33    H165    1.084   .     S
C33    C829    1.400   .     A
C34    C830    1.400   .     A
C34    H166    1.084   .     S
C35    C515    1.400   .     A
C35    H167    1.084   .     S
C36    H168    1.084   .     S
C36    C516    1.400   .     S
C37    H169    1.084   .     S
C37    C197    1.400   .     S
C38    H170    1.084   .     S
C38    C198    1.400   .     S
C39    H171    1.084   .     S
C39    C199    1.400   .     S
C40    C200    1.400   .     A
C40    H172    1.084   .     S
C41    H173    1.084   .     S
C41    C517    1.400   .     S
C42    H174    1.084   .     S
C42    C202    1.400   .     S
C43    H175    1.084   .     S
C43    C835    1.400   .     A
C44    H176    1.084   .     S
C44    C204    1.400   .     A
C45    H177    1.084   .     S
C45    C201    1.400   .     A
C46    C518    1.400   .     A
C46    H178    1.084   .     S
C47    H179    1.084   .     S
C47    C203    1.400   .     S
C48    H180    1.084   .     S
C48    C836    1.400   .     S
O49    Zn648   1.943   1_545 S
O50    Zn643   1.943   1_545 S
O51    Zn330   1.943   1_455 S
O52    Zn325   1.943   1_455 S
O53    C741    1.280   .     S
O54    C110    1.280   .     S
O55    C111    1.280   .     S
O56    C428    1.280   .     S
O57    C109    1.280   .     A
O58    C742    1.280   .     A
O59    C427    1.280   .     A
O60    C112    1.280   .     A
O61    C113    1.280   .     A
O62    C114    1.280   .     A
O63    C115    1.280   .     S
O64    C116    1.280   .     S
O65    C113    1.280   .     A
O66    C114    1.280   .     A
O67    C115    1.280   .     S
O68    C116    1.280   .     S
O69    C117    1.276   .     A
O70    C118    1.277   .     A
O71    C119    1.277   .     A
O72    C120    1.276   .     A
O73    C121    1.277   .     A
O74    C122    1.277   .     A
O75    C123    1.277   .     A
O76    C124    1.276   .     A
O77    C125    1.277   .     A
O78    C126    1.277   .     A
O79    C127    1.277   .     A
O80    C128    1.277   .     A
O81    C129    1.277   .     A
O82    C130    1.277   .     A
O83    C131    1.277   .     A
O84    C132    1.277   .     A
O85    Zn320   1.935   .     S
O85    C127    1.277   .     A
O86    C128    1.277   .     A
O87    C125    1.277   .     A
O87    Zn638   1.935   .     S
O88    C126    1.276   .     A
O89    C131    1.277   .     A
O90    Zn323   1.935   .     S
O90    C132    1.277   .     A
O91    C129    1.277   .     A
O92    C130    1.277   .     A
O92    Zn633   1.935   .     S
O93    Zn319   1.935   .     S
O93    C119    1.277   .     A
O94    C120    1.277   .     A
O95    C117    1.277   .     A
O96    C118    1.277   .     A
O96    Zn634   1.935   .     S
O97    C123    1.277   .     A
O98    C124    1.277   .     A
O98    Zn324   1.935   .     S
O99    C121    1.277   .     A
O99    Zn637   1.935   .     S
O100   C122    1.277   .     A
C101   C649    1.408   1_545 A
C101   C102    1.468   1_554 S
C102   C650    1.408   1_545 A
C102   C101    1.468   1_556 S
C103   C335    1.408   1_455 A
C103   C104    1.468   1_554 S
C104   C336    1.408   1_455 A
C104   C103    1.468   1_556 S
C105   C341    1.408   1_455 A
C105   C106    1.468   .     S
C106   C346    1.408   1_455 A
C107   C659    1.408   1_545 A
C107   C108    1.468   .     S
C108   C664    1.408   1_545 S
C109   C204    1.458   .     S
C109   O685    1.280   1_545 S
C110   O690    1.280   1_545 A
C110   C203    1.458   .     S
C111   O375    1.280   1_455 A
C111   C202    1.458   .     S
C112   C201    1.458   .     S
C112   O372    1.280   1_455 S
C113   C200    1.458   .     S
C114   C199    1.458   .     S
C115   C198    1.458   .     S
C116   C197    1.458   .     S
C117   C183    1.455   .     S
C118   C184    1.455   .     S
C119   C185    1.455   .     S
C120   C186    1.455   .     S
C121   C187    1.455   .     S
C122   C188    1.455   .     S
C123   C181    1.455   .     S
C124   C182    1.455   .     S
C125   C191    1.455   .     S
C126   C192    1.455   .     S
C127   C193    1.455   .     S
C128   C194    1.455   .     S
C129   C195    1.455   .     S
C130   C196    1.455   .     S
C131   C189    1.455   .     S
C132   C190    1.455   .     S
C133   C196    1.409   .     A
C133   N221    1.436   .     S
C133   C148    1.399   .     A
C134   N224    1.435   .     S
C134   C147    1.398   .     A
C134   C195    1.409   .     A
C135   C146    1.398   .     A
C135   N227    1.435   .     S
C135   C194    1.409   .     A
C136   N230    1.436   .     S
C136   C145    1.399   .     A
C136   C193    1.409   .     A
C137   N233    1.436   .     S
C137   C144    1.399   .     A
C137   C192    1.409   .     A
C138   C143    1.398   .     A
C138   C191    1.409   .     A
C138   N236    1.435   .     S
C139   C142    1.398   .     A
C139   N239    1.436   .     S
C139   C190    1.409   .     A
C140   C141    1.399   .     A
C140   C189    1.409   .     A
C140   N242    1.436   .     S
C141   C188    1.409   .     A
C141   N245    1.436   .     S
C142   C187    1.409   .     A
C142   N248    1.436   .     S
C143   N251    1.436   .     S
C143   C186    1.409   .     A
C144   C185    1.409   .     A
C144   N254    1.436   .     S
C145   C184    1.409   .     A
C145   N257    1.436   .     S
C146   C183    1.409   .     A
C146   N260    1.436   .     S
C147   N263    1.437   .     S
C147   C182    1.410   .     A
C148   C181    1.410   .     A
C148   N266    1.436   .     S
C149   C182    1.410   .     A
C149   N269    1.436   .     S
C149   C164    1.399   .     A
C150   C181    1.410   .     A
C150   N272    1.437   .     S
C150   C163    1.398   .     A
C151   C184    1.409   .     A
C151   C162    1.398   .     A
C151   N275    1.436   .     S
C152   C161    1.399   .     A
C152   C183    1.409   .     A
C152   N278    1.435   .     S
C153   C160    1.399   .     A
C153   C186    1.409   .     A
C153   N281    1.435   .     S
C154   N284    1.435   .     S
C154   C159    1.398   .     A
C154   C185    1.409   .     A
C155   C158    1.398   .     A
C155   C188    1.409   .     A
C155   N287    1.436   .     S
C156   C187    1.409   .     A
C156   N290    1.436   .     S
C156   C157    1.399   .     A
C157   N293    1.436   .     S
C157   C190    1.409   .     A
C158   N296    1.436   .     S
C158   C189    1.409   .     A
C159   C192    1.409   .     A
C159   N299    1.436   .     S
C160   C191    1.410   .     A
C160   N302    1.436   .     S
C161   N305    1.437   .     S
C161   C194    1.410   .     A
C162   C193    1.409   .     A
C162   N308    1.436   .     S
C163   C196    1.409   .     A
C163   N311    1.435   .     S
C164   C195    1.409   .     A
C164   N314    1.436   .     S
C197   C665    1.400   1_545 A
C198   C666    1.400   1_545 A
C199   C351    1.400   1_455 A
C200   C352    1.400   1_455 S
C201   C357    1.400   1_455 S
C202   C362    1.400   1_455 A
C203   C675    1.400   1_545 A
C204   C680    1.400   1_545 S
N221   O222    1.301   .     A
N221   O223    1.301   .     A
N224   O225    1.301   .     A
N224   O226    1.301   .     A
N227   O228    1.301   .     A
N227   O229    1.301   .     A
N230   O232    1.301   .     A
N230   O231    1.301   .     A
N233   O234    1.301   .     A
N233   O235    1.301   .     A
N236   O237    1.301   .     A
N236   O238    1.301   .     A
N239   O240    1.301   .     A
N239   O241    1.301   .     A
N242   O244    1.301   .     A
N242   O243    1.301   .     A
N245   O246    1.301   .     A
N245   O247    1.301   .     A
N248   O250    1.301   .     A
N248   O249    1.301   .     A
N251   O252    1.301   .     A
N251   O253    1.301   .     A
N254   O256    1.301   .     A
N254   O255    1.301   .     A
N257   O258    1.301   .     A
N257   O259    1.301   .     A
N260   O261    1.301   .     A
N260   O262    1.301   .     A
N263   O264    1.301   .     A
N263   O265    1.301   .     A
N266   O268    1.301   .     A
N266   O267    1.301   .     A
N269   O271    1.301   .     A
N269   O270    1.301   .     A
N272   O273    1.301   .     A
N272   O274    1.301   .     A
N275   O276    1.301   .     A
N275   O277    1.301   .     A
N278   O279    1.301   .     A
N278   O280    1.301   .     A
N281   O283    1.301   .     A
N281   O282    1.301   .     A
N284   O285    1.301   .     A
N284   O286    1.301   .     A
N287   O289    1.301   .     A
N287   O288    1.301   .     A
N290   O291    1.301   .     A
N290   O292    1.301   .     A
N293   O294    1.301   .     A
N293   O295    1.301   .     A
N296   O297    1.301   .     A
N296   O298    1.301   .     A
N299   O301    1.301   .     A
N299   O300    1.301   .     A
N302   O304    1.301   .     A
N302   O303    1.301   .     A
N305   O307    1.301   .     A
N305   O306    1.301   .     A
N308   O310    1.301   .     A
N308   O309    1.301   .     A
N311   O313    1.301   .     A
N311   O312    1.301   .     A
N314   O315    1.301   .     A
N314   O316    1.301   .     A
Zn317  O365    1.943   .     S
Zn317  O411    1.935   .     S
Zn317  O380    1.935   .     S
Zn317  O1040   1.935   1_545 S
Zn318  O366    1.943   .     S
Zn318  O379    1.935   .     S
Zn318  O407    1.935   .     S
Zn318  O1044   1.935   1_545 S
Zn319  O382    1.935   .     S
Zn319  O367    1.943   .     S
Zn319  O402    1.935   .     S
Zn320  O368    1.943   .     S
Zn320  O381    1.935   .     S
Zn320  O410    1.935   .     S
Zn321  O404    1.935   .     S
Zn321  O365    1.943   .     S
Zn321  O384    1.935   .     S
Zn321  O1047   1.935   1_545 S
Zn322  O416    1.935   .     S
Zn322  O366    1.943   .     S
Zn322  O383    1.935   .     S
Zn322  O1035   1.935   1_545 S
Zn323  O378    1.935   .     S
Zn323  O367    1.943   .     S
Zn323  O413    1.935   .     S
Zn324  O405    1.935   .     S
Zn324  O377    1.935   .     S
Zn324  O368    1.943   .     S
Zn325  O52     1.943   1_655 S
Zn325  O372    1.935   .     S
Zn325  O392    1.935   .     S
Zn325  O395    1.935   .     S
Zn326  O367    1.943   .     S
Zn326  O396    1.935   .     S
Zn326  O391    1.935   .     S
Zn326  O371    1.935   .     S
Zn327  O386    1.935   .     S
Zn327  O374    1.935   .     S
Zn327  O393    1.935   .     S
Zn327  O998    1.943   .     S
Zn328  O385    1.935   .     S
Zn328  O365    1.943   .     S
Zn328  O373    1.935   .     S
Zn328  O394    1.935   .     S
Zn329  O376    1.935   .     S
Zn329  O388    1.935   .     S
Zn329  O399    1.935   .     S
Zn329  O368    1.943   .     S
Zn330  O387    1.935   .     S
Zn330  O375    1.935   .     S
Zn330  O400    1.935   .     S
Zn330  O51     1.943   1_655 S
Zn331  O370    1.935   .     S
Zn331  O390    1.935   .     S
Zn331  O397    1.935   .     S
Zn331  O366    1.943   .     S
Zn332  O369    1.935   .     S
Zn332  O389    1.935   .     S
Zn332  O398    1.935   .     S
Zn332  O997    1.943   .     S
C333   C349    1.393   .     A
C333   Cl521   1.762   .     S
C333   C1049   1.408   .     A
C334   C1050   1.408   .     A
C334   C350    1.393   .     A
C334   Cl522   1.762   .     S
C335   C351    1.393   .     A
C335   C103    1.408   1_655 A
C335   Cl523   1.762   .     S
C336   C352    1.393   .     A
C336   Cl524   1.762   .     S
C336   C104    1.408   1_655 A
C337   Cl525   1.762   .     S
C337   C353    1.393   .     A
C337   C417    1.408   .     S
C338   C354    1.393   .     A
C338   Cl526   1.762   .     S
C338   C418    1.408   .     S
C339   Cl527   1.762   .     S
C339   C355    1.393   .     A
C339   C419    1.408   .     S
C340   Cl528   1.762   .     S
C340   C356    1.393   .     A
C340   C420    1.408   .     S
C341   C105    1.408   1_655 A
C341   Cl529   1.762   .     S
C341   C357    1.393   .     A
C342   C358    1.393   .     A
C342   Cl530   1.762   .     S
C342   C422    1.408   .     S
C343   Cl531   1.762   .     S
C343   C1055   1.408   .     A
C343   C359    1.393   .     A
C344   Cl532   1.762   .     S
C344   C360    1.393   .     A
C344   C424    1.408   .     A
C345   C361    1.393   .     A
C345   Cl533   1.762   .     S
C345   C421    1.408   .     S
C346   Cl534   1.762   .     S
C346   C362    1.393   .     A
C346   C106    1.408   1_655 A
C347   Cl535   1.762   .     S
C347   C363    1.393   .     A
C347   C423    1.408   .     S
C348   Cl536   1.762   .     S
C348   C364    1.393   .     A
C348   C1056   1.408   .     S
C349   H481    1.084   .     S
C349   C1145   1.400   .     A
C350   C1146   1.400   .     A
C350   H482    1.084   .     S
C351   C199    1.400   1_655 A
C351   H483    1.084   .     S
C352   H484    1.084   .     S
C352   C200    1.400   1_655 S
C353   H485    1.084   .     S
C353   C513    1.400   .     S
C354   H486    1.084   .     S
C354   C514    1.400   .     S
C355   H487    1.084   .     S
C355   C515    1.400   .     S
C356   C516    1.400   .     A
C356   H488    1.084   .     S
C357   H489    1.084   .     S
C357   C201    1.400   1_655 S
C358   H490    1.084   .     S
C358   C518    1.400   .     S
C359   H491    1.084   .     S
C359   C1151   1.400   .     A
C360   H492    1.084   .     S
C360   C520    1.400   .     A
C361   H493    1.084   .     S
C361   C517    1.400   .     A
C362   C202    1.400   1_655 A
C362   H494    1.084   .     S
C363   H495    1.084   .     S
C363   C519    1.400   .     S
C364   H496    1.084   .     S
C364   C1152   1.400   .     S
O365   Zn964   1.943   1_545 S
O366   Zn959   1.943   1_545 S
O369   C1057   1.280   .     S
O370   C426    1.280   .     S
O371   C427    1.280   .     S
O372   C112    1.280   1_655 S
O373   C425    1.280   .     A
O374   C1058   1.280   .     A
O375   C111    1.280   1_655 A
O376   C428    1.280   .     A
O377   C429    1.280   .     A
O378   C430    1.280   .     A
O379   C431    1.280   .     S
O380   C432    1.280   .     S
O381   C429    1.280   .     A
O382   C430    1.280   .     A
O383   C431    1.280   .     S
O384   C432    1.280   .     S
O385   C433    1.276   .     A
O386   C434    1.277   .     A
O387   C435    1.277   .     A
O388   C436    1.276   .     A
O389   C437    1.277   .     A
O390   C438    1.277   .     A
O391   C439    1.277   .     A
O392   C440    1.276   .     A
O393   C441    1.277   .     A
O394   C442    1.277   .     A
O395   C443    1.277   .     A
O396   C444    1.277   .     A
O397   C445    1.277   .     A
O398   C446    1.277   .     A
O399   C447    1.277   .     A
O400   C448    1.277   .     A
O401   Zn4     1.935   1_655 S
O401   C443    1.277   .     A
O402   C444    1.277   .     A
O403   C441    1.277   .     A
O403   Zn954   1.935   .     S
O404   C442    1.276   .     A
O405   C447    1.277   .     A
O406   Zn7     1.935   1_655 S
O406   C448    1.277   .     A
O407   C445    1.277   .     A
O408   C446    1.277   .     A
O408   Zn949   1.935   .     S
O409   Zn3     1.935   1_655 S
O409   C435    1.277   .     A
O410   C436    1.277   .     A
O411   C433    1.277   .     A
O412   C434    1.277   .     A
O412   Zn950   1.935   .     S
O413   C439    1.277   .     A
O414   C440    1.277   .     A
O414   Zn8     1.935   1_655 S
O415   C437    1.277   .     A
O415   Zn953   1.935   .     S
O416   C438    1.277   .     A
C417   C965    1.408   1_545 A
C417   C418    1.468   1_554 S
C418   C966    1.408   1_545 A
C418   C417    1.468   1_556 S
C419   C420    1.468   1_554 S
C420   C419    1.468   1_556 S
C421   C422    1.468   .     S
C423   C975    1.408   1_545 A
C423   C424    1.468   .     S
C424   C980    1.408   1_545 S
C425   C520    1.458   .     S
C425   O1001   1.280   1_545 S
C426   O1006   1.280   1_545 A
C426   C519    1.458   .     S
C427   C518    1.458   .     S
C428   C517    1.458   .     S
C429   C516    1.458   .     S
C430   C515    1.458   .     S
C431   C514    1.458   .     S
C432   C513    1.458   .     S
C433   C499    1.455   .     S
C434   C500    1.455   .     S
C435   C501    1.455   .     S
C436   C502    1.455   .     S
C437   C503    1.455   .     S
C438   C504    1.455   .     S
C439   C497    1.455   .     S
C440   C498    1.455   .     S
C441   C507    1.455   .     S
C442   C508    1.455   .     S
C443   C509    1.455   .     S
C444   C510    1.455   .     S
C445   C511    1.455   .     S
C446   C512    1.455   .     S
C447   C505    1.455   .     S
C448   C506    1.455   .     S
C449   C512    1.409   .     A
C449   N537    1.436   .     S
C449   C464    1.399   .     A
C450   N540    1.435   .     S
C450   C463    1.398   .     A
C450   C511    1.409   .     A
C451   C462    1.398   .     A
C451   N543    1.435   .     S
C451   C510    1.409   .     A
C452   N546    1.436   .     S
C452   C461    1.399   .     A
C452   C509    1.409   .     A
C453   N549    1.436   .     S
C453   C460    1.399   .     A
C453   C508    1.409   .     A
C454   C459    1.398   .     A
C454   C507    1.409   .     A
C454   N552    1.435   .     S
C455   C458    1.398   .     A
C455   N555    1.436   .     S
C455   C506    1.409   .     A
C456   C457    1.399   .     A
C456   C505    1.409   .     A
C456   N558    1.436   .     S
C457   C504    1.409   .     A
C457   N561    1.436   .     S
C458   C503    1.409   .     A
C458   N564    1.436   .     S
C459   N567    1.436   .     S
C459   C502    1.409   .     A
C460   C501    1.409   .     A
C460   N570    1.436   .     S
C461   C500    1.409   .     A
C461   N573    1.436   .     S
C462   C499    1.409   .     A
C462   N576    1.436   .     S
C463   N579    1.437   .     S
C463   C498    1.410   .     A
C464   C497    1.410   .     A
C464   N582    1.436   .     S
C465   C498    1.410   .     A
C465   N585    1.436   .     S
C465   C480    1.399   .     A
C466   C497    1.410   .     A
C466   N588    1.437   .     S
C466   C479    1.398   .     A
C467   C500    1.409   .     A
C467   C478    1.398   .     A
C467   N591    1.436   .     S
C468   C477    1.399   .     A
C468   C499    1.409   .     A
C468   N594    1.435   .     S
C469   C476    1.399   .     A
C469   C502    1.409   .     A
C469   N597    1.435   .     S
C470   N600    1.435   .     S
C470   C475    1.398   .     A
C470   C501    1.409   .     A
C471   C474    1.398   .     A
C471   C504    1.409   .     A
C471   N603    1.436   .     S
C472   C503    1.409   .     A
C472   N606    1.436   .     S
C472   C473    1.399   .     A
C473   N609    1.436   .     S
C473   C506    1.409   .     A
C474   N612    1.436   .     S
C474   C505    1.409   .     A
C475   C508    1.409   .     A
C475   N615    1.436   .     S
C476   C507    1.410   .     A
C476   N618    1.436   .     S
C477   N621    1.437   .     S
C477   C510    1.410   .     A
C478   C509    1.409   .     A
C478   N624    1.436   .     S
C479   C512    1.409   .     A
C479   N627    1.435   .     S
C480   C511    1.409   .     A
C480   N630    1.436   .     S
C513   C981    1.400   1_545 A
C514   C982    1.400   1_545 A
C519   C991    1.400   1_545 A
C520   C996    1.400   1_545 S
N537   O538    1.301   .     A
N537   O539    1.301   .     A
N540   O541    1.301   .     A
N540   O542    1.301   .     A
N543   O544    1.301   .     A
N543   O545    1.301   .     A
N546   O548    1.301   .     A
N546   O547    1.301   .     A
N549   O550    1.301   .     A
N549   O551    1.301   .     A
N552   O553    1.301   .     A
N552   O554    1.301   .     A
N555   O556    1.301   .     A
N555   O557    1.301   .     A
N558   O560    1.301   .     A
N558   O559    1.301   .     A
N561   O562    1.301   .     A
N561   O563    1.301   .     A
N564   O566    1.301   .     A
N564   O565    1.301   .     A
N567   O568    1.301   .     A
N567   O569    1.301   .     A
N570   O572    1.301   .     A
N570   O571    1.301   .     A
N573   O574    1.301   .     A
N573   O575    1.301   .     A
N576   O577    1.301   .     A
N576   O578    1.301   .     A
N579   O580    1.301   .     A
N579   O581    1.301   .     A
N582   O584    1.301   .     A
N582   O583    1.301   .     A
N585   O587    1.301   .     A
N585   O586    1.301   .     A
N588   O589    1.301   .     A
N588   O590    1.301   .     A
N591   O592    1.301   .     A
N591   O593    1.301   .     A
N594   O595    1.301   .     A
N594   O596    1.301   .     A
N597   O599    1.301   .     A
N597   O598    1.301   .     A
N600   O601    1.301   .     A
N600   O602    1.301   .     A
N603   O605    1.301   .     A
N603   O604    1.301   .     A
N606   O607    1.301   .     A
N606   O608    1.301   .     A
N609   O610    1.301   .     A
N609   O611    1.301   .     A
N612   O613    1.301   .     A
N612   O614    1.301   .     A
N615   O617    1.301   .     A
N615   O616    1.301   .     A
N618   O620    1.301   .     A
N618   O619    1.301   .     A
N621   O623    1.301   .     A
N621   O622    1.301   .     A
N624   O626    1.301   .     A
N624   O625    1.301   .     A
N627   O629    1.301   .     A
N627   O628    1.301   .     A
N630   O631    1.301   .     A
N630   O632    1.301   .     A
Zn633  O681    1.943   .     S
Zn633  O727    1.935   .     S
Zn633  O696    1.935   .     S
Zn634  O682    1.943   .     S
Zn634  O695    1.935   .     S
Zn634  O723    1.935   .     S
Zn635  O1041   1.935   1_455 S
Zn635  O698    1.935   .     S
Zn635  O683    1.943   .     S
Zn635  O718    1.935   .     S
Zn636  O684    1.943   .     S
Zn636  O1033   1.935   1_455 S
Zn636  O697    1.935   .     S
Zn636  O726    1.935   .     S
Zn637  O720    1.935   .     S
Zn637  O681    1.943   .     S
Zn637  O700    1.935   .     S
Zn638  O732    1.935   .     S
Zn638  O682    1.943   .     S
Zn638  O699    1.935   .     S
Zn639  O694    1.935   .     S
Zn639  O1038   1.935   1_455 S
Zn639  O683    1.943   .     S
Zn639  O729    1.935   .     S
Zn640  O721    1.935   .     S
Zn640  O693    1.935   .     S
Zn640  O684    1.943   .     S
Zn640  O1046   1.935   1_455 S
Zn641  O1000   1.943   .     S
Zn641  O688    1.935   .     S
Zn641  O708    1.935   .     S
Zn641  O711    1.935   .     S
Zn642  O683    1.943   .     S
Zn642  O712    1.935   .     S
Zn642  O707    1.935   .     S
Zn642  O687    1.935   .     S
Zn643  O702    1.935   .     S
Zn643  O690    1.935   .     S
Zn643  O709    1.935   .     S
Zn643  O50     1.943   1_565 S
Zn644  O701    1.935   .     S
Zn644  O681    1.943   .     S
Zn644  O689    1.935   .     S
Zn644  O710    1.935   .     S
Zn645  O692    1.935   .     S
Zn645  O704    1.935   .     S
Zn645  O715    1.935   .     S
Zn645  O684    1.943   .     S
Zn646  O703    1.935   .     S
Zn646  O691    1.935   .     S
Zn646  O716    1.935   .     S
Zn646  O999    1.943   .     S
Zn647  O686    1.935   .     S
Zn647  O706    1.935   .     S
Zn647  O713    1.935   .     S
Zn647  O682    1.943   .     S
Zn648  O685    1.935   .     S
Zn648  O705    1.935   .     S
Zn648  O714    1.935   .     S
Zn648  O49     1.943   1_565 S
C649   C665    1.393   .     A
C649   Cl837   1.762   .     S
C649   C101    1.408   1_565 A
C650   C102    1.408   1_565 A
C650   C666    1.393   .     A
C650   Cl838   1.762   .     S
C651   C667    1.393   .     A
C651   C1051   1.408   .     A
C651   Cl839   1.762   .     S
C652   C668    1.393   .     A
C652   Cl840   1.762   .     S
C652   C1052   1.408   .     A
C653   Cl841   1.762   .     S
C653   C669    1.393   .     A
C653   C733    1.408   .     S
C654   C670    1.393   .     A
C654   Cl842   1.762   .     S
C654   C734    1.408   .     S
C655   Cl843   1.762   .     S
C655   C671    1.393   .     A
C655   C735    1.408   .     S
C656   Cl844   1.762   .     S
C656   C672    1.393   .     A
C656   C736    1.408   .     S
C657   C1053   1.408   .     A
C657   Cl845   1.762   .     S
C657   C673    1.393   .     A
C658   C674    1.393   .     A
C658   Cl846   1.762   .     S
C658   C738    1.408   .     S
C659   Cl847   1.762   .     S
C659   C107    1.408   1_565 A
C659   C675    1.393   .     A
C660   Cl848   1.762   .     S
C660   C676    1.393   .     A
C660   C740    1.408   .     A
C661   C677    1.393   .     A
C661   Cl849   1.762   .     S
C661   C737    1.408   .     S
C662   Cl850   1.762   .     S
C662   C678    1.393   .     A
C662   C1054   1.408   .     A
C663   Cl851   1.762   .     S
C663   C679    1.393   .     A
C663   C739    1.408   .     S
C664   Cl852   1.762   .     S
C664   C680    1.393   .     A
C664   C108    1.408   1_565 S
C665   H797    1.084   .     S
C665   C197    1.400   1_565 A
C666   C198    1.400   1_565 A
C666   H798    1.084   .     S
C667   C1147   1.400   .     A
C667   H799    1.084   .     S
C668   H800    1.084   .     S
C668   C1148   1.400   .     S
C669   H801    1.084   .     S
C669   C829    1.400   .     S
C670   H802    1.084   .     S
C670   C830    1.400   .     S
C671   H803    1.084   .     S
C671   C831    1.400   .     S
C672   C832    1.400   .     A
C672   H804    1.084   .     S
C673   H805    1.084   .     S
C673   C1149   1.400   .     S
C674   H806    1.084   .     S
C674   C834    1.400   .     S
C675   H807    1.084   .     S
C675   C203    1.400   1_565 A
C676   H808    1.084   .     S
C676   C836    1.400   .     A
C677   H809    1.084   .     S
C677   C833    1.400   .     A
C678   C1150   1.400   .     A
C678   H810    1.084   .     S
C679   H811    1.084   .     S
C679   C835    1.400   .     S
C680   H812    1.084   .     S
C680   C204    1.400   1_565 S
O683   Zn962   1.943   1_455 S
O684   Zn957   1.943   1_455 S
O685   C109    1.280   1_565 S
O686   C742    1.280   .     S
O687   C743    1.280   .     S
O688   C1060   1.280   .     S
O689   C741    1.280   .     A
O690   C110    1.280   1_565 A
O691   C1059   1.280   .     A
O692   C744    1.280   .     A
O693   C745    1.280   .     A
O694   C746    1.280   .     A
O695   C747    1.280   .     S
O696   C748    1.280   .     S
O697   C745    1.280   .     A
O698   C746    1.280   .     A
O699   C747    1.280   .     S
O700   C748    1.280   .     S
O701   C749    1.276   .     A
O702   C750    1.277   .     A
O703   C751    1.277   .     A
O704   C752    1.276   .     A
O705   C753    1.277   .     A
O706   C754    1.277   .     A
O707   C755    1.277   .     A
O708   C756    1.276   .     A
O709   C757    1.277   .     A
O710   C758    1.277   .     A
O711   C759    1.277   .     A
O712   C760    1.277   .     A
O713   C761    1.277   .     A
O714   C762    1.277   .     A
O715   C763    1.277   .     A
O716   C764    1.277   .     A
O717   Zn952   1.935   .     S
O717   C759    1.277   .     A
O718   C760    1.277   .     A
O719   C757    1.277   .     A
O719   Zn6     1.935   1_565 S
O720   C758    1.276   .     A
O721   C763    1.277   .     A
O722   Zn955   1.935   .     S
O722   C764    1.277   .     A
O723   C761    1.277   .     A
O724   C762    1.277   .     A
O724   Zn1     1.935   1_565 S
O725   Zn951   1.935   .     S
O725   C751    1.277   .     A
O726   C752    1.277   .     A
O727   C749    1.277   .     A
O728   C750    1.277   .     A
O728   Zn2     1.935   1_565 S
O729   C755    1.277   .     A
O730   C756    1.277   .     A
O730   Zn956   1.935   .     S
O731   C753    1.277   .     A
O731   Zn5     1.935   1_565 S
O732   C754    1.277   .     A
C733   C734    1.468   1_554 S
C734   C733    1.468   1_556 S
C735   C967    1.408   1_455 A
C735   C736    1.468   1_554 S
C736   C968    1.408   1_455 A
C736   C735    1.468   1_556 S
C737   C973    1.408   1_455 A
C737   C738    1.468   .     S
C738   C978    1.408   1_455 A
C739   C740    1.468   .     S
C741   C836    1.458   .     S
C742   C835    1.458   .     S
C743   O1007   1.280   1_455 A
C743   C834    1.458   .     S
C744   C833    1.458   .     S
C744   O1004   1.280   1_455 S
C745   C832    1.458   .     S
C746   C831    1.458   .     S
C747   C830    1.458   .     S
C748   C829    1.458   .     S
C749   C815    1.455   .     S
C750   C816    1.455   .     S
C751   C817    1.455   .     S
C752   C818    1.455   .     S
C753   C819    1.455   .     S
C754   C820    1.455   .     S
C755   C813    1.455   .     S
C756   C814    1.455   .     S
C757   C823    1.455   .     S
C758   C824    1.455   .     S
C759   C825    1.455   .     S
C760   C826    1.455   .     S
C761   C827    1.455   .     S
C762   C828    1.455   .     S
C763   C821    1.455   .     S
C764   C822    1.455   .     S
C765   C828    1.409   .     A
C765   N853    1.436   .     S
C765   C780    1.399   .     A
C766   N856    1.435   .     S
C766   C779    1.398   .     A
C766   C827    1.409   .     A
C767   C778    1.398   .     A
C767   N859    1.435   .     S
C767   C826    1.409   .     A
C768   N862    1.436   .     S
C768   C777    1.399   .     A
C768   C825    1.409   .     A
C769   N865    1.436   .     S
C769   C776    1.399   .     A
C769   C824    1.409   .     A
C770   C775    1.398   .     A
C770   C823    1.409   .     A
C770   N868    1.435   .     S
C771   C774    1.398   .     A
C771   N871    1.436   .     S
C771   C822    1.409   .     A
C772   C773    1.399   .     A
C772   C821    1.409   .     A
C772   N874    1.436   .     S
C773   C820    1.409   .     A
C773   N877    1.436   .     S
C774   C819    1.409   .     A
C774   N880    1.436   .     S
C775   N883    1.436   .     S
C775   C818    1.409   .     A
C776   C817    1.409   .     A
C776   N886    1.436   .     S
C777   C816    1.409   .     A
C777   N889    1.436   .     S
C778   C815    1.409   .     A
C778   N892    1.436   .     S
C779   N895    1.437   .     S
C779   C814    1.410   .     A
C780   C813    1.410   .     A
C780   N898    1.436   .     S
C781   C814    1.410   .     A
C781   N901    1.436   .     S
C781   C796    1.399   .     A
C782   C813    1.410   .     A
C782   N904    1.437   .     S
C782   C795    1.398   .     A
C783   C816    1.409   .     A
C783   C794    1.398   .     A
C783   N907    1.436   .     S
C784   C793    1.399   .     A
C784   C815    1.409   .     A
C784   N910    1.435   .     S
C785   C792    1.399   .     A
C785   C818    1.409   .     A
C785   N913    1.435   .     S
C786   N916    1.435   .     S
C786   C791    1.398   .     A
C786   C817    1.409   .     A
C787   C790    1.398   .     A
C787   C820    1.409   .     A
C787   N919    1.436   .     S
C788   C819    1.409   .     A
C788   N922    1.436   .     S
C788   C789    1.399   .     A
C789   N925    1.436   .     S
C789   C822    1.409   .     A
C790   N928    1.436   .     S
C790   C821    1.409   .     A
C791   C824    1.409   .     A
C791   N931    1.436   .     S
C792   C823    1.410   .     A
C792   N934    1.436   .     S
C793   N937    1.437   .     S
C793   C826    1.410   .     A
C794   C825    1.409   .     A
C794   N940    1.436   .     S
C795   C828    1.409   .     A
C795   N943    1.435   .     S
C796   C827    1.409   .     A
C796   N946    1.436   .     S
C831   C983    1.400   1_455 A
C832   C984    1.400   1_455 S
C833   C989    1.400   1_455 S
C834   C994    1.400   1_455 A
N853   O854    1.301   .     A
N853   O855    1.301   .     A
N856   O857    1.301   .     A
N856   O858    1.301   .     A
N859   O860    1.301   .     A
N859   O861    1.301   .     A
N862   O864    1.301   .     A
N862   O863    1.301   .     A
N865   O866    1.301   .     A
N865   O867    1.301   .     A
N868   O869    1.301   .     A
N868   O870    1.301   .     A
N871   O872    1.301   .     A
N871   O873    1.301   .     A
N874   O876    1.301   .     A
N874   O875    1.301   .     A
N877   O878    1.301   .     A
N877   O879    1.301   .     A
N880   O882    1.301   .     A
N880   O881    1.301   .     A
N883   O884    1.301   .     A
N883   O885    1.301   .     A
N886   O888    1.301   .     A
N886   O887    1.301   .     A
N889   O890    1.301   .     A
N889   O891    1.301   .     A
N892   O893    1.301   .     A
N892   O894    1.301   .     A
N895   O896    1.301   .     A
N895   O897    1.301   .     A
N898   O900    1.301   .     A
N898   O899    1.301   .     A
N901   O903    1.301   .     A
N901   O902    1.301   .     A
N904   O905    1.301   .     A
N904   O906    1.301   .     A
N907   O908    1.301   .     A
N907   O909    1.301   .     A
N910   O911    1.301   .     A
N910   O912    1.301   .     A
N913   O915    1.301   .     A
N913   O914    1.301   .     A
N916   O917    1.301   .     A
N916   O918    1.301   .     A
N919   O921    1.301   .     A
N919   O920    1.301   .     A
N922   O923    1.301   .     A
N922   O924    1.301   .     A
N925   O926    1.301   .     A
N925   O927    1.301   .     A
N928   O929    1.301   .     A
N928   O930    1.301   .     A
N931   O933    1.301   .     A
N931   O932    1.301   .     A
N934   O936    1.301   .     A
N934   O935    1.301   .     A
N937   O939    1.301   .     A
N937   O938    1.301   .     A
N940   O942    1.301   .     A
N940   O941    1.301   .     A
N943   O945    1.301   .     A
N943   O944    1.301   .     A
N946   O947    1.301   .     A
N946   O948    1.301   .     A
Zn949  O997    1.943   .     S
Zn949  O1043   1.935   .     S
Zn949  O1012   1.935   .     S
Zn950  O998    1.943   .     S
Zn950  O1011   1.935   .     S
Zn950  O1039   1.935   .     S
Zn951  O1014   1.935   .     S
Zn951  O999    1.943   .     S
Zn951  O1034   1.935   .     S
Zn952  O1000   1.943   .     S
Zn952  O1013   1.935   .     S
Zn952  O1042   1.935   .     S
Zn953  O1036   1.935   .     S
Zn953  O997    1.943   .     S
Zn953  O1016   1.935   .     S
Zn954  O1048   1.935   .     S
Zn954  O998    1.943   .     S
Zn954  O1015   1.935   .     S
Zn955  O1010   1.935   .     S
Zn955  O999    1.943   .     S
Zn955  O1045   1.935   .     S
Zn956  O1037   1.935   .     S
Zn956  O1009   1.935   .     S
Zn956  O1000   1.943   .     S
Zn957  O684    1.943   1_655 S
Zn957  O1004   1.935   .     S
Zn957  O1024   1.935   .     S
Zn957  O1027   1.935   .     S
Zn958  O999    1.943   .     S
Zn958  O1028   1.935   .     S
Zn958  O1023   1.935   .     S
Zn958  O1003   1.935   .     S
Zn959  O1018   1.935   .     S
Zn959  O1006   1.935   .     S
Zn959  O1025   1.935   .     S
Zn959  O366    1.943   1_565 S
Zn960  O1017   1.935   .     S
Zn960  O997    1.943   .     S
Zn960  O1005   1.935   .     S
Zn960  O1026   1.935   .     S
Zn961  O1008   1.935   .     S
Zn961  O1020   1.935   .     S
Zn961  O1031   1.935   .     S
Zn961  O1000   1.943   .     S
Zn962  O1019   1.935   .     S
Zn962  O1007   1.935   .     S
Zn962  O1032   1.935   .     S
Zn962  O683    1.943   1_655 S
Zn963  O1002   1.935   .     S
Zn963  O1022   1.935   .     S
Zn963  O1029   1.935   .     S
Zn963  O998    1.943   .     S
Zn964  O1001   1.935   .     S
Zn964  O1021   1.935   .     S
Zn964  O1030   1.935   .     S
Zn964  O365    1.943   1_565 S
C965   C981    1.393   .     A
C965   Cl1153  1.762   .     S
C965   C417    1.408   1_565 A
C966   C418    1.408   1_565 A
C966   C982    1.393   .     A
C966   Cl1154  1.762   .     S
C967   C983    1.393   .     A
C967   C735    1.408   1_655 A
C967   Cl1155  1.762   .     S
C968   C984    1.393   .     A
C968   Cl1156  1.762   .     S
C968   C736    1.408   1_655 A
C969   Cl1157  1.762   .     S
C969   C985    1.393   .     A
C969   C1049   1.408   .     S
C970   C986    1.393   .     A
C970   Cl1158  1.762   .     S
C970   C1050   1.408   .     S
C971   Cl1159  1.762   .     S
C971   C987    1.393   .     A
C971   C1051   1.408   .     S
C972   Cl1160  1.762   .     S
C972   C988    1.393   .     A
C972   C1052   1.408   .     S
C973   C737    1.408   1_655 A
C973   Cl1161  1.762   .     S
C973   C989    1.393   .     A
C974   C990    1.393   .     A
C974   Cl1162  1.762   .     S
C974   C1054   1.408   .     S
C975   Cl1163  1.762   .     S
C975   C423    1.408   1_565 A
C975   C991    1.393   .     A
C976   Cl1164  1.762   .     S
C976   C992    1.393   .     A
C976   C1056   1.408   .     A
C977   C993    1.393   .     A
C977   Cl1165  1.762   .     S
C977   C1053   1.408   .     S
C978   Cl1166  1.762   .     S
C978   C994    1.393   .     A
C978   C738    1.408   1_655 A
C979   Cl1167  1.762   .     S
C979   C995    1.393   .     A
C979   C1055   1.408   .     S
C980   Cl1168  1.762   .     S
C980   C996    1.393   .     A
C980   C424    1.408   1_565 S
C981   H1113   1.084   .     S
C981   C513    1.400   1_565 A
C982   C514    1.400   1_565 A
C982   H1114   1.084   .     S
C983   C831    1.400   1_655 A
C983   H1115   1.084   .     S
C984   H1116   1.084   .     S
C984   C832    1.400   1_655 S
C985   H1117   1.084   .     S
C985   C1145   1.400   .     S
C986   H1118   1.084   .     S
C986   C1146   1.400   .     S
C987   H1119   1.084   .     S
C987   C1147   1.400   .     S
C988   C1148   1.400   .     A
C988   H1120   1.084   .     S
C989   H1121   1.084   .     S
C989   C833    1.400   1_655 S
C990   H1122   1.084   .     S
C990   C1150   1.400   .     S
C991   H1123   1.084   .     S
C991   C519    1.400   1_565 A
C992   H1124   1.084   .     S
C992   C1152   1.400   .     A
C993   H1125   1.084   .     S
C993   C1149   1.400   .     A
C994   C834    1.400   1_655 A
C994   H1126   1.084   .     S
C995   H1127   1.084   .     S
C995   C1151   1.400   .     S
C996   H1128   1.084   .     S
C996   C520    1.400   1_565 S
O1001  C425    1.280   1_565 S
O1002  C1058   1.280   .     S
O1003  C1059   1.280   .     S
O1004  C744    1.280   1_655 S
O1005  C1057   1.280   .     A
O1006  C426    1.280   1_565 A
O1007  C743    1.280   1_655 A
O1008  C1060   1.280   .     A
O1009  C1061   1.280   .     A
O1010  C1062   1.280   .     A
O1011  C1063   1.280   .     S
O1012  C1064   1.280   .     S
O1013  C1061   1.280   .     A
O1014  C1062   1.280   .     A
O1015  C1063   1.280   .     S
O1016  C1064   1.280   .     S
O1017  C1065   1.276   .     A
O1018  C1066   1.277   .     A
O1019  C1067   1.277   .     A
O1020  C1068   1.276   .     A
O1021  C1069   1.277   .     A
O1022  C1070   1.277   .     A
O1023  C1071   1.277   .     A
O1024  C1072   1.276   .     A
O1025  C1073   1.277   .     A
O1026  C1074   1.277   .     A
O1027  C1075   1.277   .     A
O1028  C1076   1.277   .     A
O1029  C1077   1.277   .     A
O1030  C1078   1.277   .     A
O1031  C1079   1.277   .     A
O1032  C1080   1.277   .     A
O1033  Zn636   1.935   1_655 S
O1033  C1075   1.277   .     A
O1034  C1076   1.277   .     A
O1035  C1073   1.277   .     A
O1035  Zn322   1.935   1_565 S
O1036  C1074   1.276   .     A
O1037  C1079   1.277   .     A
O1038  Zn639   1.935   1_655 S
O1038  C1080   1.277   .     A
O1039  C1077   1.277   .     A
O1040  C1078   1.277   .     A
O1040  Zn317   1.935   1_565 S
O1041  Zn635   1.935   1_655 S
O1041  C1067   1.277   .     A
O1042  C1068   1.277   .     A
O1043  C1065   1.277   .     A
O1044  C1066   1.277   .     A
O1044  Zn318   1.935   1_565 S
O1045  C1071   1.277   .     A
O1046  C1072   1.277   .     A
O1046  Zn640   1.935   1_655 S
O1047  C1069   1.277   .     A
O1047  Zn321   1.935   1_565 S
O1048  C1070   1.277   .     A
C1049  C1050   1.468   1_554 S
C1050  C1049   1.468   1_556 S
C1051  C1052   1.468   1_554 S
C1052  C1051   1.468   1_556 S
C1053  C1054   1.468   .     S
C1055  C1056   1.468   .     S
C1057  C1152   1.458   .     S
C1058  C1151   1.458   .     S
C1059  C1150   1.458   .     S
C1060  C1149   1.458   .     S
C1061  C1148   1.458   .     S
C1062  C1147   1.458   .     S
C1063  C1146   1.458   .     S
C1064  C1145   1.458   .     S
C1065  C1131   1.455   .     S
C1066  C1132   1.455   .     S
C1067  C1133   1.455   .     S
C1068  C1134   1.455   .     S
C1069  C1135   1.455   .     S
C1070  C1136   1.455   .     S
C1071  C1129   1.455   .     S
C1072  C1130   1.455   .     S
C1073  C1139   1.455   .     S
C1074  C1140   1.455   .     S
C1075  C1141   1.455   .     S
C1076  C1142   1.455   .     S
C1077  C1143   1.455   .     S
C1078  C1144   1.455   .     S
C1079  C1137   1.455   .     S
C1080  C1138   1.455   .     S
C1081  C1144   1.409   .     A
C1081  N1169   1.436   .     S
C1081  C1096   1.399   .     A
C1082  N1172   1.435   .     S
C1082  C1095   1.398   .     A
C1082  C1143   1.409   .     A
C1083  C1094   1.398   .     A
C1083  N1175   1.435   .     S
C1083  C1142   1.409   .     A
C1084  N1178   1.436   .     S
C1084  C1093   1.399   .     A
C1084  C1141   1.409   .     A
C1085  N1181   1.436   .     S
C1085  C1092   1.399   .     A
C1085  C1140   1.409   .     A
C1086  C1091   1.398   .     A
C1086  C1139   1.409   .     A
C1086  N1184   1.435   .     S
C1087  C1090   1.398   .     A
C1087  N1187   1.436   .     S
C1087  C1138   1.409   .     A
C1088  C1089   1.399   .     A
C1088  C1137   1.409   .     A
C1088  N1190   1.436   .     S
C1089  C1136   1.409   .     A
C1089  N1193   1.436   .     S
C1090  C1135   1.409   .     A
C1090  N1196   1.436   .     S
C1091  N1199   1.436   .     S
C1091  C1134   1.409   .     A
C1092  C1133   1.409   .     A
C1092  N1202   1.436   .     S
C1093  C1132   1.409   .     A
C1093  N1205   1.436   .     S
C1094  C1131   1.409   .     A
C1094  N1208   1.436   .     S
C1095  N1211   1.437   .     S
C1095  C1130   1.410   .     A
C1096  C1129   1.410   .     A
C1096  N1214   1.436   .     S
C1097  C1130   1.410   .     A
C1097  N1217   1.436   .     S
C1097  C1112   1.399   .     A
C1098  C1129   1.410   .     A
C1098  N1220   1.437   .     S
C1098  C1111   1.398   .     A
C1099  C1132   1.409   .     A
C1099  C1110   1.398   .     A
C1099  N1223   1.436   .     S
C1100  C1109   1.399   .     A
C1100  C1131   1.409   .     A
C1100  N1226   1.435   .     S
C1101  C1108   1.399   .     A
C1101  C1134   1.409   .     A
C1101  N1229   1.435   .     S
C1102  N1232   1.435   .     S
C1102  C1107   1.398   .     A
C1102  C1133   1.409   .     A
C1103  C1106   1.398   .     A
C1103  C1136   1.409   .     A
C1103  N1235   1.436   .     S
C1104  C1135   1.409   .     A
C1104  N1238   1.436   .     S
C1104  C1105   1.399   .     A
C1105  N1241   1.436   .     S
C1105  C1138   1.409   .     A
C1106  N1244   1.436   .     S
C1106  C1137   1.409   .     A
C1107  C1140   1.409   .     A
C1107  N1247   1.436   .     S
C1108  C1139   1.410   .     A
C1108  N1250   1.436   .     S
C1109  N1253   1.437   .     S
C1109  C1142   1.410   .     A
C1110  C1141   1.409   .     A
C1110  N1256   1.436   .     S
C1111  C1144   1.409   .     A
C1111  N1259   1.435   .     S
C1112  C1143   1.409   .     A
C1112  N1262   1.436   .     S
N1169  O1170   1.301   .     A
N1169  O1171   1.301   .     A
N1172  O1173   1.301   .     A
N1172  O1174   1.301   .     A
N1175  O1176   1.301   .     A
N1175  O1177   1.301   .     A
N1178  O1180   1.301   .     A
N1178  O1179   1.301   .     A
N1181  O1182   1.301   .     A
N1181  O1183   1.301   .     A
N1184  O1185   1.301   .     A
N1184  O1186   1.301   .     A
N1187  O1188   1.301   .     A
N1187  O1189   1.301   .     A
N1190  O1192   1.301   .     A
N1190  O1191   1.301   .     A
N1193  O1194   1.301   .     A
N1193  O1195   1.301   .     A
N1196  O1198   1.301   .     A
N1196  O1197   1.301   .     A
N1199  O1200   1.301   .     A
N1199  O1201   1.301   .     A
N1202  O1204   1.301   .     A
N1202  O1203   1.301   .     A
N1205  O1206   1.301   .     A
N1205  O1207   1.301   .     A
N1208  O1209   1.301   .     A
N1208  O1210   1.301   .     A
N1211  O1212   1.301   .     A
N1211  O1213   1.301   .     A
N1214  O1216   1.301   .     A
N1214  O1215   1.301   .     A
N1217  O1219   1.301   .     A
N1217  O1218   1.301   .     A
N1220  O1221   1.301   .     A
N1220  O1222   1.301   .     A
N1223  O1224   1.301   .     A
N1223  O1225   1.301   .     A
N1226  O1227   1.301   .     A
N1226  O1228   1.301   .     A
N1229  O1231   1.301   .     A
N1229  O1230   1.301   .     A
N1232  O1233   1.301   .     A
N1232  O1234   1.301   .     A
N1235  O1237   1.301   .     A
N1235  O1236   1.301   .     A
N1238  O1239   1.301   .     A
N1238  O1240   1.301   .     A
N1241  O1242   1.301   .     A
N1241  O1243   1.301   .     A
N1244  O1245   1.301   .     A
N1244  O1246   1.301   .     A
N1247  O1249   1.301   .     A
N1247  O1248   1.301   .     A
N1250  O1252   1.301   .     A
N1250  O1251   1.301   .     A
N1253  O1255   1.301   .     A
N1253  O1254   1.301   .     A
N1256  O1258   1.301   .     A
N1256  O1257   1.301   .     A
N1259  O1261   1.301   .     A
N1259  O1260   1.301   .     A
N1262  O1263   1.301   .     A
N1262  O1264   1.301   .     A
