data_str_m3_o1_o18_pcu_sym.194
_audit_creation_date              2020-01-03
_audit_creation_method            'Materials Studio'
_symmetry_space_group_name_H-M    'P1'
_symmetry_Int_Tables_number       1
_symmetry_cell_setting            triclinic
loop_
_symmetry_equiv_pos_as_xyz
  x,y,z
_cell_length_a                    29.5555
_cell_length_b                    32.1262
_cell_length_c                    31.3032
_cell_angle_alpha                 90.1984
_cell_angle_beta                  67.1687
_cell_angle_gamma                 89.9506
loop_
_atom_site_label
_atom_site_type_symbol
_atom_site_fract_x
_atom_site_fract_y
_atom_site_fract_z
_atom_site_U_iso_or_equiv
_atom_site_adp_type
_atom_site_occupancy
O1     O     0.12846   0.22775   0.25001   0.00000  Uiso   1.00
O2     O     0.20488   0.10558   0.25000   0.00000  Uiso   1.00
O3     O     0.20490   0.22774   0.25000   0.00000  Uiso   1.00
O4     O     0.12843   0.10559   0.25000   0.00000  Uiso   1.00
C5     C     0.16665   0.24669   0.25005   0.00000  Uiso   1.00
C6     C     0.16669   0.08664   0.24995   0.00000  Uiso   1.00
O7     O     0.10661   0.16667   0.31613   0.00000  Uiso   1.00
O8     O     0.22672   0.16666   0.18388   0.00000  Uiso   1.00
O9     O     0.18305   0.16666   0.31612   0.00000  Uiso   1.00
O10    O     0.15028   0.16667   0.18388   0.00000  Uiso   1.00
C11    C     0.13593   0.16561   0.33785   0.00000  Uiso   1.00
C12    C     0.19741   0.16772   0.16215   0.00000  Uiso   1.00
Zn13   Zn    0.11562   0.16667   0.25000   0.00000  Uiso   1.00
Zn14   Zn    0.21771   0.16666   0.25000   0.00000  Uiso   1.00
C15    C     0.11641   0.16784   0.38830   0.00000  Uiso   1.00
C16    C     0.21692   0.16550   0.11170   0.00000  Uiso   1.00
C17    C     0.07164   0.21193   0.45322   0.00000  Uiso   1.00
C18    C     0.26173   0.12143   0.04676   0.00000  Uiso   1.00
C19    C     0.07724   0.19488   0.41075   0.00000  Uiso   1.00
C20    C     0.25611   0.13848   0.08925   0.00000  Uiso   1.00
C21    C     0.14444   0.15126   0.41184   0.00000  Uiso   1.00
C22    C     0.18889   0.18207   0.08816   0.00000  Uiso   1.00
C23    C     0.13736   0.16703   0.45641   0.00000  Uiso   1.00
C24    C     0.19599   0.16632   0.04358   0.00000  Uiso   1.00
C25    C     0.10418   0.20088   0.47392   0.00000  Uiso   1.00
C26    C     0.22919   0.13248   0.02607   0.00000  Uiso   1.00
C27    C     0.16550   0.15373   0.48198   0.00000  Uiso   1.00
C28    C     0.16786   0.17961   0.01800   0.00000  Uiso   1.00
C29    C     0.14249   0.21795   0.02673   0.00000  Uiso   1.00
C30    C     0.19088   0.11540   0.47326   0.00000  Uiso   1.00
C31    C     0.10761   0.22629   0.00855   0.00000  Uiso   1.00
C32    C     0.22577   0.10707   0.49143   0.00000  Uiso   1.00
H33    H     0.08600   0.25460   0.01894   0.00000  Uiso   1.00
H34    H     0.24738   0.07876   0.48104   0.00000  Uiso   1.00
H35    H     0.27812   0.12625   0.10713   0.00000  Uiso   1.00
H36    H     0.05524   0.20712   0.39286   0.00000  Uiso   1.00
H37    H     0.04484   0.23653   0.46773   0.00000  Uiso   1.00
H38    H     0.28855   0.09684   0.03224   0.00000  Uiso   1.00
H39    H     0.14913   0.24222   0.04741   0.00000  Uiso   1.00
H40    H     0.18424   0.09113   0.45258   0.00000  Uiso   1.00
C41    C     0.20189   0.31203   0.26119   0.00000  Uiso   1.00
C42    C     0.13145   0.02130   0.23881   0.00000  Uiso   1.00
H43    H     0.22905   0.29577   0.27025   0.00000  Uiso   1.00
H44    H     0.10428   0.03757   0.22975   0.00000  Uiso   1.00
C45    C     0.20193   0.02134   0.26113   0.00000  Uiso   1.00
C46    C     0.13140   0.31199   0.23887   0.00000  Uiso   1.00
H47    H     0.22911   0.03763   0.27014   0.00000  Uiso   1.00
H48    H     0.10422   0.29570   0.22986   0.00000  Uiso   1.00
C49    C     0.16670   0.04249   0.24995   0.00000  Uiso   1.00
C50    C     0.16663   0.29084   0.25005   0.00000  Uiso   1.00
C51    C     0.32130   0.14120   0.22037   0.00000  Uiso   1.00
C52    C     0.01204   0.19213   0.27963   0.00000  Uiso   1.00
C53    C     0.03612   0.14130   0.22061   0.00000  Uiso   1.00
C54    C     0.29721   0.19204   0.27939   0.00000  Uiso   1.00
H55    H     0.06432   0.12114   0.19727   0.00000  Uiso   1.00
H56    H     0.26901   0.21220   0.30273   0.00000  Uiso   1.00
N57    N     0.04759   0.16668   0.25001   0.00000  Uiso   1.00
N58    N     0.28574   0.16666   0.24999   0.00000  Uiso   1.00
N59    N     0.14811   0.20880   0.11344   0.00000  Uiso   1.00
O60    O     0.15544   0.24305   0.13213   0.00000  Uiso   1.00
O61    O     0.10337   0.19586   0.12374   0.00000  Uiso   1.00
N62    N     0.18519   0.12451   0.38657   0.00000  Uiso   1.00
O63    O     0.22994   0.13742   0.37623   0.00000  Uiso   1.00
O64    O     0.17781   0.09025   0.36790   0.00000  Uiso   1.00
O65    O     0.30943   0.11587   0.19065   0.00000  Uiso   1.00
H66    H     0.00556   0.09958   0.17152   0.00000  Uiso   1.00
O67    O     0.02390   0.21746   0.30935   0.00000  Uiso   1.00
H68    H     0.32777   0.23375   0.32848   0.00000  Uiso   1.00
O69    O     0.46179   0.22775   0.25001   0.00000  Uiso   1.00
O70    O     0.53821   0.10558   0.25000   0.00000  Uiso   1.00
O71    O     0.53823   0.22774   0.25000   0.00000  Uiso   1.00
O72    O     0.46177   0.10559   0.25000   0.00000  Uiso   1.00
C73    C     0.49998   0.24669   0.25005   0.00000  Uiso   1.00
C74    C     0.50002   0.08664   0.24995   0.00000  Uiso   1.00
O75    O     0.43994   0.16667   0.31613   0.00000  Uiso   1.00
O76    O     0.56006   0.16666   0.18388   0.00000  Uiso   1.00
O77    O     0.51639   0.16666   0.31612   0.00000  Uiso   1.00
O78    O     0.48361   0.16667   0.18388   0.00000  Uiso   1.00
C79    C     0.46926   0.16561   0.33785   0.00000  Uiso   1.00
C80    C     0.53074   0.16772   0.16215   0.00000  Uiso   1.00
Zn81   Zn    0.44896   0.16667   0.25000   0.00000  Uiso   1.00
Zn82   Zn    0.55104   0.16666   0.25000   0.00000  Uiso   1.00
C83    C     0.44975   0.16784   0.38830   0.00000  Uiso   1.00
C84    C     0.55025   0.16550   0.11170   0.00000  Uiso   1.00
C85    C     0.40497   0.21193   0.45322   0.00000  Uiso   1.00
C86    C     0.59507   0.12143   0.04676   0.00000  Uiso   1.00
C87    C     0.41058   0.19488   0.41075   0.00000  Uiso   1.00
C88    C     0.58944   0.13848   0.08925   0.00000  Uiso   1.00
C89    C     0.47777   0.15126   0.41184   0.00000  Uiso   1.00
C90    C     0.52223   0.18207   0.08816   0.00000  Uiso   1.00
C91    C     0.47069   0.16703   0.45641   0.00000  Uiso   1.00
C92    C     0.52932   0.16632   0.04358   0.00000  Uiso   1.00
C93    C     0.43751   0.20088   0.47392   0.00000  Uiso   1.00
C94    C     0.56252   0.13248   0.02607   0.00000  Uiso   1.00
C95    C     0.49884   0.15373   0.48198   0.00000  Uiso   1.00
C96    C     0.50119   0.17961   0.01800   0.00000  Uiso   1.00
C97    C     0.47582   0.21795   0.02673   0.00000  Uiso   1.00
C98    C     0.52421   0.11540   0.47326   0.00000  Uiso   1.00
C99    C     0.44094   0.22629   0.00855   0.00000  Uiso   1.00
C100   C     0.55910   0.10707   0.49143   0.00000  Uiso   1.00
H101   H     0.41934   0.25460   0.01894   0.00000  Uiso   1.00
H102   H     0.58071   0.07876   0.48104   0.00000  Uiso   1.00
H103   H     0.61145   0.12625   0.10713   0.00000  Uiso   1.00
H104   H     0.38857   0.20712   0.39286   0.00000  Uiso   1.00
H105   H     0.37817   0.23653   0.46773   0.00000  Uiso   1.00
H106   H     0.62188   0.09684   0.03224   0.00000  Uiso   1.00
H107   H     0.48246   0.24222   0.04741   0.00000  Uiso   1.00
H108   H     0.51757   0.09113   0.45258   0.00000  Uiso   1.00
C109   C     0.53522   0.31203   0.26119   0.00000  Uiso   1.00
C110   C     0.46478   0.02130   0.23881   0.00000  Uiso   1.00
H111   H     0.56238   0.29577   0.27025   0.00000  Uiso   1.00
H112   H     0.43762   0.03757   0.22975   0.00000  Uiso   1.00
C113   C     0.53526   0.02134   0.26113   0.00000  Uiso   1.00
C114   C     0.46474   0.31199   0.23887   0.00000  Uiso   1.00
H115   H     0.56245   0.03763   0.27014   0.00000  Uiso   1.00
H116   H     0.43755   0.29570   0.22986   0.00000  Uiso   1.00
C117   C     0.50004   0.04249   0.24995   0.00000  Uiso   1.00
C118   C     0.49996   0.29084   0.25005   0.00000  Uiso   1.00
C119   C     0.65463   0.14120   0.22037   0.00000  Uiso   1.00
C120   C     0.34537   0.19213   0.27963   0.00000  Uiso   1.00
C121   C     0.36946   0.14130   0.22061   0.00000  Uiso   1.00
C122   C     0.63054   0.19204   0.27939   0.00000  Uiso   1.00
H123   H     0.39766   0.12114   0.19727   0.00000  Uiso   1.00
H124   H     0.60234   0.21220   0.30273   0.00000  Uiso   1.00
N125   N     0.38093   0.16668   0.25001   0.00000  Uiso   1.00
N126   N     0.61907   0.16666   0.24999   0.00000  Uiso   1.00
N127   N     0.48144   0.20880   0.11344   0.00000  Uiso   1.00
O128   O     0.48878   0.24305   0.13213   0.00000  Uiso   1.00
O129   O     0.43671   0.19586   0.12374   0.00000  Uiso   1.00
N130   N     0.51852   0.12451   0.38657   0.00000  Uiso   1.00
O131   O     0.56327   0.13742   0.37623   0.00000  Uiso   1.00
O132   O     0.51115   0.09025   0.36790   0.00000  Uiso   1.00
O133   O     0.64277   0.11587   0.19065   0.00000  Uiso   1.00
H134   H     0.33890   0.09958   0.17152   0.00000  Uiso   1.00
O135   O     0.35723   0.21746   0.30935   0.00000  Uiso   1.00
H136   H     0.66110   0.23375   0.32848   0.00000  Uiso   1.00
O137   O     0.79512   0.22775   0.25001   0.00000  Uiso   1.00
O138   O     0.87154   0.10558   0.25000   0.00000  Uiso   1.00
O139   O     0.87157   0.22774   0.25000   0.00000  Uiso   1.00
O140   O     0.79510   0.10559   0.25000   0.00000  Uiso   1.00
C141   C     0.83331   0.24669   0.25005   0.00000  Uiso   1.00
C142   C     0.83335   0.08664   0.24995   0.00000  Uiso   1.00
O143   O     0.77328   0.16667   0.31613   0.00000  Uiso   1.00
O144   O     0.89339   0.16666   0.18388   0.00000  Uiso   1.00
O145   O     0.84972   0.16666   0.31612   0.00000  Uiso   1.00
O146   O     0.81695   0.16667   0.18388   0.00000  Uiso   1.00
C147   C     0.80259   0.16561   0.33785   0.00000  Uiso   1.00
C148   C     0.86407   0.16772   0.16215   0.00000  Uiso   1.00
Zn149  Zn    0.78229   0.16667   0.25000   0.00000  Uiso   1.00
Zn150  Zn    0.88438   0.16666   0.25000   0.00000  Uiso   1.00
C151   C     0.78308   0.16784   0.38830   0.00000  Uiso   1.00
C152   C     0.88359   0.16550   0.11170   0.00000  Uiso   1.00
C153   C     0.73830   0.21193   0.45322   0.00000  Uiso   1.00
C154   C     0.92840   0.12143   0.04676   0.00000  Uiso   1.00
C155   C     0.74391   0.19488   0.41075   0.00000  Uiso   1.00
C156   C     0.92278   0.13848   0.08925   0.00000  Uiso   1.00
C157   C     0.81110   0.15126   0.41184   0.00000  Uiso   1.00
C158   C     0.85556   0.18207   0.08816   0.00000  Uiso   1.00
C159   C     0.80403   0.16703   0.45641   0.00000  Uiso   1.00
C160   C     0.86266   0.16632   0.04358   0.00000  Uiso   1.00
C161   C     0.77085   0.20088   0.47392   0.00000  Uiso   1.00
C162   C     0.89585   0.13248   0.02607   0.00000  Uiso   1.00
C163   C     0.83217   0.15373   0.48198   0.00000  Uiso   1.00
C164   C     0.83452   0.17961   0.01800   0.00000  Uiso   1.00
C165   C     0.80915   0.21795   0.02673   0.00000  Uiso   1.00
C166   C     0.85754   0.11540   0.47326   0.00000  Uiso   1.00
C167   C     0.77427   0.22629   0.00855   0.00000  Uiso   1.00
C168   C     0.89244   0.10707   0.49143   0.00000  Uiso   1.00
H169   H     0.75267   0.25460   0.01894   0.00000  Uiso   1.00
H170   H     0.91404   0.07876   0.48104   0.00000  Uiso   1.00
H171   H     0.94479   0.12625   0.10713   0.00000  Uiso   1.00
H172   H     0.72191   0.20712   0.39286   0.00000  Uiso   1.00
H173   H     0.71150   0.23653   0.46773   0.00000  Uiso   1.00
H174   H     0.95521   0.09684   0.03224   0.00000  Uiso   1.00
H175   H     0.81579   0.24222   0.04741   0.00000  Uiso   1.00
H176   H     0.85090   0.09113   0.45258   0.00000  Uiso   1.00
C177   C     0.86855   0.31203   0.26119   0.00000  Uiso   1.00
C178   C     0.79811   0.02130   0.23881   0.00000  Uiso   1.00
H179   H     0.89572   0.29577   0.27025   0.00000  Uiso   1.00
H180   H     0.77095   0.03757   0.22975   0.00000  Uiso   1.00
C181   C     0.86859   0.02134   0.26113   0.00000  Uiso   1.00
C182   C     0.79807   0.31199   0.23887   0.00000  Uiso   1.00
H183   H     0.89578   0.03763   0.27014   0.00000  Uiso   1.00
H184   H     0.77089   0.29570   0.22986   0.00000  Uiso   1.00
C185   C     0.83337   0.04249   0.24995   0.00000  Uiso   1.00
C186   C     0.83330   0.29084   0.25005   0.00000  Uiso   1.00
C187   C     0.98796   0.14120   0.22037   0.00000  Uiso   1.00
C188   C     0.67870   0.19213   0.27963   0.00000  Uiso   1.00
C189   C     0.70279   0.14130   0.22061   0.00000  Uiso   1.00
C190   C     0.96387   0.19204   0.27939   0.00000  Uiso   1.00
H191   H     0.73099   0.12114   0.19727   0.00000  Uiso   1.00
H192   H     0.93568   0.21220   0.30273   0.00000  Uiso   1.00
N193   N     0.71426   0.16668   0.25001   0.00000  Uiso   1.00
N194   N     0.95241   0.16666   0.24999   0.00000  Uiso   1.00
N195   N     0.81478   0.20880   0.11344   0.00000  Uiso   1.00
O196   O     0.82211   0.24305   0.13213   0.00000  Uiso   1.00
O197   O     0.77004   0.19586   0.12374   0.00000  Uiso   1.00
N198   N     0.85185   0.12451   0.38657   0.00000  Uiso   1.00
O199   O     0.89661   0.13742   0.37623   0.00000  Uiso   1.00
O200   O     0.84448   0.09025   0.36790   0.00000  Uiso   1.00
O201   O     0.97610   0.11587   0.19065   0.00000  Uiso   1.00
H202   H     0.67223   0.09958   0.17152   0.00000  Uiso   1.00
O203   O     0.69057   0.21746   0.30935   0.00000  Uiso   1.00
H204   H     0.99444   0.23375   0.32848   0.00000  Uiso   1.00
O205   O     0.12846   0.56108   0.25001   0.00000  Uiso   1.00
O206   O     0.20488   0.43892   0.25000   0.00000  Uiso   1.00
O207   O     0.20490   0.56107   0.25000   0.00000  Uiso   1.00
O208   O     0.12843   0.43893   0.25000   0.00000  Uiso   1.00
C209   C     0.16665   0.58003   0.25005   0.00000  Uiso   1.00
C210   C     0.16669   0.41997   0.24995   0.00000  Uiso   1.00
O211   O     0.10661   0.50001   0.31613   0.00000  Uiso   1.00
O212   O     0.22672   0.49999   0.18388   0.00000  Uiso   1.00
O213   O     0.18305   0.50000   0.31612   0.00000  Uiso   1.00
O214   O     0.15028   0.50000   0.18388   0.00000  Uiso   1.00
C215   C     0.13593   0.49895   0.33785   0.00000  Uiso   1.00
C216   C     0.19741   0.50105   0.16215   0.00000  Uiso   1.00
Zn217  Zn    0.11562   0.50001   0.25000   0.00000  Uiso   1.00
Zn218  Zn    0.21771   0.49999   0.25000   0.00000  Uiso   1.00
C219   C     0.11641   0.50118   0.38830   0.00000  Uiso   1.00
C220   C     0.21692   0.49883   0.11170   0.00000  Uiso   1.00
C221   C     0.07164   0.54527   0.45322   0.00000  Uiso   1.00
C222   C     0.26173   0.45477   0.04676   0.00000  Uiso   1.00
C223   C     0.07724   0.52822   0.41075   0.00000  Uiso   1.00
C224   C     0.25611   0.47181   0.08925   0.00000  Uiso   1.00
C225   C     0.14444   0.48460   0.41184   0.00000  Uiso   1.00
C226   C     0.18889   0.51540   0.08816   0.00000  Uiso   1.00
C227   C     0.13736   0.50036   0.45641   0.00000  Uiso   1.00
C228   C     0.19599   0.49965   0.04358   0.00000  Uiso   1.00
C229   C     0.10418   0.53421   0.47392   0.00000  Uiso   1.00
C230   C     0.22919   0.46581   0.02607   0.00000  Uiso   1.00
C231   C     0.16550   0.48707   0.48198   0.00000  Uiso   1.00
C232   C     0.16786   0.51295   0.01800   0.00000  Uiso   1.00
C233   C     0.14249   0.55128   0.02673   0.00000  Uiso   1.00
C234   C     0.19088   0.44873   0.47326   0.00000  Uiso   1.00
C235   C     0.10761   0.55962   0.00855   0.00000  Uiso   1.00
C236   C     0.22577   0.44040   0.49143   0.00000  Uiso   1.00
H237   H     0.08600   0.58793   0.01894   0.00000  Uiso   1.00
H238   H     0.24738   0.41209   0.48104   0.00000  Uiso   1.00
H239   H     0.27812   0.45958   0.10713   0.00000  Uiso   1.00
H240   H     0.05524   0.54045   0.39286   0.00000  Uiso   1.00
H241   H     0.04484   0.56987   0.46773   0.00000  Uiso   1.00
H242   H     0.28855   0.43017   0.03224   0.00000  Uiso   1.00
H243   H     0.14913   0.57555   0.04741   0.00000  Uiso   1.00
H244   H     0.18424   0.42446   0.45258   0.00000  Uiso   1.00
C245   C     0.20189   0.64536   0.26119   0.00000  Uiso   1.00
C246   C     0.13145   0.35464   0.23881   0.00000  Uiso   1.00
H247   H     0.22905   0.62910   0.27025   0.00000  Uiso   1.00
H248   H     0.10428   0.37090   0.22975   0.00000  Uiso   1.00
C249   C     0.20193   0.35467   0.26113   0.00000  Uiso   1.00
C250   C     0.13140   0.64533   0.23887   0.00000  Uiso   1.00
H251   H     0.22911   0.37097   0.27014   0.00000  Uiso   1.00
H252   H     0.10422   0.62903   0.22986   0.00000  Uiso   1.00
C253   C     0.16670   0.37582   0.24995   0.00000  Uiso   1.00
C254   C     0.16663   0.62418   0.25005   0.00000  Uiso   1.00
C255   C     0.32130   0.47454   0.22037   0.00000  Uiso   1.00
C256   C     0.01204   0.52546   0.27963   0.00000  Uiso   1.00
C257   C     0.03612   0.47463   0.22061   0.00000  Uiso   1.00
C258   C     0.29721   0.52537   0.27939   0.00000  Uiso   1.00
H259   H     0.06432   0.45447   0.19727   0.00000  Uiso   1.00
H260   H     0.26901   0.54553   0.30273   0.00000  Uiso   1.00
N261   N     0.04759   0.50001   0.25001   0.00000  Uiso   1.00
N262   N     0.28574   0.49999   0.24999   0.00000  Uiso   1.00
N263   N     0.14811   0.54213   0.11344   0.00000  Uiso   1.00
O264   O     0.15544   0.57638   0.13213   0.00000  Uiso   1.00
O265   O     0.10337   0.52919   0.12374   0.00000  Uiso   1.00
N266   N     0.18519   0.45784   0.38657   0.00000  Uiso   1.00
O267   O     0.22994   0.47075   0.37623   0.00000  Uiso   1.00
O268   O     0.17781   0.42359   0.36790   0.00000  Uiso   1.00
O269   O     0.30943   0.44921   0.19065   0.00000  Uiso   1.00
H270   H     0.00556   0.43291   0.17152   0.00000  Uiso   1.00
O271   O     0.02390   0.55079   0.30935   0.00000  Uiso   1.00
H272   H     0.32777   0.56709   0.32848   0.00000  Uiso   1.00
O273   O     0.46179   0.56108   0.25001   0.00000  Uiso   1.00
O274   O     0.53821   0.43892   0.25000   0.00000  Uiso   1.00
O275   O     0.53823   0.56107   0.25000   0.00000  Uiso   1.00
O276   O     0.46177   0.43893   0.25000   0.00000  Uiso   1.00
C277   C     0.49998   0.58003   0.25005   0.00000  Uiso   1.00
C278   C     0.50002   0.41997   0.24995   0.00000  Uiso   1.00
O279   O     0.43994   0.50001   0.31613   0.00000  Uiso   1.00
O280   O     0.56006   0.49999   0.18388   0.00000  Uiso   1.00
O281   O     0.51639   0.50000   0.31612   0.00000  Uiso   1.00
O282   O     0.48361   0.50000   0.18388   0.00000  Uiso   1.00
C283   C     0.46926   0.49895   0.33785   0.00000  Uiso   1.00
C284   C     0.53074   0.50105   0.16215   0.00000  Uiso   1.00
Zn285  Zn    0.44896   0.50001   0.25000   0.00000  Uiso   1.00
Zn286  Zn    0.55104   0.49999   0.25000   0.00000  Uiso   1.00
C287   C     0.44975   0.50118   0.38830   0.00000  Uiso   1.00
C288   C     0.55025   0.49883   0.11170   0.00000  Uiso   1.00
C289   C     0.40497   0.54527   0.45322   0.00000  Uiso   1.00
C290   C     0.59507   0.45477   0.04676   0.00000  Uiso   1.00
C291   C     0.41058   0.52822   0.41075   0.00000  Uiso   1.00
C292   C     0.58944   0.47181   0.08925   0.00000  Uiso   1.00
C293   C     0.47777   0.48460   0.41184   0.00000  Uiso   1.00
C294   C     0.52223   0.51540   0.08816   0.00000  Uiso   1.00
C295   C     0.47069   0.50036   0.45641   0.00000  Uiso   1.00
C296   C     0.52932   0.49965   0.04358   0.00000  Uiso   1.00
C297   C     0.43751   0.53421   0.47392   0.00000  Uiso   1.00
C298   C     0.56252   0.46581   0.02607   0.00000  Uiso   1.00
C299   C     0.49884   0.48707   0.48198   0.00000  Uiso   1.00
C300   C     0.50119   0.51295   0.01800   0.00000  Uiso   1.00
C301   C     0.47582   0.55128   0.02673   0.00000  Uiso   1.00
C302   C     0.52421   0.44873   0.47326   0.00000  Uiso   1.00
C303   C     0.44094   0.55962   0.00855   0.00000  Uiso   1.00
C304   C     0.55910   0.44040   0.49143   0.00000  Uiso   1.00
H305   H     0.41934   0.58793   0.01894   0.00000  Uiso   1.00
H306   H     0.58071   0.41209   0.48104   0.00000  Uiso   1.00
H307   H     0.61145   0.45958   0.10713   0.00000  Uiso   1.00
H308   H     0.38857   0.54045   0.39286   0.00000  Uiso   1.00
H309   H     0.37817   0.56987   0.46773   0.00000  Uiso   1.00
H310   H     0.62188   0.43017   0.03224   0.00000  Uiso   1.00
H311   H     0.48246   0.57555   0.04741   0.00000  Uiso   1.00
H312   H     0.51757   0.42446   0.45258   0.00000  Uiso   1.00
C313   C     0.53522   0.64536   0.26119   0.00000  Uiso   1.00
C314   C     0.46478   0.35464   0.23881   0.00000  Uiso   1.00
H315   H     0.56238   0.62910   0.27025   0.00000  Uiso   1.00
H316   H     0.43762   0.37090   0.22975   0.00000  Uiso   1.00
C317   C     0.53526   0.35467   0.26113   0.00000  Uiso   1.00
C318   C     0.46474   0.64533   0.23887   0.00000  Uiso   1.00
H319   H     0.56245   0.37097   0.27014   0.00000  Uiso   1.00
H320   H     0.43755   0.62903   0.22986   0.00000  Uiso   1.00
C321   C     0.50004   0.37582   0.24995   0.00000  Uiso   1.00
C322   C     0.49996   0.62418   0.25005   0.00000  Uiso   1.00
C323   C     0.65463   0.47454   0.22037   0.00000  Uiso   1.00
C324   C     0.34537   0.52546   0.27963   0.00000  Uiso   1.00
C325   C     0.36946   0.47463   0.22061   0.00000  Uiso   1.00
C326   C     0.63054   0.52537   0.27939   0.00000  Uiso   1.00
H327   H     0.39766   0.45447   0.19727   0.00000  Uiso   1.00
H328   H     0.60234   0.54553   0.30273   0.00000  Uiso   1.00
N329   N     0.38093   0.50001   0.25001   0.00000  Uiso   1.00
N330   N     0.61907   0.49999   0.24999   0.00000  Uiso   1.00
N331   N     0.48144   0.54213   0.11344   0.00000  Uiso   1.00
O332   O     0.48878   0.57638   0.13213   0.00000  Uiso   1.00
O333   O     0.43671   0.52919   0.12374   0.00000  Uiso   1.00
N334   N     0.51852   0.45784   0.38657   0.00000  Uiso   1.00
O335   O     0.56327   0.47075   0.37623   0.00000  Uiso   1.00
O336   O     0.51115   0.42359   0.36790   0.00000  Uiso   1.00
O337   O     0.64277   0.44921   0.19065   0.00000  Uiso   1.00
H338   H     0.33890   0.43291   0.17152   0.00000  Uiso   1.00
O339   O     0.35723   0.55079   0.30935   0.00000  Uiso   1.00
H340   H     0.66110   0.56709   0.32848   0.00000  Uiso   1.00
O341   O     0.79512   0.56108   0.25001   0.00000  Uiso   1.00
O342   O     0.87154   0.43892   0.25000   0.00000  Uiso   1.00
O343   O     0.87157   0.56107   0.25000   0.00000  Uiso   1.00
O344   O     0.79510   0.43893   0.25000   0.00000  Uiso   1.00
C345   C     0.83331   0.58003   0.25005   0.00000  Uiso   1.00
C346   C     0.83335   0.41997   0.24995   0.00000  Uiso   1.00
O347   O     0.77328   0.50001   0.31613   0.00000  Uiso   1.00
O348   O     0.89339   0.49999   0.18388   0.00000  Uiso   1.00
O349   O     0.84972   0.50000   0.31612   0.00000  Uiso   1.00
O350   O     0.81695   0.50000   0.18388   0.00000  Uiso   1.00
C351   C     0.80259   0.49895   0.33785   0.00000  Uiso   1.00
C352   C     0.86407   0.50105   0.16215   0.00000  Uiso   1.00
Zn353  Zn    0.78229   0.50001   0.25000   0.00000  Uiso   1.00
Zn354  Zn    0.88438   0.49999   0.25000   0.00000  Uiso   1.00
C355   C     0.78308   0.50118   0.38830   0.00000  Uiso   1.00
C356   C     0.88359   0.49883   0.11170   0.00000  Uiso   1.00
C357   C     0.73830   0.54527   0.45322   0.00000  Uiso   1.00
C358   C     0.92840   0.45477   0.04676   0.00000  Uiso   1.00
C359   C     0.74391   0.52822   0.41075   0.00000  Uiso   1.00
C360   C     0.92278   0.47181   0.08925   0.00000  Uiso   1.00
C361   C     0.81110   0.48460   0.41184   0.00000  Uiso   1.00
C362   C     0.85556   0.51540   0.08816   0.00000  Uiso   1.00
C363   C     0.80403   0.50036   0.45641   0.00000  Uiso   1.00
C364   C     0.86266   0.49965   0.04358   0.00000  Uiso   1.00
C365   C     0.77085   0.53421   0.47392   0.00000  Uiso   1.00
C366   C     0.89585   0.46581   0.02607   0.00000  Uiso   1.00
C367   C     0.83217   0.48707   0.48198   0.00000  Uiso   1.00
C368   C     0.83452   0.51295   0.01800   0.00000  Uiso   1.00
C369   C     0.80915   0.55128   0.02673   0.00000  Uiso   1.00
C370   C     0.85754   0.44873   0.47326   0.00000  Uiso   1.00
C371   C     0.77427   0.55962   0.00855   0.00000  Uiso   1.00
C372   C     0.89244   0.44040   0.49143   0.00000  Uiso   1.00
H373   H     0.75267   0.58793   0.01894   0.00000  Uiso   1.00
H374   H     0.91404   0.41209   0.48104   0.00000  Uiso   1.00
H375   H     0.94479   0.45958   0.10713   0.00000  Uiso   1.00
H376   H     0.72191   0.54045   0.39286   0.00000  Uiso   1.00
H377   H     0.71150   0.56987   0.46773   0.00000  Uiso   1.00
H378   H     0.95521   0.43017   0.03224   0.00000  Uiso   1.00
H379   H     0.81579   0.57555   0.04741   0.00000  Uiso   1.00
H380   H     0.85090   0.42446   0.45258   0.00000  Uiso   1.00
C381   C     0.86855   0.64536   0.26119   0.00000  Uiso   1.00
C382   C     0.79811   0.35464   0.23881   0.00000  Uiso   1.00
H383   H     0.89572   0.62910   0.27025   0.00000  Uiso   1.00
H384   H     0.77095   0.37090   0.22975   0.00000  Uiso   1.00
C385   C     0.86859   0.35467   0.26113   0.00000  Uiso   1.00
C386   C     0.79807   0.64533   0.23887   0.00000  Uiso   1.00
H387   H     0.89578   0.37097   0.27014   0.00000  Uiso   1.00
H388   H     0.77089   0.62903   0.22986   0.00000  Uiso   1.00
C389   C     0.83337   0.37582   0.24995   0.00000  Uiso   1.00
C390   C     0.83330   0.62418   0.25005   0.00000  Uiso   1.00
C391   C     0.98796   0.47454   0.22037   0.00000  Uiso   1.00
C392   C     0.67870   0.52546   0.27963   0.00000  Uiso   1.00
C393   C     0.70279   0.47463   0.22061   0.00000  Uiso   1.00
C394   C     0.96387   0.52537   0.27939   0.00000  Uiso   1.00
H395   H     0.73099   0.45447   0.19727   0.00000  Uiso   1.00
H396   H     0.93568   0.54553   0.30273   0.00000  Uiso   1.00
N397   N     0.71426   0.50001   0.25001   0.00000  Uiso   1.00
N398   N     0.95241   0.49999   0.24999   0.00000  Uiso   1.00
N399   N     0.81478   0.54213   0.11344   0.00000  Uiso   1.00
O400   O     0.82211   0.57638   0.13213   0.00000  Uiso   1.00
O401   O     0.77004   0.52919   0.12374   0.00000  Uiso   1.00
N402   N     0.85185   0.45784   0.38657   0.00000  Uiso   1.00
O403   O     0.89661   0.47075   0.37623   0.00000  Uiso   1.00
O404   O     0.84448   0.42359   0.36790   0.00000  Uiso   1.00
O405   O     0.97610   0.44921   0.19065   0.00000  Uiso   1.00
H406   H     0.67223   0.43291   0.17152   0.00000  Uiso   1.00
O407   O     0.69057   0.55079   0.30935   0.00000  Uiso   1.00
H408   H     0.99444   0.56709   0.32848   0.00000  Uiso   1.00
O409   O     0.12846   0.89442   0.25001   0.00000  Uiso   1.00
O410   O     0.20488   0.77225   0.25000   0.00000  Uiso   1.00
O411   O     0.20490   0.89441   0.25000   0.00000  Uiso   1.00
O412   O     0.12843   0.77226   0.25000   0.00000  Uiso   1.00
C413   C     0.16665   0.91336   0.25005   0.00000  Uiso   1.00
C414   C     0.16669   0.75331   0.24995   0.00000  Uiso   1.00
O415   O     0.10661   0.83334   0.31613   0.00000  Uiso   1.00
O416   O     0.22672   0.83333   0.18388   0.00000  Uiso   1.00
O417   O     0.18305   0.83333   0.31612   0.00000  Uiso   1.00
O418   O     0.15028   0.83334   0.18388   0.00000  Uiso   1.00
C419   C     0.13593   0.83228   0.33785   0.00000  Uiso   1.00
C420   C     0.19741   0.83439   0.16215   0.00000  Uiso   1.00
Zn421  Zn    0.11562   0.83334   0.25000   0.00000  Uiso   1.00
Zn422  Zn    0.21771   0.83333   0.25000   0.00000  Uiso   1.00
C423   C     0.11641   0.83451   0.38830   0.00000  Uiso   1.00
C424   C     0.21692   0.83217   0.11170   0.00000  Uiso   1.00
C425   C     0.07164   0.87860   0.45322   0.00000  Uiso   1.00
C426   C     0.26173   0.78810   0.04676   0.00000  Uiso   1.00
C427   C     0.07724   0.86155   0.41075   0.00000  Uiso   1.00
C428   C     0.25611   0.80514   0.08925   0.00000  Uiso   1.00
C429   C     0.14444   0.81793   0.41184   0.00000  Uiso   1.00
C430   C     0.18889   0.84874   0.08816   0.00000  Uiso   1.00
C431   C     0.13736   0.83369   0.45641   0.00000  Uiso   1.00
C432   C     0.19599   0.83299   0.04358   0.00000  Uiso   1.00
C433   C     0.10418   0.86754   0.47392   0.00000  Uiso   1.00
C434   C     0.22919   0.79915   0.02607   0.00000  Uiso   1.00
C435   C     0.16550   0.82040   0.48198   0.00000  Uiso   1.00
C436   C     0.16786   0.84628   0.01800   0.00000  Uiso   1.00
C437   C     0.14249   0.88462   0.02673   0.00000  Uiso   1.00
C438   C     0.19088   0.78207   0.47326   0.00000  Uiso   1.00
C439   C     0.10761   0.89296   0.00855   0.00000  Uiso   1.00
C440   C     0.22577   0.77373   0.49143   0.00000  Uiso   1.00
H441   H     0.08600   0.92127   0.01894   0.00000  Uiso   1.00
H442   H     0.24738   0.74543   0.48104   0.00000  Uiso   1.00
H443   H     0.27812   0.79292   0.10713   0.00000  Uiso   1.00
H444   H     0.05524   0.87378   0.39286   0.00000  Uiso   1.00
H445   H     0.04484   0.90320   0.46773   0.00000  Uiso   1.00
H446   H     0.28855   0.76351   0.03224   0.00000  Uiso   1.00
H447   H     0.14913   0.90888   0.04741   0.00000  Uiso   1.00
H448   H     0.18424   0.75779   0.45258   0.00000  Uiso   1.00
C449   C     0.20189   0.97870   0.26119   0.00000  Uiso   1.00
C450   C     0.13145   0.68797   0.23881   0.00000  Uiso   1.00
H451   H     0.22905   0.96243   0.27025   0.00000  Uiso   1.00
H452   H     0.10428   0.70423   0.22975   0.00000  Uiso   1.00
C453   C     0.20193   0.68801   0.26113   0.00000  Uiso   1.00
C454   C     0.13140   0.97866   0.23887   0.00000  Uiso   1.00
H455   H     0.22911   0.70430   0.27014   0.00000  Uiso   1.00
H456   H     0.10422   0.96237   0.22986   0.00000  Uiso   1.00
C457   C     0.16670   0.70916   0.24995   0.00000  Uiso   1.00
C458   C     0.16663   0.95751   0.25005   0.00000  Uiso   1.00
C459   C     0.32130   0.80787   0.22037   0.00000  Uiso   1.00
C460   C     0.01204   0.85880   0.27963   0.00000  Uiso   1.00
C461   C     0.03612   0.80796   0.22061   0.00000  Uiso   1.00
C462   C     0.29721   0.85870   0.27939   0.00000  Uiso   1.00
H463   H     0.06432   0.78780   0.19727   0.00000  Uiso   1.00
H464   H     0.26901   0.87886   0.30273   0.00000  Uiso   1.00
N465   N     0.04759   0.83334   0.25001   0.00000  Uiso   1.00
N466   N     0.28574   0.83332   0.24999   0.00000  Uiso   1.00
N467   N     0.14811   0.87546   0.11344   0.00000  Uiso   1.00
O468   O     0.15544   0.90972   0.13213   0.00000  Uiso   1.00
O469   O     0.10337   0.86253   0.12374   0.00000  Uiso   1.00
N470   N     0.18519   0.79117   0.38657   0.00000  Uiso   1.00
O471   O     0.22994   0.80409   0.37623   0.00000  Uiso   1.00
O472   O     0.17781   0.75692   0.36790   0.00000  Uiso   1.00
O473   O     0.30943   0.78254   0.19065   0.00000  Uiso   1.00
H474   H     0.00556   0.76625   0.17152   0.00000  Uiso   1.00
O475   O     0.02390   0.88413   0.30935   0.00000  Uiso   1.00
H476   H     0.32777   0.90042   0.32848   0.00000  Uiso   1.00
O477   O     0.46179   0.89442   0.25001   0.00000  Uiso   1.00
O478   O     0.53821   0.77225   0.25000   0.00000  Uiso   1.00
O479   O     0.53823   0.89441   0.25000   0.00000  Uiso   1.00
O480   O     0.46177   0.77226   0.25000   0.00000  Uiso   1.00
C481   C     0.49998   0.91336   0.25005   0.00000  Uiso   1.00
C482   C     0.50002   0.75331   0.24995   0.00000  Uiso   1.00
O483   O     0.43994   0.83334   0.31613   0.00000  Uiso   1.00
O484   O     0.56006   0.83333   0.18388   0.00000  Uiso   1.00
O485   O     0.51639   0.83333   0.31612   0.00000  Uiso   1.00
O486   O     0.48361   0.83334   0.18388   0.00000  Uiso   1.00
C487   C     0.46926   0.83228   0.33785   0.00000  Uiso   1.00
C488   C     0.53074   0.83439   0.16215   0.00000  Uiso   1.00
Zn489  Zn    0.44896   0.83334   0.25000   0.00000  Uiso   1.00
Zn490  Zn    0.55104   0.83333   0.25000   0.00000  Uiso   1.00
C491   C     0.44975   0.83451   0.38830   0.00000  Uiso   1.00
C492   C     0.55025   0.83217   0.11170   0.00000  Uiso   1.00
C493   C     0.40497   0.87860   0.45322   0.00000  Uiso   1.00
C494   C     0.59507   0.78810   0.04676   0.00000  Uiso   1.00
C495   C     0.41058   0.86155   0.41075   0.00000  Uiso   1.00
C496   C     0.58944   0.80514   0.08925   0.00000  Uiso   1.00
C497   C     0.47777   0.81793   0.41184   0.00000  Uiso   1.00
C498   C     0.52223   0.84874   0.08816   0.00000  Uiso   1.00
C499   C     0.47069   0.83369   0.45641   0.00000  Uiso   1.00
C500   C     0.52932   0.83299   0.04358   0.00000  Uiso   1.00
C501   C     0.43751   0.86754   0.47392   0.00000  Uiso   1.00
C502   C     0.56252   0.79915   0.02607   0.00000  Uiso   1.00
C503   C     0.49884   0.82040   0.48198   0.00000  Uiso   1.00
C504   C     0.50119   0.84628   0.01800   0.00000  Uiso   1.00
C505   C     0.47582   0.88462   0.02673   0.00000  Uiso   1.00
C506   C     0.52421   0.78207   0.47326   0.00000  Uiso   1.00
C507   C     0.44094   0.89296   0.00855   0.00000  Uiso   1.00
C508   C     0.55910   0.77373   0.49143   0.00000  Uiso   1.00
H509   H     0.41934   0.92127   0.01894   0.00000  Uiso   1.00
H510   H     0.58071   0.74543   0.48104   0.00000  Uiso   1.00
H511   H     0.61145   0.79292   0.10713   0.00000  Uiso   1.00
H512   H     0.38857   0.87378   0.39286   0.00000  Uiso   1.00
H513   H     0.37817   0.90320   0.46773   0.00000  Uiso   1.00
H514   H     0.62188   0.76351   0.03224   0.00000  Uiso   1.00
H515   H     0.48246   0.90888   0.04741   0.00000  Uiso   1.00
H516   H     0.51757   0.75779   0.45258   0.00000  Uiso   1.00
C517   C     0.53522   0.97870   0.26119   0.00000  Uiso   1.00
C518   C     0.46478   0.68797   0.23881   0.00000  Uiso   1.00
H519   H     0.56238   0.96243   0.27025   0.00000  Uiso   1.00
H520   H     0.43762   0.70423   0.22975   0.00000  Uiso   1.00
C521   C     0.53526   0.68801   0.26113   0.00000  Uiso   1.00
C522   C     0.46474   0.97866   0.23887   0.00000  Uiso   1.00
H523   H     0.56245   0.70430   0.27014   0.00000  Uiso   1.00
H524   H     0.43755   0.96237   0.22986   0.00000  Uiso   1.00
C525   C     0.50004   0.70916   0.24995   0.00000  Uiso   1.00
C526   C     0.49996   0.95751   0.25005   0.00000  Uiso   1.00
C527   C     0.65463   0.80787   0.22037   0.00000  Uiso   1.00
C528   C     0.34537   0.85880   0.27963   0.00000  Uiso   1.00
C529   C     0.36946   0.80796   0.22061   0.00000  Uiso   1.00
C530   C     0.63054   0.85870   0.27939   0.00000  Uiso   1.00
H531   H     0.39766   0.78780   0.19727   0.00000  Uiso   1.00
H532   H     0.60234   0.87886   0.30273   0.00000  Uiso   1.00
N533   N     0.38093   0.83334   0.25001   0.00000  Uiso   1.00
N534   N     0.61907   0.83332   0.24999   0.00000  Uiso   1.00
N535   N     0.48144   0.87546   0.11344   0.00000  Uiso   1.00
O536   O     0.48878   0.90972   0.13213   0.00000  Uiso   1.00
O537   O     0.43671   0.86253   0.12374   0.00000  Uiso   1.00
N538   N     0.51852   0.79117   0.38657   0.00000  Uiso   1.00
O539   O     0.56327   0.80409   0.37623   0.00000  Uiso   1.00
O540   O     0.51115   0.75692   0.36790   0.00000  Uiso   1.00
O541   O     0.64277   0.78254   0.19065   0.00000  Uiso   1.00
H542   H     0.33890   0.76625   0.17152   0.00000  Uiso   1.00
O543   O     0.35723   0.88413   0.30935   0.00000  Uiso   1.00
H544   H     0.66110   0.90042   0.32848   0.00000  Uiso   1.00
O545   O     0.79512   0.89442   0.25001   0.00000  Uiso   1.00
O546   O     0.87154   0.77225   0.25000   0.00000  Uiso   1.00
O547   O     0.87157   0.89441   0.25000   0.00000  Uiso   1.00
O548   O     0.79510   0.77226   0.25000   0.00000  Uiso   1.00
C549   C     0.83331   0.91336   0.25005   0.00000  Uiso   1.00
C550   C     0.83335   0.75331   0.24995   0.00000  Uiso   1.00
O551   O     0.77328   0.83334   0.31613   0.00000  Uiso   1.00
O552   O     0.89339   0.83333   0.18388   0.00000  Uiso   1.00
O553   O     0.84972   0.83333   0.31612   0.00000  Uiso   1.00
O554   O     0.81695   0.83334   0.18388   0.00000  Uiso   1.00
C555   C     0.80259   0.83228   0.33785   0.00000  Uiso   1.00
C556   C     0.86407   0.83439   0.16215   0.00000  Uiso   1.00
Zn557  Zn    0.78229   0.83334   0.25000   0.00000  Uiso   1.00
Zn558  Zn    0.88438   0.83333   0.25000   0.00000  Uiso   1.00
C559   C     0.78308   0.83451   0.38830   0.00000  Uiso   1.00
C560   C     0.88359   0.83217   0.11170   0.00000  Uiso   1.00
C561   C     0.73830   0.87860   0.45322   0.00000  Uiso   1.00
C562   C     0.92840   0.78810   0.04676   0.00000  Uiso   1.00
C563   C     0.74391   0.86155   0.41075   0.00000  Uiso   1.00
C564   C     0.92278   0.80514   0.08925   0.00000  Uiso   1.00
C565   C     0.81110   0.81793   0.41184   0.00000  Uiso   1.00
C566   C     0.85556   0.84874   0.08816   0.00000  Uiso   1.00
C567   C     0.80403   0.83369   0.45641   0.00000  Uiso   1.00
C568   C     0.86266   0.83299   0.04358   0.00000  Uiso   1.00
C569   C     0.77085   0.86754   0.47392   0.00000  Uiso   1.00
C570   C     0.89585   0.79915   0.02607   0.00000  Uiso   1.00
C571   C     0.83217   0.82040   0.48198   0.00000  Uiso   1.00
C572   C     0.83452   0.84628   0.01800   0.00000  Uiso   1.00
C573   C     0.80915   0.88462   0.02673   0.00000  Uiso   1.00
C574   C     0.85754   0.78207   0.47326   0.00000  Uiso   1.00
C575   C     0.77427   0.89296   0.00855   0.00000  Uiso   1.00
C576   C     0.89244   0.77373   0.49143   0.00000  Uiso   1.00
H577   H     0.75267   0.92127   0.01894   0.00000  Uiso   1.00
H578   H     0.91404   0.74543   0.48104   0.00000  Uiso   1.00
H579   H     0.94479   0.79292   0.10713   0.00000  Uiso   1.00
H580   H     0.72191   0.87378   0.39286   0.00000  Uiso   1.00
H581   H     0.71150   0.90320   0.46773   0.00000  Uiso   1.00
H582   H     0.95521   0.76351   0.03224   0.00000  Uiso   1.00
H583   H     0.81579   0.90888   0.04741   0.00000  Uiso   1.00
H584   H     0.85090   0.75779   0.45258   0.00000  Uiso   1.00
C585   C     0.86855   0.97870   0.26119   0.00000  Uiso   1.00
C586   C     0.79811   0.68797   0.23881   0.00000  Uiso   1.00
H587   H     0.89572   0.96243   0.27025   0.00000  Uiso   1.00
H588   H     0.77095   0.70423   0.22975   0.00000  Uiso   1.00
C589   C     0.86859   0.68801   0.26113   0.00000  Uiso   1.00
C590   C     0.79807   0.97866   0.23887   0.00000  Uiso   1.00
H591   H     0.89578   0.70430   0.27014   0.00000  Uiso   1.00
H592   H     0.77089   0.96237   0.22986   0.00000  Uiso   1.00
C593   C     0.83337   0.70916   0.24995   0.00000  Uiso   1.00
C594   C     0.83330   0.95751   0.25005   0.00000  Uiso   1.00
C595   C     0.98796   0.80787   0.22037   0.00000  Uiso   1.00
C596   C     0.67870   0.85880   0.27963   0.00000  Uiso   1.00
C597   C     0.70279   0.80796   0.22061   0.00000  Uiso   1.00
C598   C     0.96387   0.85870   0.27939   0.00000  Uiso   1.00
H599   H     0.73099   0.78780   0.19727   0.00000  Uiso   1.00
H600   H     0.93568   0.87886   0.30273   0.00000  Uiso   1.00
N601   N     0.71426   0.83334   0.25001   0.00000  Uiso   1.00
N602   N     0.95241   0.83332   0.24999   0.00000  Uiso   1.00
N603   N     0.81478   0.87546   0.11344   0.00000  Uiso   1.00
O604   O     0.82211   0.90972   0.13213   0.00000  Uiso   1.00
O605   O     0.77004   0.86253   0.12374   0.00000  Uiso   1.00
N606   N     0.85185   0.79117   0.38657   0.00000  Uiso   1.00
O607   O     0.89661   0.80409   0.37623   0.00000  Uiso   1.00
O608   O     0.84448   0.75692   0.36790   0.00000  Uiso   1.00
O609   O     0.97610   0.78254   0.19065   0.00000  Uiso   1.00
H610   H     0.67223   0.76625   0.17152   0.00000  Uiso   1.00
O611   O     0.69057   0.88413   0.30935   0.00000  Uiso   1.00
H612   H     0.99444   0.90042   0.32848   0.00000  Uiso   1.00
O613   O     0.12846   0.22775   0.75001   0.00000  Uiso   1.00
O614   O     0.20488   0.10558   0.75000   0.00000  Uiso   1.00
O615   O     0.20490   0.22774   0.75000   0.00000  Uiso   1.00
O616   O     0.12843   0.10559   0.75000   0.00000  Uiso   1.00
C617   C     0.16665   0.24669   0.75005   0.00000  Uiso   1.00
C618   C     0.16669   0.08664   0.74995   0.00000  Uiso   1.00
O619   O     0.10661   0.16667   0.81613   0.00000  Uiso   1.00
O620   O     0.22672   0.16666   0.68388   0.00000  Uiso   1.00
O621   O     0.18305   0.16666   0.81612   0.00000  Uiso   1.00
O622   O     0.15028   0.16667   0.68388   0.00000  Uiso   1.00
C623   C     0.13593   0.16561   0.83785   0.00000  Uiso   1.00
C624   C     0.19741   0.16772   0.66215   0.00000  Uiso   1.00
Zn625  Zn    0.11562   0.16667   0.75000   0.00000  Uiso   1.00
Zn626  Zn    0.21771   0.16666   0.75000   0.00000  Uiso   1.00
C627   C     0.11641   0.16784   0.88830   0.00000  Uiso   1.00
C628   C     0.21692   0.16550   0.61170   0.00000  Uiso   1.00
C629   C     0.07164   0.21193   0.95322   0.00000  Uiso   1.00
C630   C     0.26173   0.12143   0.54676   0.00000  Uiso   1.00
C631   C     0.07724   0.19488   0.91075   0.00000  Uiso   1.00
C632   C     0.25611   0.13848   0.58925   0.00000  Uiso   1.00
C633   C     0.14444   0.15126   0.91184   0.00000  Uiso   1.00
C634   C     0.18889   0.18207   0.58816   0.00000  Uiso   1.00
C635   C     0.13736   0.16703   0.95641   0.00000  Uiso   1.00
C636   C     0.19599   0.16632   0.54358   0.00000  Uiso   1.00
C637   C     0.10418   0.20088   0.97392   0.00000  Uiso   1.00
C638   C     0.22919   0.13248   0.52607   0.00000  Uiso   1.00
C639   C     0.16550   0.15373   0.98198   0.00000  Uiso   1.00
C640   C     0.16786   0.17961   0.51800   0.00000  Uiso   1.00
C641   C     0.14249   0.21795   0.52673   0.00000  Uiso   1.00
C642   C     0.19088   0.11540   0.97326   0.00000  Uiso   1.00
C643   C     0.10761   0.22629   0.50855   0.00000  Uiso   1.00
C644   C     0.22577   0.10707   0.99143   0.00000  Uiso   1.00
H645   H     0.08600   0.25460   0.51894   0.00000  Uiso   1.00
H646   H     0.24738   0.07876   0.98104   0.00000  Uiso   1.00
H647   H     0.27812   0.12625   0.60713   0.00000  Uiso   1.00
H648   H     0.05524   0.20712   0.89286   0.00000  Uiso   1.00
H649   H     0.04484   0.23653   0.96773   0.00000  Uiso   1.00
H650   H     0.28855   0.09684   0.53224   0.00000  Uiso   1.00
H651   H     0.14913   0.24222   0.54741   0.00000  Uiso   1.00
H652   H     0.18424   0.09113   0.95258   0.00000  Uiso   1.00
C653   C     0.20189   0.31203   0.76119   0.00000  Uiso   1.00
C654   C     0.13145   0.02130   0.73881   0.00000  Uiso   1.00
H655   H     0.22905   0.29577   0.77025   0.00000  Uiso   1.00
H656   H     0.10428   0.03757   0.72975   0.00000  Uiso   1.00
C657   C     0.20193   0.02134   0.76113   0.00000  Uiso   1.00
C658   C     0.13140   0.31199   0.73887   0.00000  Uiso   1.00
H659   H     0.22911   0.03763   0.77014   0.00000  Uiso   1.00
H660   H     0.10422   0.29570   0.72986   0.00000  Uiso   1.00
C661   C     0.16670   0.04249   0.74995   0.00000  Uiso   1.00
C662   C     0.16663   0.29084   0.75005   0.00000  Uiso   1.00
C663   C     0.32130   0.14120   0.72037   0.00000  Uiso   1.00
C664   C     0.01204   0.19213   0.77963   0.00000  Uiso   1.00
C665   C     0.03612   0.14130   0.72061   0.00000  Uiso   1.00
C666   C     0.29721   0.19204   0.77939   0.00000  Uiso   1.00
H667   H     0.06432   0.12114   0.69727   0.00000  Uiso   1.00
H668   H     0.26901   0.21220   0.80273   0.00000  Uiso   1.00
N669   N     0.04759   0.16668   0.75001   0.00000  Uiso   1.00
N670   N     0.28574   0.16666   0.74999   0.00000  Uiso   1.00
N671   N     0.14811   0.20880   0.61344   0.00000  Uiso   1.00
O672   O     0.15544   0.24305   0.63213   0.00000  Uiso   1.00
O673   O     0.10337   0.19586   0.62374   0.00000  Uiso   1.00
N674   N     0.18519   0.12451   0.88657   0.00000  Uiso   1.00
O675   O     0.22994   0.13742   0.87623   0.00000  Uiso   1.00
O676   O     0.17781   0.09025   0.86790   0.00000  Uiso   1.00
O677   O     0.30943   0.11587   0.69065   0.00000  Uiso   1.00
H678   H     0.00556   0.09958   0.67152   0.00000  Uiso   1.00
O679   O     0.02390   0.21746   0.80935   0.00000  Uiso   1.00
H680   H     0.32777   0.23375   0.82848   0.00000  Uiso   1.00
O681   O     0.46179   0.22775   0.75001   0.00000  Uiso   1.00
O682   O     0.53821   0.10558   0.75000   0.00000  Uiso   1.00
O683   O     0.53823   0.22774   0.75000   0.00000  Uiso   1.00
O684   O     0.46177   0.10559   0.75000   0.00000  Uiso   1.00
C685   C     0.49998   0.24669   0.75005   0.00000  Uiso   1.00
C686   C     0.50002   0.08664   0.74995   0.00000  Uiso   1.00
O687   O     0.43994   0.16667   0.81613   0.00000  Uiso   1.00
O688   O     0.56006   0.16666   0.68388   0.00000  Uiso   1.00
O689   O     0.51639   0.16666   0.81612   0.00000  Uiso   1.00
O690   O     0.48361   0.16667   0.68388   0.00000  Uiso   1.00
C691   C     0.46926   0.16561   0.83785   0.00000  Uiso   1.00
C692   C     0.53074   0.16772   0.66215   0.00000  Uiso   1.00
Zn693  Zn    0.44896   0.16667   0.75000   0.00000  Uiso   1.00
Zn694  Zn    0.55104   0.16666   0.75000   0.00000  Uiso   1.00
C695   C     0.44975   0.16784   0.88830   0.00000  Uiso   1.00
C696   C     0.55025   0.16550   0.61170   0.00000  Uiso   1.00
C697   C     0.40497   0.21193   0.95322   0.00000  Uiso   1.00
C698   C     0.59507   0.12143   0.54676   0.00000  Uiso   1.00
C699   C     0.41058   0.19488   0.91075   0.00000  Uiso   1.00
C700   C     0.58944   0.13848   0.58925   0.00000  Uiso   1.00
C701   C     0.47777   0.15126   0.91184   0.00000  Uiso   1.00
C702   C     0.52223   0.18207   0.58816   0.00000  Uiso   1.00
C703   C     0.47069   0.16703   0.95641   0.00000  Uiso   1.00
C704   C     0.52932   0.16632   0.54358   0.00000  Uiso   1.00
C705   C     0.43751   0.20088   0.97392   0.00000  Uiso   1.00
C706   C     0.56252   0.13248   0.52607   0.00000  Uiso   1.00
C707   C     0.49884   0.15373   0.98198   0.00000  Uiso   1.00
C708   C     0.50119   0.17961   0.51800   0.00000  Uiso   1.00
C709   C     0.47582   0.21795   0.52673   0.00000  Uiso   1.00
C710   C     0.52421   0.11540   0.97326   0.00000  Uiso   1.00
C711   C     0.44094   0.22629   0.50855   0.00000  Uiso   1.00
C712   C     0.55910   0.10707   0.99143   0.00000  Uiso   1.00
H713   H     0.41934   0.25460   0.51894   0.00000  Uiso   1.00
H714   H     0.58071   0.07876   0.98104   0.00000  Uiso   1.00
H715   H     0.61145   0.12625   0.60713   0.00000  Uiso   1.00
H716   H     0.38857   0.20712   0.89286   0.00000  Uiso   1.00
H717   H     0.37817   0.23653   0.96773   0.00000  Uiso   1.00
H718   H     0.62188   0.09684   0.53224   0.00000  Uiso   1.00
H719   H     0.48246   0.24222   0.54741   0.00000  Uiso   1.00
H720   H     0.51757   0.09113   0.95258   0.00000  Uiso   1.00
C721   C     0.53522   0.31203   0.76119   0.00000  Uiso   1.00
C722   C     0.46478   0.02130   0.73881   0.00000  Uiso   1.00
H723   H     0.56238   0.29577   0.77025   0.00000  Uiso   1.00
H724   H     0.43762   0.03757   0.72975   0.00000  Uiso   1.00
C725   C     0.53526   0.02134   0.76113   0.00000  Uiso   1.00
C726   C     0.46474   0.31199   0.73887   0.00000  Uiso   1.00
H727   H     0.56245   0.03763   0.77014   0.00000  Uiso   1.00
H728   H     0.43755   0.29570   0.72986   0.00000  Uiso   1.00
C729   C     0.50004   0.04249   0.74995   0.00000  Uiso   1.00
C730   C     0.49996   0.29084   0.75005   0.00000  Uiso   1.00
C731   C     0.65463   0.14120   0.72037   0.00000  Uiso   1.00
C732   C     0.34537   0.19213   0.77963   0.00000  Uiso   1.00
C733   C     0.36946   0.14130   0.72061   0.00000  Uiso   1.00
C734   C     0.63054   0.19204   0.77939   0.00000  Uiso   1.00
H735   H     0.39766   0.12114   0.69727   0.00000  Uiso   1.00
H736   H     0.60234   0.21220   0.80273   0.00000  Uiso   1.00
N737   N     0.38093   0.16668   0.75001   0.00000  Uiso   1.00
N738   N     0.61907   0.16666   0.74999   0.00000  Uiso   1.00
N739   N     0.48144   0.20880   0.61344   0.00000  Uiso   1.00
O740   O     0.48878   0.24305   0.63213   0.00000  Uiso   1.00
O741   O     0.43671   0.19586   0.62374   0.00000  Uiso   1.00
N742   N     0.51852   0.12451   0.88657   0.00000  Uiso   1.00
O743   O     0.56327   0.13742   0.87623   0.00000  Uiso   1.00
O744   O     0.51115   0.09025   0.86790   0.00000  Uiso   1.00
O745   O     0.64277   0.11587   0.69065   0.00000  Uiso   1.00
H746   H     0.33890   0.09958   0.67152   0.00000  Uiso   1.00
O747   O     0.35723   0.21746   0.80935   0.00000  Uiso   1.00
H748   H     0.66110   0.23375   0.82848   0.00000  Uiso   1.00
O749   O     0.79512   0.22775   0.75001   0.00000  Uiso   1.00
O750   O     0.87154   0.10558   0.75000   0.00000  Uiso   1.00
O751   O     0.87157   0.22774   0.75000   0.00000  Uiso   1.00
O752   O     0.79510   0.10559   0.75000   0.00000  Uiso   1.00
C753   C     0.83331   0.24669   0.75005   0.00000  Uiso   1.00
C754   C     0.83335   0.08664   0.74995   0.00000  Uiso   1.00
O755   O     0.77328   0.16667   0.81613   0.00000  Uiso   1.00
O756   O     0.89339   0.16666   0.68388   0.00000  Uiso   1.00
O757   O     0.84972   0.16666   0.81612   0.00000  Uiso   1.00
O758   O     0.81695   0.16667   0.68388   0.00000  Uiso   1.00
C759   C     0.80259   0.16561   0.83785   0.00000  Uiso   1.00
C760   C     0.86407   0.16772   0.66215   0.00000  Uiso   1.00
Zn761  Zn    0.78229   0.16667   0.75000   0.00000  Uiso   1.00
Zn762  Zn    0.88438   0.16666   0.75000   0.00000  Uiso   1.00
C763   C     0.78308   0.16784   0.88830   0.00000  Uiso   1.00
C764   C     0.88359   0.16550   0.61170   0.00000  Uiso   1.00
C765   C     0.73830   0.21193   0.95322   0.00000  Uiso   1.00
C766   C     0.92840   0.12143   0.54676   0.00000  Uiso   1.00
C767   C     0.74391   0.19488   0.91075   0.00000  Uiso   1.00
C768   C     0.92278   0.13848   0.58925   0.00000  Uiso   1.00
C769   C     0.81110   0.15126   0.91184   0.00000  Uiso   1.00
C770   C     0.85556   0.18207   0.58816   0.00000  Uiso   1.00
C771   C     0.80403   0.16703   0.95641   0.00000  Uiso   1.00
C772   C     0.86266   0.16632   0.54358   0.00000  Uiso   1.00
C773   C     0.77085   0.20088   0.97392   0.00000  Uiso   1.00
C774   C     0.89585   0.13248   0.52607   0.00000  Uiso   1.00
C775   C     0.83217   0.15373   0.98198   0.00000  Uiso   1.00
C776   C     0.83452   0.17961   0.51800   0.00000  Uiso   1.00
C777   C     0.80915   0.21795   0.52673   0.00000  Uiso   1.00
C778   C     0.85754   0.11540   0.97326   0.00000  Uiso   1.00
C779   C     0.77427   0.22629   0.50855   0.00000  Uiso   1.00
C780   C     0.89244   0.10707   0.99143   0.00000  Uiso   1.00
H781   H     0.75267   0.25460   0.51894   0.00000  Uiso   1.00
H782   H     0.91404   0.07876   0.98104   0.00000  Uiso   1.00
H783   H     0.94479   0.12625   0.60713   0.00000  Uiso   1.00
H784   H     0.72191   0.20712   0.89286   0.00000  Uiso   1.00
H785   H     0.71150   0.23653   0.96773   0.00000  Uiso   1.00
H786   H     0.95521   0.09684   0.53224   0.00000  Uiso   1.00
H787   H     0.81579   0.24222   0.54741   0.00000  Uiso   1.00
H788   H     0.85090   0.09113   0.95258   0.00000  Uiso   1.00
C789   C     0.86855   0.31203   0.76119   0.00000  Uiso   1.00
C790   C     0.79811   0.02130   0.73881   0.00000  Uiso   1.00
H791   H     0.89572   0.29577   0.77025   0.00000  Uiso   1.00
H792   H     0.77095   0.03757   0.72975   0.00000  Uiso   1.00
C793   C     0.86859   0.02134   0.76113   0.00000  Uiso   1.00
C794   C     0.79807   0.31199   0.73887   0.00000  Uiso   1.00
H795   H     0.89578   0.03763   0.77014   0.00000  Uiso   1.00
H796   H     0.77089   0.29570   0.72986   0.00000  Uiso   1.00
C797   C     0.83337   0.04249   0.74995   0.00000  Uiso   1.00
C798   C     0.83330   0.29084   0.75005   0.00000  Uiso   1.00
C799   C     0.98796   0.14120   0.72037   0.00000  Uiso   1.00
C800   C     0.67870   0.19213   0.77963   0.00000  Uiso   1.00
C801   C     0.70279   0.14130   0.72061   0.00000  Uiso   1.00
C802   C     0.96387   0.19204   0.77939   0.00000  Uiso   1.00
H803   H     0.73099   0.12114   0.69727   0.00000  Uiso   1.00
H804   H     0.93568   0.21220   0.80273   0.00000  Uiso   1.00
N805   N     0.71426   0.16668   0.75001   0.00000  Uiso   1.00
N806   N     0.95241   0.16666   0.74999   0.00000  Uiso   1.00
N807   N     0.81478   0.20880   0.61344   0.00000  Uiso   1.00
O808   O     0.82211   0.24305   0.63213   0.00000  Uiso   1.00
O809   O     0.77004   0.19586   0.62374   0.00000  Uiso   1.00
N810   N     0.85185   0.12451   0.88657   0.00000  Uiso   1.00
O811   O     0.89661   0.13742   0.87623   0.00000  Uiso   1.00
O812   O     0.84448   0.09025   0.86790   0.00000  Uiso   1.00
O813   O     0.97610   0.11587   0.69065   0.00000  Uiso   1.00
H814   H     0.67223   0.09958   0.67152   0.00000  Uiso   1.00
O815   O     0.69057   0.21746   0.80935   0.00000  Uiso   1.00
H816   H     0.99444   0.23375   0.82848   0.00000  Uiso   1.00
O817   O     0.12846   0.56108   0.75001   0.00000  Uiso   1.00
O818   O     0.20488   0.43892   0.75000   0.00000  Uiso   1.00
O819   O     0.20490   0.56107   0.75000   0.00000  Uiso   1.00
O820   O     0.12843   0.43893   0.75000   0.00000  Uiso   1.00
C821   C     0.16665   0.58003   0.75005   0.00000  Uiso   1.00
C822   C     0.16669   0.41997   0.74995   0.00000  Uiso   1.00
O823   O     0.10661   0.50001   0.81613   0.00000  Uiso   1.00
O824   O     0.22672   0.49999   0.68388   0.00000  Uiso   1.00
O825   O     0.18305   0.50000   0.81612   0.00000  Uiso   1.00
O826   O     0.15028   0.50000   0.68388   0.00000  Uiso   1.00
C827   C     0.13593   0.49895   0.83785   0.00000  Uiso   1.00
C828   C     0.19741   0.50105   0.66215   0.00000  Uiso   1.00
Zn829  Zn    0.11562   0.50001   0.75000   0.00000  Uiso   1.00
Zn830  Zn    0.21771   0.49999   0.75000   0.00000  Uiso   1.00
C831   C     0.11641   0.50118   0.88830   0.00000  Uiso   1.00
C832   C     0.21692   0.49883   0.61170   0.00000  Uiso   1.00
C833   C     0.07164   0.54527   0.95322   0.00000  Uiso   1.00
C834   C     0.26173   0.45477   0.54676   0.00000  Uiso   1.00
C835   C     0.07724   0.52822   0.91075   0.00000  Uiso   1.00
C836   C     0.25611   0.47181   0.58925   0.00000  Uiso   1.00
C837   C     0.14444   0.48460   0.91184   0.00000  Uiso   1.00
C838   C     0.18889   0.51540   0.58816   0.00000  Uiso   1.00
C839   C     0.13736   0.50036   0.95641   0.00000  Uiso   1.00
C840   C     0.19599   0.49965   0.54358   0.00000  Uiso   1.00
C841   C     0.10418   0.53421   0.97392   0.00000  Uiso   1.00
C842   C     0.22919   0.46581   0.52607   0.00000  Uiso   1.00
C843   C     0.16550   0.48707   0.98198   0.00000  Uiso   1.00
C844   C     0.16786   0.51295   0.51800   0.00000  Uiso   1.00
C845   C     0.14249   0.55128   0.52673   0.00000  Uiso   1.00
C846   C     0.19088   0.44873   0.97326   0.00000  Uiso   1.00
C847   C     0.10761   0.55962   0.50855   0.00000  Uiso   1.00
C848   C     0.22577   0.44040   0.99143   0.00000  Uiso   1.00
H849   H     0.08600   0.58793   0.51894   0.00000  Uiso   1.00
H850   H     0.24738   0.41209   0.98104   0.00000  Uiso   1.00
H851   H     0.27812   0.45958   0.60713   0.00000  Uiso   1.00
H852   H     0.05524   0.54045   0.89286   0.00000  Uiso   1.00
H853   H     0.04484   0.56987   0.96773   0.00000  Uiso   1.00
H854   H     0.28855   0.43017   0.53224   0.00000  Uiso   1.00
H855   H     0.14913   0.57555   0.54741   0.00000  Uiso   1.00
H856   H     0.18424   0.42446   0.95258   0.00000  Uiso   1.00
C857   C     0.20189   0.64536   0.76119   0.00000  Uiso   1.00
C858   C     0.13145   0.35464   0.73881   0.00000  Uiso   1.00
H859   H     0.22905   0.62910   0.77025   0.00000  Uiso   1.00
H860   H     0.10428   0.37090   0.72975   0.00000  Uiso   1.00
C861   C     0.20193   0.35467   0.76113   0.00000  Uiso   1.00
C862   C     0.13140   0.64533   0.73887   0.00000  Uiso   1.00
H863   H     0.22911   0.37097   0.77014   0.00000  Uiso   1.00
H864   H     0.10422   0.62903   0.72986   0.00000  Uiso   1.00
C865   C     0.16670   0.37582   0.74995   0.00000  Uiso   1.00
C866   C     0.16663   0.62418   0.75005   0.00000  Uiso   1.00
C867   C     0.32130   0.47454   0.72037   0.00000  Uiso   1.00
C868   C     0.01204   0.52546   0.77963   0.00000  Uiso   1.00
C869   C     0.03612   0.47463   0.72061   0.00000  Uiso   1.00
C870   C     0.29721   0.52537   0.77939   0.00000  Uiso   1.00
H871   H     0.06432   0.45447   0.69727   0.00000  Uiso   1.00
H872   H     0.26901   0.54553   0.80273   0.00000  Uiso   1.00
N873   N     0.04759   0.50001   0.75001   0.00000  Uiso   1.00
N874   N     0.28574   0.49999   0.74999   0.00000  Uiso   1.00
N875   N     0.14811   0.54213   0.61344   0.00000  Uiso   1.00
O876   O     0.15544   0.57638   0.63213   0.00000  Uiso   1.00
O877   O     0.10337   0.52919   0.62374   0.00000  Uiso   1.00
N878   N     0.18519   0.45784   0.88657   0.00000  Uiso   1.00
O879   O     0.22994   0.47075   0.87623   0.00000  Uiso   1.00
O880   O     0.17781   0.42359   0.86790   0.00000  Uiso   1.00
O881   O     0.30943   0.44921   0.69065   0.00000  Uiso   1.00
H882   H     0.00556   0.43291   0.67152   0.00000  Uiso   1.00
O883   O     0.02390   0.55079   0.80935   0.00000  Uiso   1.00
H884   H     0.32777   0.56709   0.82848   0.00000  Uiso   1.00
O885   O     0.46179   0.56108   0.75001   0.00000  Uiso   1.00
O886   O     0.53821   0.43892   0.75000   0.00000  Uiso   1.00
O887   O     0.53823   0.56107   0.75000   0.00000  Uiso   1.00
O888   O     0.46177   0.43893   0.75000   0.00000  Uiso   1.00
C889   C     0.49998   0.58003   0.75005   0.00000  Uiso   1.00
C890   C     0.50002   0.41997   0.74995   0.00000  Uiso   1.00
O891   O     0.43994   0.50001   0.81613   0.00000  Uiso   1.00
O892   O     0.56006   0.49999   0.68388   0.00000  Uiso   1.00
O893   O     0.51639   0.50000   0.81612   0.00000  Uiso   1.00
O894   O     0.48361   0.50000   0.68388   0.00000  Uiso   1.00
C895   C     0.46926   0.49895   0.83785   0.00000  Uiso   1.00
C896   C     0.53074   0.50105   0.66215   0.00000  Uiso   1.00
Zn897  Zn    0.44896   0.50001   0.75000   0.00000  Uiso   1.00
Zn898  Zn    0.55104   0.49999   0.75000   0.00000  Uiso   1.00
C899   C     0.44975   0.50118   0.88830   0.00000  Uiso   1.00
C900   C     0.55025   0.49883   0.61170   0.00000  Uiso   1.00
C901   C     0.40497   0.54527   0.95322   0.00000  Uiso   1.00
C902   C     0.59507   0.45477   0.54676   0.00000  Uiso   1.00
C903   C     0.41058   0.52822   0.91075   0.00000  Uiso   1.00
C904   C     0.58944   0.47181   0.58925   0.00000  Uiso   1.00
C905   C     0.47777   0.48460   0.91184   0.00000  Uiso   1.00
C906   C     0.52223   0.51540   0.58816   0.00000  Uiso   1.00
C907   C     0.47069   0.50036   0.95641   0.00000  Uiso   1.00
C908   C     0.52932   0.49965   0.54358   0.00000  Uiso   1.00
C909   C     0.43751   0.53421   0.97392   0.00000  Uiso   1.00
C910   C     0.56252   0.46581   0.52607   0.00000  Uiso   1.00
C911   C     0.49884   0.48707   0.98198   0.00000  Uiso   1.00
C912   C     0.50119   0.51295   0.51800   0.00000  Uiso   1.00
C913   C     0.47582   0.55128   0.52673   0.00000  Uiso   1.00
C914   C     0.52421   0.44873   0.97326   0.00000  Uiso   1.00
C915   C     0.44094   0.55962   0.50855   0.00000  Uiso   1.00
C916   C     0.55910   0.44040   0.99143   0.00000  Uiso   1.00
H917   H     0.41934   0.58793   0.51894   0.00000  Uiso   1.00
H918   H     0.58071   0.41209   0.98104   0.00000  Uiso   1.00
H919   H     0.61145   0.45958   0.60713   0.00000  Uiso   1.00
H920   H     0.38857   0.54045   0.89286   0.00000  Uiso   1.00
H921   H     0.37817   0.56987   0.96773   0.00000  Uiso   1.00
H922   H     0.62188   0.43017   0.53224   0.00000  Uiso   1.00
H923   H     0.48246   0.57555   0.54741   0.00000  Uiso   1.00
H924   H     0.51757   0.42446   0.95258   0.00000  Uiso   1.00
C925   C     0.53522   0.64536   0.76119   0.00000  Uiso   1.00
C926   C     0.46478   0.35464   0.73881   0.00000  Uiso   1.00
H927   H     0.56238   0.62910   0.77025   0.00000  Uiso   1.00
H928   H     0.43762   0.37090   0.72975   0.00000  Uiso   1.00
C929   C     0.53526   0.35467   0.76113   0.00000  Uiso   1.00
C930   C     0.46474   0.64533   0.73887   0.00000  Uiso   1.00
H931   H     0.56245   0.37097   0.77014   0.00000  Uiso   1.00
H932   H     0.43755   0.62903   0.72986   0.00000  Uiso   1.00
C933   C     0.50004   0.37582   0.74995   0.00000  Uiso   1.00
C934   C     0.49996   0.62418   0.75005   0.00000  Uiso   1.00
C935   C     0.65463   0.47454   0.72037   0.00000  Uiso   1.00
C936   C     0.34537   0.52546   0.77963   0.00000  Uiso   1.00
C937   C     0.36946   0.47463   0.72061   0.00000  Uiso   1.00
C938   C     0.63054   0.52537   0.77939   0.00000  Uiso   1.00
H939   H     0.39766   0.45447   0.69727   0.00000  Uiso   1.00
H940   H     0.60234   0.54553   0.80273   0.00000  Uiso   1.00
N941   N     0.38093   0.50001   0.75001   0.00000  Uiso   1.00
N942   N     0.61907   0.49999   0.74999   0.00000  Uiso   1.00
N943   N     0.48144   0.54213   0.61344   0.00000  Uiso   1.00
O944   O     0.48878   0.57638   0.63213   0.00000  Uiso   1.00
O945   O     0.43671   0.52919   0.62374   0.00000  Uiso   1.00
N946   N     0.51852   0.45784   0.88657   0.00000  Uiso   1.00
O947   O     0.56327   0.47075   0.87623   0.00000  Uiso   1.00
O948   O     0.51115   0.42359   0.86790   0.00000  Uiso   1.00
O949   O     0.64277   0.44921   0.69065   0.00000  Uiso   1.00
H950   H     0.33890   0.43291   0.67152   0.00000  Uiso   1.00
O951   O     0.35723   0.55079   0.80935   0.00000  Uiso   1.00
H952   H     0.66110   0.56709   0.82848   0.00000  Uiso   1.00
O953   O     0.79512   0.56108   0.75001   0.00000  Uiso   1.00
O954   O     0.87154   0.43892   0.75000   0.00000  Uiso   1.00
O955   O     0.87157   0.56107   0.75000   0.00000  Uiso   1.00
O956   O     0.79510   0.43893   0.75000   0.00000  Uiso   1.00
C957   C     0.83331   0.58003   0.75005   0.00000  Uiso   1.00
C958   C     0.83335   0.41997   0.74995   0.00000  Uiso   1.00
O959   O     0.77328   0.50001   0.81613   0.00000  Uiso   1.00
O960   O     0.89339   0.49999   0.68388   0.00000  Uiso   1.00
O961   O     0.84972   0.50000   0.81612   0.00000  Uiso   1.00
O962   O     0.81695   0.50000   0.68388   0.00000  Uiso   1.00
C963   C     0.80259   0.49895   0.83785   0.00000  Uiso   1.00
C964   C     0.86407   0.50105   0.66215   0.00000  Uiso   1.00
Zn965  Zn    0.78229   0.50001   0.75000   0.00000  Uiso   1.00
Zn966  Zn    0.88438   0.49999   0.75000   0.00000  Uiso   1.00
C967   C     0.78308   0.50118   0.88830   0.00000  Uiso   1.00
C968   C     0.88359   0.49883   0.61170   0.00000  Uiso   1.00
C969   C     0.73830   0.54527   0.95322   0.00000  Uiso   1.00
C970   C     0.92840   0.45477   0.54676   0.00000  Uiso   1.00
C971   C     0.74391   0.52822   0.91075   0.00000  Uiso   1.00
C972   C     0.92278   0.47181   0.58925   0.00000  Uiso   1.00
C973   C     0.81110   0.48460   0.91184   0.00000  Uiso   1.00
C974   C     0.85556   0.51540   0.58816   0.00000  Uiso   1.00
C975   C     0.80403   0.50036   0.95641   0.00000  Uiso   1.00
C976   C     0.86266   0.49965   0.54358   0.00000  Uiso   1.00
C977   C     0.77085   0.53421   0.97392   0.00000  Uiso   1.00
C978   C     0.89585   0.46581   0.52607   0.00000  Uiso   1.00
C979   C     0.83217   0.48707   0.98198   0.00000  Uiso   1.00
C980   C     0.83452   0.51295   0.51800   0.00000  Uiso   1.00
C981   C     0.80915   0.55128   0.52673   0.00000  Uiso   1.00
C982   C     0.85754   0.44873   0.97326   0.00000  Uiso   1.00
C983   C     0.77427   0.55962   0.50855   0.00000  Uiso   1.00
C984   C     0.89244   0.44040   0.99143   0.00000  Uiso   1.00
H985   H     0.75267   0.58793   0.51894   0.00000  Uiso   1.00
H986   H     0.91404   0.41209   0.98104   0.00000  Uiso   1.00
H987   H     0.94479   0.45958   0.60713   0.00000  Uiso   1.00
H988   H     0.72191   0.54045   0.89286   0.00000  Uiso   1.00
H989   H     0.71150   0.56987   0.96773   0.00000  Uiso   1.00
H990   H     0.95521   0.43017   0.53224   0.00000  Uiso   1.00
H991   H     0.81579   0.57555   0.54741   0.00000  Uiso   1.00
H992   H     0.85090   0.42446   0.95258   0.00000  Uiso   1.00
C993   C     0.86855   0.64536   0.76119   0.00000  Uiso   1.00
C994   C     0.79811   0.35464   0.73881   0.00000  Uiso   1.00
H995   H     0.89572   0.62910   0.77025   0.00000  Uiso   1.00
H996   H     0.77095   0.37090   0.72975   0.00000  Uiso   1.00
C997   C     0.86859   0.35467   0.76113   0.00000  Uiso   1.00
C998   C     0.79807   0.64533   0.73887   0.00000  Uiso   1.00
H999   H     0.89578   0.37097   0.77014   0.00000  Uiso   1.00
H1000  H     0.77089   0.62903   0.72986   0.00000  Uiso   1.00
C1001  C     0.83337   0.37582   0.74995   0.00000  Uiso   1.00
C1002  C     0.83330   0.62418   0.75005   0.00000  Uiso   1.00
C1003  C     0.98796   0.47454   0.72037   0.00000  Uiso   1.00
C1004  C     0.67870   0.52546   0.77963   0.00000  Uiso   1.00
C1005  C     0.70279   0.47463   0.72061   0.00000  Uiso   1.00
C1006  C     0.96387   0.52537   0.77939   0.00000  Uiso   1.00
H1007  H     0.73099   0.45447   0.69727   0.00000  Uiso   1.00
H1008  H     0.93568   0.54553   0.80273   0.00000  Uiso   1.00
N1009  N     0.71426   0.50001   0.75001   0.00000  Uiso   1.00
N1010  N     0.95241   0.49999   0.74999   0.00000  Uiso   1.00
N1011  N     0.81478   0.54213   0.61344   0.00000  Uiso   1.00
O1012  O     0.82211   0.57638   0.63213   0.00000  Uiso   1.00
O1013  O     0.77004   0.52919   0.62374   0.00000  Uiso   1.00
N1014  N     0.85185   0.45784   0.88657   0.00000  Uiso   1.00
O1015  O     0.89661   0.47075   0.87623   0.00000  Uiso   1.00
O1016  O     0.84448   0.42359   0.86790   0.00000  Uiso   1.00
O1017  O     0.97610   0.44921   0.69065   0.00000  Uiso   1.00
H1018  H     0.67223   0.43291   0.67152   0.00000  Uiso   1.00
O1019  O     0.69057   0.55079   0.80935   0.00000  Uiso   1.00
H1020  H     0.99444   0.56709   0.82848   0.00000  Uiso   1.00
O1021  O     0.12846   0.89442   0.75001   0.00000  Uiso   1.00
O1022  O     0.20488   0.77225   0.75000   0.00000  Uiso   1.00
O1023  O     0.20490   0.89441   0.75000   0.00000  Uiso   1.00
O1024  O     0.12843   0.77226   0.75000   0.00000  Uiso   1.00
C1025  C     0.16665   0.91336   0.75005   0.00000  Uiso   1.00
C1026  C     0.16669   0.75331   0.74995   0.00000  Uiso   1.00
O1027  O     0.10661   0.83334   0.81613   0.00000  Uiso   1.00
O1028  O     0.22672   0.83333   0.68388   0.00000  Uiso   1.00
O1029  O     0.18305   0.83333   0.81612   0.00000  Uiso   1.00
O1030  O     0.15028   0.83334   0.68388   0.00000  Uiso   1.00
C1031  C     0.13593   0.83228   0.83785   0.00000  Uiso   1.00
C1032  C     0.19741   0.83439   0.66215   0.00000  Uiso   1.00
Zn1033 Zn    0.11562   0.83334   0.75000   0.00000  Uiso   1.00
Zn1034 Zn    0.21771   0.83333   0.75000   0.00000  Uiso   1.00
C1035  C     0.11641   0.83451   0.88830   0.00000  Uiso   1.00
C1036  C     0.21692   0.83217   0.61170   0.00000  Uiso   1.00
C1037  C     0.07164   0.87860   0.95322   0.00000  Uiso   1.00
C1038  C     0.26173   0.78810   0.54676   0.00000  Uiso   1.00
C1039  C     0.07724   0.86155   0.91075   0.00000  Uiso   1.00
C1040  C     0.25611   0.80514   0.58925   0.00000  Uiso   1.00
C1041  C     0.14444   0.81793   0.91184   0.00000  Uiso   1.00
C1042  C     0.18889   0.84874   0.58816   0.00000  Uiso   1.00
C1043  C     0.13736   0.83369   0.95641   0.00000  Uiso   1.00
C1044  C     0.19599   0.83299   0.54358   0.00000  Uiso   1.00
C1045  C     0.10418   0.86754   0.97392   0.00000  Uiso   1.00
C1046  C     0.22919   0.79915   0.52607   0.00000  Uiso   1.00
C1047  C     0.16550   0.82040   0.98198   0.00000  Uiso   1.00
C1048  C     0.16786   0.84628   0.51800   0.00000  Uiso   1.00
C1049  C     0.14249   0.88462   0.52673   0.00000  Uiso   1.00
C1050  C     0.19088   0.78207   0.97326   0.00000  Uiso   1.00
C1051  C     0.10761   0.89296   0.50855   0.00000  Uiso   1.00
C1052  C     0.22577   0.77373   0.99143   0.00000  Uiso   1.00
H1053  H     0.08600   0.92127   0.51894   0.00000  Uiso   1.00
H1054  H     0.24738   0.74543   0.98104   0.00000  Uiso   1.00
H1055  H     0.27812   0.79292   0.60713   0.00000  Uiso   1.00
H1056  H     0.05524   0.87378   0.89286   0.00000  Uiso   1.00
H1057  H     0.04484   0.90320   0.96773   0.00000  Uiso   1.00
H1058  H     0.28855   0.76351   0.53224   0.00000  Uiso   1.00
H1059  H     0.14913   0.90888   0.54741   0.00000  Uiso   1.00
H1060  H     0.18424   0.75779   0.95258   0.00000  Uiso   1.00
C1061  C     0.20189   0.97870   0.76119   0.00000  Uiso   1.00
C1062  C     0.13145   0.68797   0.73881   0.00000  Uiso   1.00
H1063  H     0.22905   0.96243   0.77025   0.00000  Uiso   1.00
H1064  H     0.10428   0.70423   0.72975   0.00000  Uiso   1.00
C1065  C     0.20193   0.68801   0.76113   0.00000  Uiso   1.00
C1066  C     0.13140   0.97866   0.73887   0.00000  Uiso   1.00
H1067  H     0.22911   0.70430   0.77014   0.00000  Uiso   1.00
H1068  H     0.10422   0.96237   0.72986   0.00000  Uiso   1.00
C1069  C     0.16670   0.70916   0.74995   0.00000  Uiso   1.00
C1070  C     0.16663   0.95751   0.75005   0.00000  Uiso   1.00
C1071  C     0.32130   0.80787   0.72037   0.00000  Uiso   1.00
C1072  C     0.01204   0.85880   0.77963   0.00000  Uiso   1.00
C1073  C     0.03612   0.80796   0.72061   0.00000  Uiso   1.00
C1074  C     0.29721   0.85870   0.77939   0.00000  Uiso   1.00
H1075  H     0.06432   0.78780   0.69727   0.00000  Uiso   1.00
H1076  H     0.26901   0.87886   0.80273   0.00000  Uiso   1.00
N1077  N     0.04759   0.83334   0.75001   0.00000  Uiso   1.00
N1078  N     0.28574   0.83332   0.74999   0.00000  Uiso   1.00
N1079  N     0.14811   0.87546   0.61344   0.00000  Uiso   1.00
O1080  O     0.15544   0.90972   0.63213   0.00000  Uiso   1.00
O1081  O     0.10337   0.86253   0.62374   0.00000  Uiso   1.00
N1082  N     0.18519   0.79117   0.88657   0.00000  Uiso   1.00
O1083  O     0.22994   0.80409   0.87623   0.00000  Uiso   1.00
O1084  O     0.17781   0.75692   0.86790   0.00000  Uiso   1.00
O1085  O     0.30943   0.78254   0.69065   0.00000  Uiso   1.00
H1086  H     0.00556   0.76625   0.67152   0.00000  Uiso   1.00
O1087  O     0.02390   0.88413   0.80935   0.00000  Uiso   1.00
H1088  H     0.32777   0.90042   0.82848   0.00000  Uiso   1.00
O1089  O     0.46179   0.89442   0.75001   0.00000  Uiso   1.00
O1090  O     0.53821   0.77225   0.75000   0.00000  Uiso   1.00
O1091  O     0.53823   0.89441   0.75000   0.00000  Uiso   1.00
O1092  O     0.46177   0.77226   0.75000   0.00000  Uiso   1.00
C1093  C     0.49998   0.91336   0.75005   0.00000  Uiso   1.00
C1094  C     0.50002   0.75331   0.74995   0.00000  Uiso   1.00
O1095  O     0.43994   0.83334   0.81613   0.00000  Uiso   1.00
O1096  O     0.56006   0.83333   0.68388   0.00000  Uiso   1.00
O1097  O     0.51639   0.83333   0.81612   0.00000  Uiso   1.00
O1098  O     0.48361   0.83334   0.68388   0.00000  Uiso   1.00
C1099  C     0.46926   0.83228   0.83785   0.00000  Uiso   1.00
C1100  C     0.53074   0.83439   0.66215   0.00000  Uiso   1.00
Zn1101 Zn    0.44896   0.83334   0.75000   0.00000  Uiso   1.00
Zn1102 Zn    0.55104   0.83333   0.75000   0.00000  Uiso   1.00
C1103  C     0.44975   0.83451   0.88830   0.00000  Uiso   1.00
C1104  C     0.55025   0.83217   0.61170   0.00000  Uiso   1.00
C1105  C     0.40497   0.87860   0.95322   0.00000  Uiso   1.00
C1106  C     0.59507   0.78810   0.54676   0.00000  Uiso   1.00
C1107  C     0.41058   0.86155   0.91075   0.00000  Uiso   1.00
C1108  C     0.58944   0.80514   0.58925   0.00000  Uiso   1.00
C1109  C     0.47777   0.81793   0.91184   0.00000  Uiso   1.00
C1110  C     0.52223   0.84874   0.58816   0.00000  Uiso   1.00
C1111  C     0.47069   0.83369   0.95641   0.00000  Uiso   1.00
C1112  C     0.52932   0.83299   0.54358   0.00000  Uiso   1.00
C1113  C     0.43751   0.86754   0.97392   0.00000  Uiso   1.00
C1114  C     0.56252   0.79915   0.52607   0.00000  Uiso   1.00
C1115  C     0.49884   0.82040   0.98198   0.00000  Uiso   1.00
C1116  C     0.50119   0.84628   0.51800   0.00000  Uiso   1.00
C1117  C     0.47582   0.88462   0.52673   0.00000  Uiso   1.00
C1118  C     0.52421   0.78207   0.97326   0.00000  Uiso   1.00
C1119  C     0.44094   0.89296   0.50855   0.00000  Uiso   1.00
C1120  C     0.55910   0.77373   0.99143   0.00000  Uiso   1.00
H1121  H     0.41934   0.92127   0.51894   0.00000  Uiso   1.00
H1122  H     0.58071   0.74543   0.98104   0.00000  Uiso   1.00
H1123  H     0.61145   0.79292   0.60713   0.00000  Uiso   1.00
H1124  H     0.38857   0.87378   0.89286   0.00000  Uiso   1.00
H1125  H     0.37817   0.90320   0.96773   0.00000  Uiso   1.00
H1126  H     0.62188   0.76351   0.53224   0.00000  Uiso   1.00
H1127  H     0.48246   0.90888   0.54741   0.00000  Uiso   1.00
H1128  H     0.51757   0.75779   0.95258   0.00000  Uiso   1.00
C1129  C     0.53522   0.97870   0.76119   0.00000  Uiso   1.00
C1130  C     0.46478   0.68797   0.73881   0.00000  Uiso   1.00
H1131  H     0.56238   0.96243   0.77025   0.00000  Uiso   1.00
H1132  H     0.43762   0.70423   0.72975   0.00000  Uiso   1.00
C1133  C     0.53526   0.68801   0.76113   0.00000  Uiso   1.00
C1134  C     0.46474   0.97866   0.73887   0.00000  Uiso   1.00
H1135  H     0.56245   0.70430   0.77014   0.00000  Uiso   1.00
H1136  H     0.43755   0.96237   0.72986   0.00000  Uiso   1.00
C1137  C     0.50004   0.70916   0.74995   0.00000  Uiso   1.00
C1138  C     0.49996   0.95751   0.75005   0.00000  Uiso   1.00
C1139  C     0.65463   0.80787   0.72037   0.00000  Uiso   1.00
C1140  C     0.34537   0.85880   0.77963   0.00000  Uiso   1.00
C1141  C     0.36946   0.80796   0.72061   0.00000  Uiso   1.00
C1142  C     0.63054   0.85870   0.77939   0.00000  Uiso   1.00
H1143  H     0.39766   0.78780   0.69727   0.00000  Uiso   1.00
H1144  H     0.60234   0.87886   0.80273   0.00000  Uiso   1.00
N1145  N     0.38093   0.83334   0.75001   0.00000  Uiso   1.00
N1146  N     0.61907   0.83332   0.74999   0.00000  Uiso   1.00
N1147  N     0.48144   0.87546   0.61344   0.00000  Uiso   1.00
O1148  O     0.48878   0.90972   0.63213   0.00000  Uiso   1.00
O1149  O     0.43671   0.86253   0.62374   0.00000  Uiso   1.00
N1150  N     0.51852   0.79117   0.88657   0.00000  Uiso   1.00
O1151  O     0.56327   0.80409   0.87623   0.00000  Uiso   1.00
O1152  O     0.51115   0.75692   0.86790   0.00000  Uiso   1.00
O1153  O     0.64277   0.78254   0.69065   0.00000  Uiso   1.00
H1154  H     0.33890   0.76625   0.67152   0.00000  Uiso   1.00
O1155  O     0.35723   0.88413   0.80935   0.00000  Uiso   1.00
H1156  H     0.66110   0.90042   0.82848   0.00000  Uiso   1.00
O1157  O     0.79512   0.89442   0.75001   0.00000  Uiso   1.00
O1158  O     0.87154   0.77225   0.75000   0.00000  Uiso   1.00
O1159  O     0.87157   0.89441   0.75000   0.00000  Uiso   1.00
O1160  O     0.79510   0.77226   0.75000   0.00000  Uiso   1.00
C1161  C     0.83331   0.91336   0.75005   0.00000  Uiso   1.00
C1162  C     0.83335   0.75331   0.74995   0.00000  Uiso   1.00
O1163  O     0.77328   0.83334   0.81613   0.00000  Uiso   1.00
O1164  O     0.89339   0.83333   0.68388   0.00000  Uiso   1.00
O1165  O     0.84972   0.83333   0.81612   0.00000  Uiso   1.00
O1166  O     0.81695   0.83334   0.68388   0.00000  Uiso   1.00
C1167  C     0.80259   0.83228   0.83785   0.00000  Uiso   1.00
C1168  C     0.86407   0.83439   0.66215   0.00000  Uiso   1.00
Zn1169 Zn    0.78229   0.83334   0.75000   0.00000  Uiso   1.00
Zn1170 Zn    0.88438   0.83333   0.75000   0.00000  Uiso   1.00
C1171  C     0.78308   0.83451   0.88830   0.00000  Uiso   1.00
C1172  C     0.88359   0.83217   0.61170   0.00000  Uiso   1.00
C1173  C     0.73830   0.87860   0.95322   0.00000  Uiso   1.00
C1174  C     0.92840   0.78810   0.54676   0.00000  Uiso   1.00
C1175  C     0.74391   0.86155   0.91075   0.00000  Uiso   1.00
C1176  C     0.92278   0.80514   0.58925   0.00000  Uiso   1.00
C1177  C     0.81110   0.81793   0.91184   0.00000  Uiso   1.00
C1178  C     0.85556   0.84874   0.58816   0.00000  Uiso   1.00
C1179  C     0.80403   0.83369   0.95641   0.00000  Uiso   1.00
C1180  C     0.86266   0.83299   0.54358   0.00000  Uiso   1.00
C1181  C     0.77085   0.86754   0.97392   0.00000  Uiso   1.00
C1182  C     0.89585   0.79915   0.52607   0.00000  Uiso   1.00
C1183  C     0.83217   0.82040   0.98198   0.00000  Uiso   1.00
C1184  C     0.83452   0.84628   0.51800   0.00000  Uiso   1.00
C1185  C     0.80915   0.88462   0.52673   0.00000  Uiso   1.00
C1186  C     0.85754   0.78207   0.97326   0.00000  Uiso   1.00
C1187  C     0.77427   0.89296   0.50855   0.00000  Uiso   1.00
C1188  C     0.89244   0.77373   0.99143   0.00000  Uiso   1.00
H1189  H     0.75267   0.92127   0.51894   0.00000  Uiso   1.00
H1190  H     0.91404   0.74543   0.98104   0.00000  Uiso   1.00
H1191  H     0.94479   0.79292   0.60713   0.00000  Uiso   1.00
H1192  H     0.72191   0.87378   0.89286   0.00000  Uiso   1.00
H1193  H     0.71150   0.90320   0.96773   0.00000  Uiso   1.00
H1194  H     0.95521   0.76351   0.53224   0.00000  Uiso   1.00
H1195  H     0.81579   0.90888   0.54741   0.00000  Uiso   1.00
H1196  H     0.85090   0.75779   0.95258   0.00000  Uiso   1.00
C1197  C     0.86855   0.97870   0.76119   0.00000  Uiso   1.00
C1198  C     0.79811   0.68797   0.73881   0.00000  Uiso   1.00
H1199  H     0.89572   0.96243   0.77025   0.00000  Uiso   1.00
H1200  H     0.77095   0.70423   0.72975   0.00000  Uiso   1.00
C1201  C     0.86859   0.68801   0.76113   0.00000  Uiso   1.00
C1202  C     0.79807   0.97866   0.73887   0.00000  Uiso   1.00
H1203  H     0.89578   0.70430   0.77014   0.00000  Uiso   1.00
H1204  H     0.77089   0.96237   0.72986   0.00000  Uiso   1.00
C1205  C     0.83337   0.70916   0.74995   0.00000  Uiso   1.00
C1206  C     0.83330   0.95751   0.75005   0.00000  Uiso   1.00
C1207  C     0.98796   0.80787   0.72037   0.00000  Uiso   1.00
C1208  C     0.67870   0.85880   0.77963   0.00000  Uiso   1.00
C1209  C     0.70279   0.80796   0.72061   0.00000  Uiso   1.00
C1210  C     0.96387   0.85870   0.77939   0.00000  Uiso   1.00
H1211  H     0.73099   0.78780   0.69727   0.00000  Uiso   1.00
H1212  H     0.93568   0.87886   0.80273   0.00000  Uiso   1.00
N1213  N     0.71426   0.83334   0.75001   0.00000  Uiso   1.00
N1214  N     0.95241   0.83332   0.74999   0.00000  Uiso   1.00
N1215  N     0.81478   0.87546   0.61344   0.00000  Uiso   1.00
O1216  O     0.82211   0.90972   0.63213   0.00000  Uiso   1.00
O1217  O     0.77004   0.86253   0.62374   0.00000  Uiso   1.00
N1218  N     0.85185   0.79117   0.88657   0.00000  Uiso   1.00
O1219  O     0.89661   0.80409   0.87623   0.00000  Uiso   1.00
O1220  O     0.84448   0.75692   0.86790   0.00000  Uiso   1.00
O1221  O     0.97610   0.78254   0.69065   0.00000  Uiso   1.00
H1222  H     0.67223   0.76625   0.67152   0.00000  Uiso   1.00
O1223  O     0.69057   0.88413   0.80935   0.00000  Uiso   1.00
H1224  H     0.99444   0.90042   0.82848   0.00000  Uiso   1.00
loop_
_geom_bond_atom_site_label_1
_geom_bond_atom_site_label_2
_geom_bond_distance
_geom_bond_site_symmetry_2
_ccdc_geom_bond_type
O1     C5      1.283   .     A
O1     Zn13    1.999   .     S
O2     C6      1.283   .     A
O2     Zn14    1.999   .     S
O3     C5      1.283   .     A
O3     Zn14    1.998   .     S
O4     C6      1.283   .     A
O4     Zn13    1.998   .     S
C5     C50     1.418   .     S
C6     C49     1.418   .     S
O7     C11     1.293   .     A
O7     Zn13    1.982   .     S
O8     C12     1.293   .     A
O8     Zn14    1.982   .     S
O9     Zn14    1.920   .     S
O9     C11     1.292   .     A
O10    C12     1.292   .     A
O10    Zn13    1.920   .     S
C11    C15     1.457   .     S
C12    C16     1.457   .     S
Zn13   N57     2.011   .     S
Zn14   N58     2.011   .     S
C15    C21     1.410   .     A
C15    C19     1.397   .     A
C16    C20     1.397   .     A
C16    C22     1.410   .     A
C17    C25     1.398   .     A
C17    H37     1.084   .     S
C17    C19     1.385   .     A
C18    C26     1.398   .     A
C18    H38     1.084   .     S
C18    C20     1.385   .     A
C19    H36     1.084   .     S
C20    H35     1.084   .     S
C21    C23     1.420   .     A
C21    N62     1.438   .     S
C22    C24     1.420   .     A
C22    N59     1.439   .     S
C23    C27     1.426   .     A
C23    C25     1.422   .     A
C24    C26     1.422   .     A
C24    C28     1.426   .     A
C25    C643    1.390   .     S
C26    C644    1.390   1_554 S
C27    C30     1.411   .     A
C27    C640    1.422   .     S
C28    C29     1.411   .     A
C28    C639    1.422   1_554 S
C29    H39     1.078   .     S
C29    C31     1.384   .     A
C30    H40     1.078   .     S
C30    C32     1.384   .     A
C31    H33     1.085   .     S
C31    C637    1.390   1_554 S
C32    H34     1.085   .     S
C32    C638    1.390   .     S
C41    H43     1.084   .     S
C41    C50     1.397   .     A
C41    C249    1.370   .     S
C42    H44     1.084   .     S
C42    C49     1.397   .     A
C42    C454    1.370   1_545 S
C45    C49     1.397   .     A
C45    H47     1.084   .     S
C45    C449    1.370   1_545 S
C46    C50     1.397   .     A
C46    H48     1.084   .     S
C46    C246    1.370   .     S
C51    N58     1.367   .     A
C51    O65     1.378   .     S
C51    C121    1.426   .     S
C52    N57     1.367   .     A
C52    O67     1.378   .     S
C52    C190    1.426   1_455 S
C53    H55     1.082   .     S
C53    N57     1.365   .     A
C53    C187    1.426   1_455 S
C54    N58     1.365   .     A
C54    H56     1.082   .     S
C54    C120    1.426   .     S
N59    O60     1.302   .     A
N59    O61     1.302   .     A
N62    O63     1.302   .     A
N62    O64     1.302   .     A
O65    H134    0.992   .     S
H66    O201    0.992   1_455 S
O67    H204    0.992   1_455 S
H68    O135    0.992   .     S
O69    C73     1.283   .     A
O69    Zn81    1.999   .     S
O70    C74     1.283   .     A
O70    Zn82    1.999   .     S
O71    C73     1.283   .     A
O71    Zn82    1.998   .     S
O72    C74     1.283   .     A
O72    Zn81    1.998   .     S
C73    C118    1.418   .     S
C74    C117    1.418   .     S
O75    C79     1.293   .     A
O75    Zn81    1.982   .     S
O76    C80     1.293   .     A
O76    Zn82    1.982   .     S
O77    Zn82    1.920   .     S
O77    C79     1.292   .     A
O78    C80     1.292   .     A
O78    Zn81    1.920   .     S
C79    C83     1.457   .     S
C80    C84     1.457   .     S
Zn81   N125    2.011   .     S
Zn82   N126    2.011   .     S
C83    C89     1.410   .     A
C83    C87     1.397   .     A
C84    C88     1.397   .     A
C84    C90     1.410   .     A
C85    C93     1.398   .     A
C85    H105    1.084   .     S
C85    C87     1.385   .     A
C86    C94     1.398   .     A
C86    H106    1.084   .     S
C86    C88     1.385   .     A
C87    H104    1.084   .     S
C88    H103    1.084   .     S
C89    C91     1.420   .     A
C89    N130    1.438   .     S
C90    C92     1.420   .     A
C90    N127    1.439   .     S
C91    C95     1.426   .     A
C91    C93     1.422   .     A
C92    C94     1.422   .     A
C92    C96     1.426   .     A
C93    C711    1.390   .     S
C94    C712    1.390   1_554 S
C95    C98     1.411   .     A
C95    C708    1.422   .     S
C96    C97     1.411   .     A
C96    C707    1.422   1_554 S
C97    H107    1.078   .     S
C97    C99     1.384   .     A
C98    H108    1.078   .     S
C98    C100    1.384   .     A
C99    H101    1.085   .     S
C99    C705    1.390   1_554 S
C100   H102    1.085   .     S
C100   C706    1.390   .     S
C109   H111    1.084   .     S
C109   C118    1.397   .     A
C109   C317    1.370   .     S
C110   H112    1.084   .     S
C110   C117    1.397   .     A
C110   C522    1.370   1_545 S
C113   C117    1.397   .     A
C113   H115    1.084   .     S
C113   C517    1.370   1_545 S
C114   C118    1.397   .     A
C114   H116    1.084   .     S
C114   C314    1.370   .     S
C119   N126    1.367   .     A
C119   O133    1.378   .     S
C119   C189    1.426   .     S
C120   N125    1.367   .     A
C120   O135    1.378   .     S
C121   H123    1.082   .     S
C121   N125    1.365   .     A
C122   N126    1.365   .     A
C122   H124    1.082   .     S
C122   C188    1.426   .     S
N127   O128    1.302   .     A
N127   O129    1.302   .     A
N130   O131    1.302   .     A
N130   O132    1.302   .     A
O133   H202    0.992   .     S
H136   O203    0.992   .     S
O137   C141    1.283   .     A
O137   Zn149   1.999   .     S
O138   C142    1.283   .     A
O138   Zn150   1.999   .     S
O139   C141    1.283   .     A
O139   Zn150   1.998   .     S
O140   C142    1.283   .     A
O140   Zn149   1.998   .     S
C141   C186    1.418   .     S
C142   C185    1.418   .     S
O143   C147    1.293   .     A
O143   Zn149   1.982   .     S
O144   C148    1.293   .     A
O144   Zn150   1.982   .     S
O145   Zn150   1.920   .     S
O145   C147    1.292   .     A
O146   C148    1.292   .     A
O146   Zn149   1.920   .     S
C147   C151    1.457   .     S
C148   C152    1.457   .     S
Zn149  N193    2.011   .     S
Zn150  N194    2.011   .     S
C151   C157    1.410   .     A
C151   C155    1.397   .     A
C152   C156    1.397   .     A
C152   C158    1.410   .     A
C153   C161    1.398   .     A
C153   H173    1.084   .     S
C153   C155    1.385   .     A
C154   C162    1.398   .     A
C154   H174    1.084   .     S
C154   C156    1.385   .     A
C155   H172    1.084   .     S
C156   H171    1.084   .     S
C157   C159    1.420   .     A
C157   N198    1.438   .     S
C158   C160    1.420   .     A
C158   N195    1.439   .     S
C159   C163    1.426   .     A
C159   C161    1.422   .     A
C160   C162    1.422   .     A
C160   C164    1.426   .     A
C161   C779    1.390   .     S
C162   C780    1.390   1_554 S
C163   C166    1.411   .     A
C163   C776    1.422   .     S
C164   C165    1.411   .     A
C164   C775    1.422   1_554 S
C165   H175    1.078   .     S
C165   C167    1.384   .     A
C166   H176    1.078   .     S
C166   C168    1.384   .     A
C167   H169    1.085   .     S
C167   C773    1.390   1_554 S
C168   H170    1.085   .     S
C168   C774    1.390   .     S
C177   H179    1.084   .     S
C177   C186    1.397   .     A
C177   C385    1.370   .     S
C178   H180    1.084   .     S
C178   C185    1.397   .     A
C178   C590    1.370   1_545 S
C181   C185    1.397   .     A
C181   H183    1.084   .     S
C181   C585    1.370   1_545 S
C182   C186    1.397   .     A
C182   H184    1.084   .     S
C182   C382    1.370   .     S
C187   N194    1.367   .     A
C187   O201    1.378   .     S
C187   C53     1.426   1_655 S
C188   N193    1.367   .     A
C188   O203    1.378   .     S
C189   H191    1.082   .     S
C189   N193    1.365   .     A
C190   N194    1.365   .     A
C190   H192    1.082   .     S
C190   C52     1.426   1_655 S
N195   O196    1.302   .     A
N195   O197    1.302   .     A
N198   O199    1.302   .     A
N198   O200    1.302   .     A
O201   H66     0.992   1_655 S
H204   O67     0.992   1_655 S
O205   C209    1.283   .     A
O205   Zn217   1.999   .     S
O206   C210    1.283   .     A
O206   Zn218   1.999   .     S
O207   C209    1.283   .     A
O207   Zn218   1.998   .     S
O208   C210    1.283   .     A
O208   Zn217   1.998   .     S
C209   C254    1.418   .     S
C210   C253    1.418   .     S
O211   C215    1.293   .     A
O211   Zn217   1.982   .     S
O212   C216    1.293   .     A
O212   Zn218   1.982   .     S
O213   Zn218   1.920   .     S
O213   C215    1.292   .     A
O214   C216    1.292   .     A
O214   Zn217   1.920   .     S
C215   C219    1.457   .     S
C216   C220    1.457   .     S
Zn217  N261    2.011   .     S
Zn218  N262    2.011   .     S
C219   C225    1.410   .     A
C219   C223    1.397   .     A
C220   C224    1.397   .     A
C220   C226    1.410   .     A
C221   C229    1.398   .     A
C221   H241    1.084   .     S
C221   C223    1.385   .     A
C222   C230    1.398   .     A
C222   H242    1.084   .     S
C222   C224    1.385   .     A
C223   H240    1.084   .     S
C224   H239    1.084   .     S
C225   C227    1.420   .     A
C225   N266    1.438   .     S
C226   C228    1.420   .     A
C226   N263    1.439   .     S
C227   C231    1.426   .     A
C227   C229    1.422   .     A
C228   C230    1.422   .     A
C228   C232    1.426   .     A
C229   C847    1.390   .     S
C230   C848    1.390   1_554 S
C231   C234    1.411   .     A
C231   C844    1.422   .     S
C232   C233    1.411   .     A
C232   C843    1.422   1_554 S
C233   H243    1.078   .     S
C233   C235    1.384   .     A
C234   H244    1.078   .     S
C234   C236    1.384   .     A
C235   H237    1.085   .     S
C235   C841    1.390   1_554 S
C236   H238    1.085   .     S
C236   C842    1.390   .     S
C245   H247    1.084   .     S
C245   C254    1.397   .     A
C245   C453    1.370   .     S
C246   H248    1.084   .     S
C246   C253    1.397   .     A
C249   C253    1.397   .     A
C249   H251    1.084   .     S
C250   C254    1.397   .     A
C250   H252    1.084   .     S
C250   C450    1.370   .     S
C255   N262    1.367   .     A
C255   O269    1.378   .     S
C255   C325    1.426   .     S
C256   N261    1.367   .     A
C256   O271    1.378   .     S
C256   C394    1.426   1_455 S
C257   H259    1.082   .     S
C257   N261    1.365   .     A
C257   C391    1.426   1_455 S
C258   N262    1.365   .     A
C258   H260    1.082   .     S
C258   C324    1.426   .     S
N263   O264    1.302   .     A
N263   O265    1.302   .     A
N266   O267    1.302   .     A
N266   O268    1.302   .     A
O269   H338    0.992   .     S
H270   O405    0.992   1_455 S
O271   H408    0.992   1_455 S
H272   O339    0.992   .     S
O273   C277    1.283   .     A
O273   Zn285   1.999   .     S
O274   C278    1.283   .     A
O274   Zn286   1.999   .     S
O275   C277    1.283   .     A
O275   Zn286   1.998   .     S
O276   C278    1.283   .     A
O276   Zn285   1.998   .     S
C277   C322    1.418   .     S
C278   C321    1.418   .     S
O279   C283    1.293   .     A
O279   Zn285   1.982   .     S
O280   C284    1.293   .     A
O280   Zn286   1.982   .     S
O281   Zn286   1.920   .     S
O281   C283    1.292   .     A
O282   C284    1.292   .     A
O282   Zn285   1.920   .     S
C283   C287    1.457   .     S
C284   C288    1.457   .     S
Zn285  N329    2.011   .     S
Zn286  N330    2.011   .     S
C287   C293    1.410   .     A
C287   C291    1.397   .     A
C288   C292    1.397   .     A
C288   C294    1.410   .     A
C289   C297    1.398   .     A
C289   H309    1.084   .     S
C289   C291    1.385   .     A
C290   C298    1.398   .     A
C290   H310    1.084   .     S
C290   C292    1.385   .     A
C291   H308    1.084   .     S
C292   H307    1.084   .     S
C293   C295    1.420   .     A
C293   N334    1.438   .     S
C294   C296    1.420   .     A
C294   N331    1.439   .     S
C295   C299    1.426   .     A
C295   C297    1.422   .     A
C296   C298    1.422   .     A
C296   C300    1.426   .     A
C297   C915    1.390   .     S
C298   C916    1.390   1_554 S
C299   C302    1.411   .     A
C299   C912    1.422   .     S
C300   C301    1.411   .     A
C300   C911    1.422   1_554 S
C301   H311    1.078   .     S
C301   C303    1.384   .     A
C302   H312    1.078   .     S
C302   C304    1.384   .     A
C303   H305    1.085   .     S
C303   C909    1.390   1_554 S
C304   H306    1.085   .     S
C304   C910    1.390   .     S
C313   H315    1.084   .     S
C313   C322    1.397   .     A
C313   C521    1.370   .     S
C314   H316    1.084   .     S
C314   C321    1.397   .     A
C317   C321    1.397   .     A
C317   H319    1.084   .     S
C318   C322    1.397   .     A
C318   H320    1.084   .     S
C318   C518    1.370   .     S
C323   N330    1.367   .     A
C323   O337    1.378   .     S
C323   C393    1.426   .     S
C324   N329    1.367   .     A
C324   O339    1.378   .     S
C325   H327    1.082   .     S
C325   N329    1.365   .     A
C326   N330    1.365   .     A
C326   H328    1.082   .     S
C326   C392    1.426   .     S
N331   O332    1.302   .     A
N331   O333    1.302   .     A
N334   O335    1.302   .     A
N334   O336    1.302   .     A
O337   H406    0.992   .     S
H340   O407    0.992   .     S
O341   C345    1.283   .     A
O341   Zn353   1.999   .     S
O342   C346    1.283   .     A
O342   Zn354   1.999   .     S
O343   C345    1.283   .     A
O343   Zn354   1.998   .     S
O344   C346    1.283   .     A
O344   Zn353   1.998   .     S
C345   C390    1.418   .     S
C346   C389    1.418   .     S
O347   C351    1.293   .     A
O347   Zn353   1.982   .     S
O348   C352    1.293   .     A
O348   Zn354   1.982   .     S
O349   Zn354   1.920   .     S
O349   C351    1.292   .     A
O350   C352    1.292   .     A
O350   Zn353   1.920   .     S
C351   C355    1.457   .     S
C352   C356    1.457   .     S
Zn353  N397    2.011   .     S
Zn354  N398    2.011   .     S
C355   C361    1.410   .     A
C355   C359    1.397   .     A
C356   C360    1.397   .     A
C356   C362    1.410   .     A
C357   C365    1.398   .     A
C357   H377    1.084   .     S
C357   C359    1.385   .     A
C358   C366    1.398   .     A
C358   H378    1.084   .     S
C358   C360    1.385   .     A
C359   H376    1.084   .     S
C360   H375    1.084   .     S
C361   C363    1.420   .     A
C361   N402    1.438   .     S
C362   C364    1.420   .     A
C362   N399    1.439   .     S
C363   C367    1.426   .     A
C363   C365    1.422   .     A
C364   C366    1.422   .     A
C364   C368    1.426   .     A
C365   C983    1.390   .     S
C366   C984    1.390   1_554 S
C367   C370    1.411   .     A
C367   C980    1.422   .     S
C368   C369    1.411   .     A
C368   C979    1.422   1_554 S
C369   H379    1.078   .     S
C369   C371    1.384   .     A
C370   H380    1.078   .     S
C370   C372    1.384   .     A
C371   H373    1.085   .     S
C371   C977    1.390   1_554 S
C372   H374    1.085   .     S
C372   C978    1.390   .     S
C381   H383    1.084   .     S
C381   C390    1.397   .     A
C381   C589    1.370   .     S
C382   H384    1.084   .     S
C382   C389    1.397   .     A
C385   C389    1.397   .     A
C385   H387    1.084   .     S
C386   C390    1.397   .     A
C386   H388    1.084   .     S
C386   C586    1.370   .     S
C391   N398    1.367   .     A
C391   O405    1.378   .     S
C391   C257    1.426   1_655 S
C392   N397    1.367   .     A
C392   O407    1.378   .     S
C393   H395    1.082   .     S
C393   N397    1.365   .     A
C394   N398    1.365   .     A
C394   H396    1.082   .     S
C394   C256    1.426   1_655 S
N399   O400    1.302   .     A
N399   O401    1.302   .     A
N402   O403    1.302   .     A
N402   O404    1.302   .     A
O405   H270    0.992   1_655 S
H408   O271    0.992   1_655 S
O409   C413    1.283   .     A
O409   Zn421   1.999   .     S
O410   C414    1.283   .     A
O410   Zn422   1.999   .     S
O411   C413    1.283   .     A
O411   Zn422   1.998   .     S
O412   C414    1.283   .     A
O412   Zn421   1.998   .     S
C413   C458    1.418   .     S
C414   C457    1.418   .     S
O415   C419    1.293   .     A
O415   Zn421   1.982   .     S
O416   C420    1.293   .     A
O416   Zn422   1.982   .     S
O417   Zn422   1.920   .     S
O417   C419    1.292   .     A
O418   C420    1.292   .     A
O418   Zn421   1.920   .     S
C419   C423    1.457   .     S
C420   C424    1.457   .     S
Zn421  N465    2.011   .     S
Zn422  N466    2.011   .     S
C423   C429    1.410   .     A
C423   C427    1.397   .     A
C424   C428    1.397   .     A
C424   C430    1.410   .     A
C425   C433    1.398   .     A
C425   H445    1.084   .     S
C425   C427    1.385   .     A
C426   C434    1.398   .     A
C426   H446    1.084   .     S
C426   C428    1.385   .     A
C427   H444    1.084   .     S
C428   H443    1.084   .     S
C429   C431    1.420   .     A
C429   N470    1.438   .     S
C430   C432    1.420   .     A
C430   N467    1.439   .     S
C431   C435    1.426   .     A
C431   C433    1.422   .     A
C432   C434    1.422   .     A
C432   C436    1.426   .     A
C433   C1051   1.390   .     S
C434   C1052   1.390   1_554 S
C435   C438    1.411   .     A
C435   C1048   1.422   .     S
C436   C437    1.411   .     A
C436   C1047   1.422   1_554 S
C437   H447    1.078   .     S
C437   C439    1.384   .     A
C438   H448    1.078   .     S
C438   C440    1.384   .     A
C439   H441    1.085   .     S
C439   C1045   1.390   1_554 S
C440   H442    1.085   .     S
C440   C1046   1.390   .     S
C449   H451    1.084   .     S
C449   C458    1.397   .     A
C449   C45     1.370   1_565 S
C450   H452    1.084   .     S
C450   C457    1.397   .     A
C453   C457    1.397   .     A
C453   H455    1.084   .     S
C454   C458    1.397   .     A
C454   H456    1.084   .     S
C454   C42     1.370   1_565 S
C459   N466    1.367   .     A
C459   O473    1.378   .     S
C459   C529    1.426   .     S
C460   N465    1.367   .     A
C460   O475    1.378   .     S
C460   C598    1.426   1_455 S
C461   H463    1.082   .     S
C461   N465    1.365   .     A
C461   C595    1.426   1_455 S
C462   N466    1.365   .     A
C462   H464    1.082   .     S
C462   C528    1.426   .     S
N467   O468    1.302   .     A
N467   O469    1.302   .     A
N470   O471    1.302   .     A
N470   O472    1.302   .     A
O473   H542    0.992   .     S
H474   O609    0.992   1_455 S
O475   H612    0.992   1_455 S
H476   O543    0.992   .     S
O477   C481    1.283   .     A
O477   Zn489   1.999   .     S
O478   C482    1.283   .     A
O478   Zn490   1.999   .     S
O479   C481    1.283   .     A
O479   Zn490   1.998   .     S
O480   C482    1.283   .     A
O480   Zn489   1.998   .     S
C481   C526    1.418   .     S
C482   C525    1.418   .     S
O483   C487    1.293   .     A
O483   Zn489   1.982   .     S
O484   C488    1.293   .     A
O484   Zn490   1.982   .     S
O485   Zn490   1.920   .     S
O485   C487    1.292   .     A
O486   C488    1.292   .     A
O486   Zn489   1.920   .     S
C487   C491    1.457   .     S
C488   C492    1.457   .     S
Zn489  N533    2.011   .     S
Zn490  N534    2.011   .     S
C491   C497    1.410   .     A
C491   C495    1.397   .     A
C492   C496    1.397   .     A
C492   C498    1.410   .     A
C493   C501    1.398   .     A
C493   H513    1.084   .     S
C493   C495    1.385   .     A
C494   C502    1.398   .     A
C494   H514    1.084   .     S
C494   C496    1.385   .     A
C495   H512    1.084   .     S
C496   H511    1.084   .     S
C497   C499    1.420   .     A
C497   N538    1.438   .     S
C498   C500    1.420   .     A
C498   N535    1.439   .     S
C499   C503    1.426   .     A
C499   C501    1.422   .     A
C500   C502    1.422   .     A
C500   C504    1.426   .     A
C501   C1119   1.390   .     S
C502   C1120   1.390   1_554 S
C503   C506    1.411   .     A
C503   C1116   1.422   .     S
C504   C505    1.411   .     A
C504   C1115   1.422   1_554 S
C505   H515    1.078   .     S
C505   C507    1.384   .     A
C506   H516    1.078   .     S
C506   C508    1.384   .     A
C507   H509    1.085   .     S
C507   C1113   1.390   1_554 S
C508   H510    1.085   .     S
C508   C1114   1.390   .     S
C517   H519    1.084   .     S
C517   C526    1.397   .     A
C517   C113    1.370   1_565 S
C518   H520    1.084   .     S
C518   C525    1.397   .     A
C521   C525    1.397   .     A
C521   H523    1.084   .     S
C522   C526    1.397   .     A
C522   H524    1.084   .     S
C522   C110    1.370   1_565 S
C527   N534    1.367   .     A
C527   O541    1.378   .     S
C527   C597    1.426   .     S
C528   N533    1.367   .     A
C528   O543    1.378   .     S
C529   H531    1.082   .     S
C529   N533    1.365   .     A
C530   N534    1.365   .     A
C530   H532    1.082   .     S
C530   C596    1.426   .     S
N535   O536    1.302   .     A
N535   O537    1.302   .     A
N538   O539    1.302   .     A
N538   O540    1.302   .     A
O541   H610    0.992   .     S
H544   O611    0.992   .     S
O545   C549    1.283   .     A
O545   Zn557   1.999   .     S
O546   C550    1.283   .     A
O546   Zn558   1.999   .     S
O547   C549    1.283   .     A
O547   Zn558   1.998   .     S
O548   C550    1.283   .     A
O548   Zn557   1.998   .     S
C549   C594    1.418   .     S
C550   C593    1.418   .     S
O551   C555    1.293   .     A
O551   Zn557   1.982   .     S
O552   C556    1.293   .     A
O552   Zn558   1.982   .     S
O553   Zn558   1.920   .     S
O553   C555    1.292   .     A
O554   C556    1.292   .     A
O554   Zn557   1.920   .     S
C555   C559    1.457   .     S
C556   C560    1.457   .     S
Zn557  N601    2.011   .     S
Zn558  N602    2.011   .     S
C559   C565    1.410   .     A
C559   C563    1.397   .     A
C560   C564    1.397   .     A
C560   C566    1.410   .     A
C561   C569    1.398   .     A
C561   H581    1.084   .     S
C561   C563    1.385   .     A
C562   C570    1.398   .     A
C562   H582    1.084   .     S
C562   C564    1.385   .     A
C563   H580    1.084   .     S
C564   H579    1.084   .     S
C565   C567    1.420   .     A
C565   N606    1.438   .     S
C566   C568    1.420   .     A
C566   N603    1.439   .     S
C567   C571    1.426   .     A
C567   C569    1.422   .     A
C568   C570    1.422   .     A
C568   C572    1.426   .     A
C569   C1187   1.390   .     S
C570   C1188   1.390   1_554 S
C571   C574    1.411   .     A
C571   C1184   1.422   .     S
C572   C573    1.411   .     A
C572   C1183   1.422   1_554 S
C573   H583    1.078   .     S
C573   C575    1.384   .     A
C574   H584    1.078   .     S
C574   C576    1.384   .     A
C575   H577    1.085   .     S
C575   C1181   1.390   1_554 S
C576   H578    1.085   .     S
C576   C1182   1.390   .     S
C585   H587    1.084   .     S
C585   C594    1.397   .     A
C585   C181    1.370   1_565 S
C586   H588    1.084   .     S
C586   C593    1.397   .     A
C589   C593    1.397   .     A
C589   H591    1.084   .     S
C590   C594    1.397   .     A
C590   H592    1.084   .     S
C590   C178    1.370   1_565 S
C595   N602    1.367   .     A
C595   O609    1.378   .     S
C595   C461    1.426   1_655 S
C596   N601    1.367   .     A
C596   O611    1.378   .     S
C597   H599    1.082   .     S
C597   N601    1.365   .     A
C598   N602    1.365   .     A
C598   H600    1.082   .     S
C598   C460    1.426   1_655 S
N603   O604    1.302   .     A
N603   O605    1.302   .     A
N606   O607    1.302   .     A
N606   O608    1.302   .     A
O609   H474    0.992   1_655 S
H612   O475    0.992   1_655 S
O613   C617    1.283   .     A
O613   Zn625   1.999   .     S
O614   C618    1.283   .     A
O614   Zn626   1.999   .     S
O615   C617    1.283   .     A
O615   Zn626   1.998   .     S
O616   C618    1.283   .     A
O616   Zn625   1.998   .     S
C617   C662    1.418   .     S
C618   C661    1.418   .     S
O619   C623    1.293   .     A
O619   Zn625   1.982   .     S
O620   C624    1.293   .     A
O620   Zn626   1.982   .     S
O621   Zn626   1.920   .     S
O621   C623    1.292   .     A
O622   C624    1.292   .     A
O622   Zn625   1.920   .     S
C623   C627    1.457   .     S
C624   C628    1.457   .     S
Zn625  N669    2.011   .     S
Zn626  N670    2.011   .     S
C627   C633    1.410   .     A
C627   C631    1.397   .     A
C628   C632    1.397   .     A
C628   C634    1.410   .     A
C629   C637    1.398   .     A
C629   H649    1.084   .     S
C629   C631    1.385   .     A
C630   C638    1.398   .     A
C630   H650    1.084   .     S
C630   C632    1.385   .     A
C631   H648    1.084   .     S
C632   H647    1.084   .     S
C633   C635    1.420   .     A
C633   N674    1.438   .     S
C634   C636    1.420   .     A
C634   N671    1.439   .     S
C635   C639    1.426   .     A
C635   C637    1.422   .     A
C636   C638    1.422   .     A
C636   C640    1.426   .     A
C637   C31     1.390   1_556 S
C639   C642    1.411   .     A
C639   C28     1.422   1_556 S
C640   C641    1.411   .     A
C641   H651    1.078   .     S
C641   C643    1.384   .     A
C642   H652    1.078   .     S
C642   C644    1.384   .     A
C643   H645    1.085   .     S
C644   H646    1.085   .     S
C644   C26     1.390   1_556 S
C653   H655    1.084   .     S
C653   C662    1.397   .     A
C653   C861    1.370   .     S
C654   H656    1.084   .     S
C654   C661    1.397   .     A
C654   C1066   1.370   1_545 S
C657   C661    1.397   .     A
C657   H659    1.084   .     S
C657   C1061   1.370   1_545 S
C658   C662    1.397   .     A
C658   H660    1.084   .     S
C658   C858    1.370   .     S
C663   N670    1.367   .     A
C663   O677    1.378   .     S
C663   C733    1.426   .     S
C664   N669    1.367   .     A
C664   O679    1.378   .     S
C664   C802    1.426   1_455 S
C665   H667    1.082   .     S
C665   N669    1.365   .     A
C665   C799    1.426   1_455 S
C666   N670    1.365   .     A
C666   H668    1.082   .     S
C666   C732    1.426   .     S
N671   O672    1.302   .     A
N671   O673    1.302   .     A
N674   O675    1.302   .     A
N674   O676    1.302   .     A
O677   H746    0.992   .     S
H678   O813    0.992   1_455 S
O679   H816    0.992   1_455 S
H680   O747    0.992   .     S
O681   C685    1.283   .     A
O681   Zn693   1.999   .     S
O682   C686    1.283   .     A
O682   Zn694   1.999   .     S
O683   C685    1.283   .     A
O683   Zn694   1.998   .     S
O684   C686    1.283   .     A
O684   Zn693   1.998   .     S
C685   C730    1.418   .     S
C686   C729    1.418   .     S
O687   C691    1.293   .     A
O687   Zn693   1.982   .     S
O688   C692    1.293   .     A
O688   Zn694   1.982   .     S
O689   Zn694   1.920   .     S
O689   C691    1.292   .     A
O690   C692    1.292   .     A
O690   Zn693   1.920   .     S
C691   C695    1.457   .     S
C692   C696    1.457   .     S
Zn693  N737    2.011   .     S
Zn694  N738    2.011   .     S
C695   C701    1.410   .     A
C695   C699    1.397   .     A
C696   C700    1.397   .     A
C696   C702    1.410   .     A
C697   C705    1.398   .     A
C697   H717    1.084   .     S
C697   C699    1.385   .     A
C698   C706    1.398   .     A
C698   H718    1.084   .     S
C698   C700    1.385   .     A
C699   H716    1.084   .     S
C700   H715    1.084   .     S
C701   C703    1.420   .     A
C701   N742    1.438   .     S
C702   C704    1.420   .     A
C702   N739    1.439   .     S
C703   C707    1.426   .     A
C703   C705    1.422   .     A
C704   C706    1.422   .     A
C704   C708    1.426   .     A
C705   C99     1.390   1_556 S
C707   C710    1.411   .     A
C707   C96     1.422   1_556 S
C708   C709    1.411   .     A
C709   H719    1.078   .     S
C709   C711    1.384   .     A
C710   H720    1.078   .     S
C710   C712    1.384   .     A
C711   H713    1.085   .     S
C712   H714    1.085   .     S
C712   C94     1.390   1_556 S
C721   H723    1.084   .     S
C721   C730    1.397   .     A
C721   C929    1.370   .     S
C722   H724    1.084   .     S
C722   C729    1.397   .     A
C722   C1134   1.370   1_545 S
C725   C729    1.397   .     A
C725   H727    1.084   .     S
C725   C1129   1.370   1_545 S
C726   C730    1.397   .     A
C726   H728    1.084   .     S
C726   C926    1.370   .     S
C731   N738    1.367   .     A
C731   O745    1.378   .     S
C731   C801    1.426   .     S
C732   N737    1.367   .     A
C732   O747    1.378   .     S
C733   H735    1.082   .     S
C733   N737    1.365   .     A
C734   N738    1.365   .     A
C734   H736    1.082   .     S
C734   C800    1.426   .     S
N739   O740    1.302   .     A
N739   O741    1.302   .     A
N742   O743    1.302   .     A
N742   O744    1.302   .     A
O745   H814    0.992   .     S
H748   O815    0.992   .     S
O749   C753    1.283   .     A
O749   Zn761   1.999   .     S
O750   C754    1.283   .     A
O750   Zn762   1.999   .     S
O751   C753    1.283   .     A
O751   Zn762   1.998   .     S
O752   C754    1.283   .     A
O752   Zn761   1.998   .     S
C753   C798    1.418   .     S
C754   C797    1.418   .     S
O755   C759    1.293   .     A
O755   Zn761   1.982   .     S
O756   C760    1.293   .     A
O756   Zn762   1.982   .     S
O757   Zn762   1.920   .     S
O757   C759    1.292   .     A
O758   C760    1.292   .     A
O758   Zn761   1.920   .     S
C759   C763    1.457   .     S
C760   C764    1.457   .     S
Zn761  N805    2.011   .     S
Zn762  N806    2.011   .     S
C763   C769    1.410   .     A
C763   C767    1.397   .     A
C764   C768    1.397   .     A
C764   C770    1.410   .     A
C765   C773    1.398   .     A
C765   H785    1.084   .     S
C765   C767    1.385   .     A
C766   C774    1.398   .     A
C766   H786    1.084   .     S
C766   C768    1.385   .     A
C767   H784    1.084   .     S
C768   H783    1.084   .     S
C769   C771    1.420   .     A
C769   N810    1.438   .     S
C770   C772    1.420   .     A
C770   N807    1.439   .     S
C771   C775    1.426   .     A
C771   C773    1.422   .     A
C772   C774    1.422   .     A
C772   C776    1.426   .     A
C773   C167    1.390   1_556 S
C775   C778    1.411   .     A
C775   C164    1.422   1_556 S
C776   C777    1.411   .     A
C777   H787    1.078   .     S
C777   C779    1.384   .     A
C778   H788    1.078   .     S
C778   C780    1.384   .     A
C779   H781    1.085   .     S
C780   H782    1.085   .     S
C780   C162    1.390   1_556 S
C789   H791    1.084   .     S
C789   C798    1.397   .     A
C789   C997    1.370   .     S
C790   H792    1.084   .     S
C790   C797    1.397   .     A
C790   C1202   1.370   1_545 S
C793   C797    1.397   .     A
C793   H795    1.084   .     S
C793   C1197   1.370   1_545 S
C794   C798    1.397   .     A
C794   H796    1.084   .     S
C794   C994    1.370   .     S
C799   N806    1.367   .     A
C799   O813    1.378   .     S
C799   C665    1.426   1_655 S
C800   N805    1.367   .     A
C800   O815    1.378   .     S
C801   H803    1.082   .     S
C801   N805    1.365   .     A
C802   N806    1.365   .     A
C802   H804    1.082   .     S
C802   C664    1.426   1_655 S
N807   O808    1.302   .     A
N807   O809    1.302   .     A
N810   O811    1.302   .     A
N810   O812    1.302   .     A
O813   H678    0.992   1_655 S
H816   O679    0.992   1_655 S
O817   C821    1.283   .     A
O817   Zn829   1.999   .     S
O818   C822    1.283   .     A
O818   Zn830   1.999   .     S
O819   C821    1.283   .     A
O819   Zn830   1.998   .     S
O820   C822    1.283   .     A
O820   Zn829   1.998   .     S
C821   C866    1.418   .     S
C822   C865    1.418   .     S
O823   C827    1.293   .     A
O823   Zn829   1.982   .     S
O824   C828    1.293   .     A
O824   Zn830   1.982   .     S
O825   Zn830   1.920   .     S
O825   C827    1.292   .     A
O826   C828    1.292   .     A
O826   Zn829   1.920   .     S
C827   C831    1.457   .     S
C828   C832    1.457   .     S
Zn829  N873    2.011   .     S
Zn830  N874    2.011   .     S
C831   C837    1.410   .     A
C831   C835    1.397   .     A
C832   C836    1.397   .     A
C832   C838    1.410   .     A
C833   C841    1.398   .     A
C833   H853    1.084   .     S
C833   C835    1.385   .     A
C834   C842    1.398   .     A
C834   H854    1.084   .     S
C834   C836    1.385   .     A
C835   H852    1.084   .     S
C836   H851    1.084   .     S
C837   C839    1.420   .     A
C837   N878    1.438   .     S
C838   C840    1.420   .     A
C838   N875    1.439   .     S
C839   C843    1.426   .     A
C839   C841    1.422   .     A
C840   C842    1.422   .     A
C840   C844    1.426   .     A
C841   C235    1.390   1_556 S
C843   C846    1.411   .     A
C843   C232    1.422   1_556 S
C844   C845    1.411   .     A
C845   H855    1.078   .     S
C845   C847    1.384   .     A
C846   H856    1.078   .     S
C846   C848    1.384   .     A
C847   H849    1.085   .     S
C848   H850    1.085   .     S
C848   C230    1.390   1_556 S
C857   H859    1.084   .     S
C857   C866    1.397   .     A
C857   C1065   1.370   .     S
C858   H860    1.084   .     S
C858   C865    1.397   .     A
C861   C865    1.397   .     A
C861   H863    1.084   .     S
C862   C866    1.397   .     A
C862   H864    1.084   .     S
C862   C1062   1.370   .     S
C867   N874    1.367   .     A
C867   O881    1.378   .     S
C867   C937    1.426   .     S
C868   N873    1.367   .     A
C868   O883    1.378   .     S
C868   C1006   1.426   1_455 S
C869   H871    1.082   .     S
C869   N873    1.365   .     A
C869   C1003   1.426   1_455 S
C870   N874    1.365   .     A
C870   H872    1.082   .     S
C870   C936    1.426   .     S
N875   O876    1.302   .     A
N875   O877    1.302   .     A
N878   O879    1.302   .     A
N878   O880    1.302   .     A
O881   H950    0.992   .     S
H882   O1017   0.992   1_455 S
O883   H1020   0.992   1_455 S
H884   O951    0.992   .     S
O885   C889    1.283   .     A
O885   Zn897   1.999   .     S
O886   C890    1.283   .     A
O886   Zn898   1.999   .     S
O887   C889    1.283   .     A
O887   Zn898   1.998   .     S
O888   C890    1.283   .     A
O888   Zn897   1.998   .     S
C889   C934    1.418   .     S
C890   C933    1.418   .     S
O891   C895    1.293   .     A
O891   Zn897   1.982   .     S
O892   C896    1.293   .     A
O892   Zn898   1.982   .     S
O893   Zn898   1.920   .     S
O893   C895    1.292   .     A
O894   C896    1.292   .     A
O894   Zn897   1.920   .     S
C895   C899    1.457   .     S
C896   C900    1.457   .     S
Zn897  N941    2.011   .     S
Zn898  N942    2.011   .     S
C899   C905    1.410   .     A
C899   C903    1.397   .     A
C900   C904    1.397   .     A
C900   C906    1.410   .     A
C901   C909    1.398   .     A
C901   H921    1.084   .     S
C901   C903    1.385   .     A
C902   C910    1.398   .     A
C902   H922    1.084   .     S
C902   C904    1.385   .     A
C903   H920    1.084   .     S
C904   H919    1.084   .     S
C905   C907    1.420   .     A
C905   N946    1.438   .     S
C906   C908    1.420   .     A
C906   N943    1.439   .     S
C907   C911    1.426   .     A
C907   C909    1.422   .     A
C908   C910    1.422   .     A
C908   C912    1.426   .     A
C909   C303    1.390   1_556 S
C911   C914    1.411   .     A
C911   C300    1.422   1_556 S
C912   C913    1.411   .     A
C913   H923    1.078   .     S
C913   C915    1.384   .     A
C914   H924    1.078   .     S
C914   C916    1.384   .     A
C915   H917    1.085   .     S
C916   H918    1.085   .     S
C916   C298    1.390   1_556 S
C925   H927    1.084   .     S
C925   C934    1.397   .     A
C925   C1133   1.370   .     S
C926   H928    1.084   .     S
C926   C933    1.397   .     A
C929   C933    1.397   .     A
C929   H931    1.084   .     S
C930   C934    1.397   .     A
C930   H932    1.084   .     S
C930   C1130   1.370   .     S
C935   N942    1.367   .     A
C935   O949    1.378   .     S
C935   C1005   1.426   .     S
C936   N941    1.367   .     A
C936   O951    1.378   .     S
C937   H939    1.082   .     S
C937   N941    1.365   .     A
C938   N942    1.365   .     A
C938   H940    1.082   .     S
C938   C1004   1.426   .     S
N943   O944    1.302   .     A
N943   O945    1.302   .     A
N946   O947    1.302   .     A
N946   O948    1.302   .     A
O949   H1018   0.992   .     S
H952   O1019   0.992   .     S
O953   C957    1.283   .     A
O953   Zn965   1.999   .     S
O954   C958    1.283   .     A
O954   Zn966   1.999   .     S
O955   C957    1.283   .     A
O955   Zn966   1.998   .     S
O956   C958    1.283   .     A
O956   Zn965   1.998   .     S
C957   C1002   1.418   .     S
C958   C1001   1.418   .     S
O959   C963    1.293   .     A
O959   Zn965   1.982   .     S
O960   C964    1.293   .     A
O960   Zn966   1.982   .     S
O961   Zn966   1.920   .     S
O961   C963    1.292   .     A
O962   C964    1.292   .     A
O962   Zn965   1.920   .     S
C963   C967    1.457   .     S
C964   C968    1.457   .     S
Zn965  N1009   2.011   .     S
Zn966  N1010   2.011   .     S
C967   C973    1.410   .     A
C967   C971    1.397   .     A
C968   C972    1.397   .     A
C968   C974    1.410   .     A
C969   C977    1.398   .     A
C969   H989    1.084   .     S
C969   C971    1.385   .     A
C970   C978    1.398   .     A
C970   H990    1.084   .     S
C970   C972    1.385   .     A
C971   H988    1.084   .     S
C972   H987    1.084   .     S
C973   C975    1.420   .     A
C973   N1014   1.438   .     S
C974   C976    1.420   .     A
C974   N1011   1.439   .     S
C975   C979    1.426   .     A
C975   C977    1.422   .     A
C976   C978    1.422   .     A
C976   C980    1.426   .     A
C977   C371    1.390   1_556 S
C979   C982    1.411   .     A
C979   C368    1.422   1_556 S
C980   C981    1.411   .     A
C981   H991    1.078   .     S
C981   C983    1.384   .     A
C982   H992    1.078   .     S
C982   C984    1.384   .     A
C983   H985    1.085   .     S
C984   H986    1.085   .     S
C984   C366    1.390   1_556 S
C993   H995    1.084   .     S
C993   C1002   1.397   .     A
C993   C1201   1.370   .     S
C994   H996    1.084   .     S
C994   C1001   1.397   .     A
C997   C1001   1.397   .     A
C997   H999    1.084   .     S
C998   C1002   1.397   .     A
C998   H1000   1.084   .     S
C998   C1198   1.370   .     S
C1003  N1010   1.367   .     A
C1003  O1017   1.378   .     S
C1003  C869    1.426   1_655 S
C1004  N1009   1.367   .     A
C1004  O1019   1.378   .     S
C1005  H1007   1.082   .     S
C1005  N1009   1.365   .     A
C1006  N1010   1.365   .     A
C1006  H1008   1.082   .     S
C1006  C868    1.426   1_655 S
N1011  O1012   1.302   .     A
N1011  O1013   1.302   .     A
N1014  O1015   1.302   .     A
N1014  O1016   1.302   .     A
O1017  H882    0.992   1_655 S
H1020  O883    0.992   1_655 S
O1021  C1025   1.283   .     A
O1021  Zn1033  1.999   .     S
O1022  C1026   1.283   .     A
O1022  Zn1034  1.999   .     S
O1023  C1025   1.283   .     A
O1023  Zn1034  1.998   .     S
O1024  C1026   1.283   .     A
O1024  Zn1033  1.998   .     S
C1025  C1070   1.418   .     S
C1026  C1069   1.418   .     S
O1027  C1031   1.293   .     A
O1027  Zn1033  1.982   .     S
O1028  C1032   1.293   .     A
O1028  Zn1034  1.982   .     S
O1029  Zn1034  1.920   .     S
O1029  C1031   1.292   .     A
O1030  C1032   1.292   .     A
O1030  Zn1033  1.920   .     S
C1031  C1035   1.457   .     S
C1032  C1036   1.457   .     S
Zn1033 N1077   2.011   .     S
Zn1034 N1078   2.011   .     S
C1035  C1041   1.410   .     A
C1035  C1039   1.397   .     A
C1036  C1040   1.397   .     A
C1036  C1042   1.410   .     A
C1037  C1045   1.398   .     A
C1037  H1057   1.084   .     S
C1037  C1039   1.385   .     A
C1038  C1046   1.398   .     A
C1038  H1058   1.084   .     S
C1038  C1040   1.385   .     A
C1039  H1056   1.084   .     S
C1040  H1055   1.084   .     S
C1041  C1043   1.420   .     A
C1041  N1082   1.438   .     S
C1042  C1044   1.420   .     A
C1042  N1079   1.439   .     S
C1043  C1047   1.426   .     A
C1043  C1045   1.422   .     A
C1044  C1046   1.422   .     A
C1044  C1048   1.426   .     A
C1045  C439    1.390   1_556 S
C1047  C1050   1.411   .     A
C1047  C436    1.422   1_556 S
C1048  C1049   1.411   .     A
C1049  H1059   1.078   .     S
C1049  C1051   1.384   .     A
C1050  H1060   1.078   .     S
C1050  C1052   1.384   .     A
C1051  H1053   1.085   .     S
C1052  H1054   1.085   .     S
C1052  C434    1.390   1_556 S
C1061  H1063   1.084   .     S
C1061  C1070   1.397   .     A
C1061  C657    1.370   1_565 S
C1062  H1064   1.084   .     S
C1062  C1069   1.397   .     A
C1065  C1069   1.397   .     A
C1065  H1067   1.084   .     S
C1066  C1070   1.397   .     A
C1066  H1068   1.084   .     S
C1066  C654    1.370   1_565 S
C1071  N1078   1.367   .     A
C1071  O1085   1.378   .     S
C1071  C1141   1.426   .     S
C1072  N1077   1.367   .     A
C1072  O1087   1.378   .     S
C1072  C1210   1.426   1_455 S
C1073  H1075   1.082   .     S
C1073  N1077   1.365   .     A
C1073  C1207   1.426   1_455 S
C1074  N1078   1.365   .     A
C1074  H1076   1.082   .     S
C1074  C1140   1.426   .     S
N1079  O1080   1.302   .     A
N1079  O1081   1.302   .     A
N1082  O1083   1.302   .     A
N1082  O1084   1.302   .     A
O1085  H1154   0.992   .     S
H1086  O1221   0.992   1_455 S
O1087  H1224   0.992   1_455 S
H1088  O1155   0.992   .     S
O1089  C1093   1.283   .     A
O1089  Zn1101  1.999   .     S
O1090  C1094   1.283   .     A
O1090  Zn1102  1.999   .     S
O1091  C1093   1.283   .     A
O1091  Zn1102  1.998   .     S
O1092  C1094   1.283   .     A
O1092  Zn1101  1.998   .     S
C1093  C1138   1.418   .     S
C1094  C1137   1.418   .     S
O1095  C1099   1.293   .     A
O1095  Zn1101  1.982   .     S
O1096  C1100   1.293   .     A
O1096  Zn1102  1.982   .     S
O1097  Zn1102  1.920   .     S
O1097  C1099   1.292   .     A
O1098  C1100   1.292   .     A
O1098  Zn1101  1.920   .     S
C1099  C1103   1.457   .     S
C1100  C1104   1.457   .     S
Zn1101 N1145   2.011   .     S
Zn1102 N1146   2.011   .     S
C1103  C1109   1.410   .     A
C1103  C1107   1.397   .     A
C1104  C1108   1.397   .     A
C1104  C1110   1.410   .     A
C1105  C1113   1.398   .     A
C1105  H1125   1.084   .     S
C1105  C1107   1.385   .     A
C1106  C1114   1.398   .     A
C1106  H1126   1.084   .     S
C1106  C1108   1.385   .     A
C1107  H1124   1.084   .     S
C1108  H1123   1.084   .     S
C1109  C1111   1.420   .     A
C1109  N1150   1.438   .     S
C1110  C1112   1.420   .     A
C1110  N1147   1.439   .     S
C1111  C1115   1.426   .     A
C1111  C1113   1.422   .     A
C1112  C1114   1.422   .     A
C1112  C1116   1.426   .     A
C1113  C507    1.390   1_556 S
C1115  C1118   1.411   .     A
C1115  C504    1.422   1_556 S
C1116  C1117   1.411   .     A
C1117  H1127   1.078   .     S
C1117  C1119   1.384   .     A
C1118  H1128   1.078   .     S
C1118  C1120   1.384   .     A
C1119  H1121   1.085   .     S
C1120  H1122   1.085   .     S
C1120  C502    1.390   1_556 S
C1129  H1131   1.084   .     S
C1129  C1138   1.397   .     A
C1129  C725    1.370   1_565 S
C1130  H1132   1.084   .     S
C1130  C1137   1.397   .     A
C1133  C1137   1.397   .     A
C1133  H1135   1.084   .     S
C1134  C1138   1.397   .     A
C1134  H1136   1.084   .     S
C1134  C722    1.370   1_565 S
C1139  N1146   1.367   .     A
C1139  O1153   1.378   .     S
C1139  C1209   1.426   .     S
C1140  N1145   1.367   .     A
C1140  O1155   1.378   .     S
C1141  H1143   1.082   .     S
C1141  N1145   1.365   .     A
C1142  N1146   1.365   .     A
C1142  H1144   1.082   .     S
C1142  C1208   1.426   .     S
N1147  O1148   1.302   .     A
N1147  O1149   1.302   .     A
N1150  O1151   1.302   .     A
N1150  O1152   1.302   .     A
O1153  H1222   0.992   .     S
H1156  O1223   0.992   .     S
O1157  C1161   1.283   .     A
O1157  Zn1169  1.999   .     S
O1158  C1162   1.283   .     A
O1158  Zn1170  1.999   .     S
O1159  C1161   1.283   .     A
O1159  Zn1170  1.998   .     S
O1160  C1162   1.283   .     A
O1160  Zn1169  1.998   .     S
C1161  C1206   1.418   .     S
C1162  C1205   1.418   .     S
O1163  C1167   1.293   .     A
O1163  Zn1169  1.982   .     S
O1164  C1168   1.293   .     A
O1164  Zn1170  1.982   .     S
O1165  Zn1170  1.920   .     S
O1165  C1167   1.292   .     A
O1166  C1168   1.292   .     A
O1166  Zn1169  1.920   .     S
C1167  C1171   1.457   .     S
C1168  C1172   1.457   .     S
Zn1169 N1213   2.011   .     S
Zn1170 N1214   2.011   .     S
C1171  C1177   1.410   .     A
C1171  C1175   1.397   .     A
C1172  C1176   1.397   .     A
C1172  C1178   1.410   .     A
C1173  C1181   1.398   .     A
C1173  H1193   1.084   .     S
C1173  C1175   1.385   .     A
C1174  C1182   1.398   .     A
C1174  H1194   1.084   .     S
C1174  C1176   1.385   .     A
C1175  H1192   1.084   .     S
C1176  H1191   1.084   .     S
C1177  C1179   1.420   .     A
C1177  N1218   1.438   .     S
C1178  C1180   1.420   .     A
C1178  N1215   1.439   .     S
C1179  C1183   1.426   .     A
C1179  C1181   1.422   .     A
C1180  C1182   1.422   .     A
C1180  C1184   1.426   .     A
C1181  C575    1.390   1_556 S
C1183  C1186   1.411   .     A
C1183  C572    1.422   1_556 S
C1184  C1185   1.411   .     A
C1185  H1195   1.078   .     S
C1185  C1187   1.384   .     A
C1186  H1196   1.078   .     S
C1186  C1188   1.384   .     A
C1187  H1189   1.085   .     S
C1188  H1190   1.085   .     S
C1188  C570    1.390   1_556 S
C1197  H1199   1.084   .     S
C1197  C1206   1.397   .     A
C1197  C793    1.370   1_565 S
C1198  H1200   1.084   .     S
C1198  C1205   1.397   .     A
C1201  C1205   1.397   .     A
C1201  H1203   1.084   .     S
C1202  C1206   1.397   .     A
C1202  H1204   1.084   .     S
C1202  C790    1.370   1_565 S
C1207  N1214   1.367   .     A
C1207  O1221   1.378   .     S
C1207  C1073   1.426   1_655 S
C1208  N1213   1.367   .     A
C1208  O1223   1.378   .     S
C1209  H1211   1.082   .     S
C1209  N1213   1.365   .     A
C1210  N1214   1.365   .     A
C1210  H1212   1.082   .     S
C1210  C1072   1.426   1_655 S
N1215  O1216   1.302   .     A
N1215  O1217   1.302   .     A
N1218  O1219   1.302   .     A
N1218  O1220   1.302   .     A
O1221  H1086   0.992   1_655 S
H1224  O1087   0.992   1_655 S
