data_str_m2_o10_o17_pcu_sym.90
_audit_creation_date              2020-01-03
_audit_creation_method            'Materials Studio'
_symmetry_space_group_name_H-M    'P1'
_symmetry_Int_Tables_number       1
_symmetry_cell_setting            triclinic
loop_
_symmetry_equiv_pos_as_xyz
  x,y,z
_cell_length_a                    30.0008
_cell_length_b                    26.0213
_cell_length_c                    22.3590
_cell_angle_alpha                 102.9207
_cell_angle_beta                  93.9168
_cell_angle_gamma                 92.4677
loop_
_atom_site_label
_atom_site_type_symbol
_atom_site_fract_x
_atom_site_fract_y
_atom_site_fract_z
_atom_site_U_iso_or_equiv
_atom_site_adp_type
_atom_site_occupancy
C1     C     0.24858   0.06659   0.15110   0.00000  Uiso   1.00
C2     C     0.09125   0.11825   0.15371   0.00000  Uiso   1.00
C3     C     0.38335   0.16682   0.16367   0.00000  Uiso   1.00
C4     C     0.11665   0.16651   0.16966   0.00000  Uiso   1.00
C5     C     0.40352   0.11853   0.14810   0.00000  Uiso   1.00
C6     C     0.09648   0.21481   0.18523   0.00000  Uiso   1.00
C7     C     0.45033   0.11822   0.14951   0.00000  Uiso   1.00
C8     C     0.04967   0.21512   0.18382   0.00000  Uiso   1.00
C9     C     0.47644   0.16671   0.16583   0.00000  Uiso   1.00
C10    C     0.02356   0.16663   0.16750   0.00000  Uiso   1.00
C11    C     0.45556   0.21528   0.18056   0.00000  Uiso   1.00
C12    C     0.25142   0.26674   0.18223   0.00000  Uiso   1.00
C13    C     0.04444   0.11806   0.15278   0.00000  Uiso   1.00
C14    C     0.47169   0.07054   0.13545   0.00000  Uiso   1.00
C15    C     0.02831   0.26279   0.19788   0.00000  Uiso   1.00
C16    C     0.01798   0.07046   0.13710   0.00000  Uiso   1.00
C17    C     0.48202   0.26287   0.19624   0.00000  Uiso   1.00
C18    C     0.24790   0.01060   0.14235   0.00000  Uiso   1.00
C19    C     0.25210   0.32273   0.19098   0.00000  Uiso   1.00
C20    C     0.16468   0.16655   0.16762   0.00000  Uiso   1.00
C21    C     0.33532   0.16678   0.16572   0.00000  Uiso   1.00
C22    C     0.40875   0.21509   0.17962   0.00000  Uiso   1.00
Cl23   Cl    0.38108   0.27489   0.19834   0.00000  Uiso   1.00
Cl24   Cl    0.11892   0.05844   0.13500   0.00000  Uiso   1.00
Cl25   Cl    0.36942   0.05879   0.12814   0.00000  Uiso   1.00
Cl26   Cl    0.13058   0.27454   0.20519   0.00000  Uiso   1.00
Cu27   Cu    0.25500   0.17246   0.22813   0.00000  Uiso   1.00
Cu28   Cu    0.24499   0.16087   0.10521   0.00000  Uiso   1.00
H29    H     0.45300   0.03271   0.12307   0.00000  Uiso   1.00
H30    H     0.04700   0.30063   0.21026   0.00000  Uiso   1.00
H31    H     0.03262   0.03257   0.12582   0.00000  Uiso   1.00
H32    H     0.46737   0.30076   0.20752   0.00000  Uiso   1.00
H33    H     0.24397   0.32007   0.09549   0.00000  Uiso   1.00
H34    H     0.25603   0.01326   0.23784   0.00000  Uiso   1.00
H35    H     0.21505   0.12593   0.31626   0.00000  Uiso   1.00
H36    H     0.28495   0.20741   0.01707   0.00000  Uiso   1.00
N37    N     0.23744   0.15214   0.01284   0.00000  Uiso   1.00
N38    N     0.26255   0.18119   0.32049   0.00000  Uiso   1.00
O39    O     0.25325   0.09538   0.20659   0.00000  Uiso   1.00
O40    O     0.24674   0.23796   0.12674   0.00000  Uiso   1.00
O41    O     0.24480   0.08559   0.10279   0.00000  Uiso   1.00
O42    O     0.25520   0.24774   0.23055   0.00000  Uiso   1.00
O43    O     0.18935   0.17155   0.21857   0.00000  Uiso   1.00
O44    O     0.31064   0.16179   0.11476   0.00000  Uiso   1.00
O45    O     0.18090   0.16176   0.11477   0.00000  Uiso   1.00
O46    O     0.31910   0.17157   0.21857   0.00000  Uiso   1.00
C47    C     0.74858   0.06659   0.15110   0.00000  Uiso   1.00
C48    C     0.59125   0.11825   0.15371   0.00000  Uiso   1.00
C49    C     0.88335   0.16682   0.16367   0.00000  Uiso   1.00
C50    C     0.61665   0.16651   0.16966   0.00000  Uiso   1.00
C51    C     0.90352   0.11853   0.14810   0.00000  Uiso   1.00
C52    C     0.59648   0.21481   0.18523   0.00000  Uiso   1.00
C53    C     0.95033   0.11822   0.14951   0.00000  Uiso   1.00
C54    C     0.54967   0.21512   0.18382   0.00000  Uiso   1.00
C55    C     0.97644   0.16671   0.16583   0.00000  Uiso   1.00
C56    C     0.52356   0.16663   0.16750   0.00000  Uiso   1.00
C57    C     0.95556   0.21528   0.18056   0.00000  Uiso   1.00
C58    C     0.75142   0.26674   0.18223   0.00000  Uiso   1.00
C59    C     0.54444   0.11806   0.15278   0.00000  Uiso   1.00
C60    C     0.97169   0.07054   0.13545   0.00000  Uiso   1.00
C61    C     0.52831   0.26279   0.19788   0.00000  Uiso   1.00
C62    C     0.51798   0.07046   0.13710   0.00000  Uiso   1.00
C63    C     0.98202   0.26287   0.19624   0.00000  Uiso   1.00
C64    C     0.74790   0.01060   0.14235   0.00000  Uiso   1.00
C65    C     0.75210   0.32273   0.19098   0.00000  Uiso   1.00
C66    C     0.66468   0.16655   0.16762   0.00000  Uiso   1.00
C67    C     0.83532   0.16678   0.16572   0.00000  Uiso   1.00
C68    C     0.90875   0.21509   0.17962   0.00000  Uiso   1.00
Cl69   Cl    0.88108   0.27489   0.19834   0.00000  Uiso   1.00
Cl70   Cl    0.61892   0.05844   0.13500   0.00000  Uiso   1.00
Cl71   Cl    0.86942   0.05879   0.12814   0.00000  Uiso   1.00
Cl72   Cl    0.63058   0.27454   0.20519   0.00000  Uiso   1.00
Cu73   Cu    0.75500   0.17246   0.22813   0.00000  Uiso   1.00
Cu74   Cu    0.74499   0.16087   0.10521   0.00000  Uiso   1.00
H75    H     0.95300   0.03271   0.12307   0.00000  Uiso   1.00
H76    H     0.54700   0.30063   0.21026   0.00000  Uiso   1.00
H77    H     0.53262   0.03257   0.12582   0.00000  Uiso   1.00
H78    H     0.96737   0.30076   0.20752   0.00000  Uiso   1.00
H79    H     0.74397   0.32007   0.09549   0.00000  Uiso   1.00
H80    H     0.75603   0.01326   0.23784   0.00000  Uiso   1.00
H81    H     0.71505   0.12593   0.31626   0.00000  Uiso   1.00
H82    H     0.78495   0.20741   0.01707   0.00000  Uiso   1.00
N83    N     0.73744   0.15214   0.01284   0.00000  Uiso   1.00
N84    N     0.76255   0.18119   0.32049   0.00000  Uiso   1.00
O85    O     0.75325   0.09538   0.20659   0.00000  Uiso   1.00
O86    O     0.74674   0.23796   0.12674   0.00000  Uiso   1.00
O87    O     0.74480   0.08559   0.10279   0.00000  Uiso   1.00
O88    O     0.75520   0.24774   0.23055   0.00000  Uiso   1.00
O89    O     0.68935   0.17155   0.21857   0.00000  Uiso   1.00
O90    O     0.81064   0.16179   0.11476   0.00000  Uiso   1.00
O91    O     0.68090   0.16176   0.11477   0.00000  Uiso   1.00
O92    O     0.81910   0.17157   0.21857   0.00000  Uiso   1.00
C93    C     0.24858   0.39992   0.15110   0.00000  Uiso   1.00
C94    C     0.09125   0.45158   0.15371   0.00000  Uiso   1.00
C95    C     0.38335   0.50015   0.16367   0.00000  Uiso   1.00
C96    C     0.11665   0.49985   0.16966   0.00000  Uiso   1.00
C97    C     0.40352   0.45186   0.14810   0.00000  Uiso   1.00
C98    C     0.09648   0.54814   0.18523   0.00000  Uiso   1.00
C99    C     0.45033   0.45155   0.14951   0.00000  Uiso   1.00
C100   C     0.04967   0.54845   0.18382   0.00000  Uiso   1.00
C101   C     0.47644   0.50004   0.16583   0.00000  Uiso   1.00
C102   C     0.02356   0.49996   0.16750   0.00000  Uiso   1.00
C103   C     0.45556   0.54861   0.18056   0.00000  Uiso   1.00
C104   C     0.25142   0.60008   0.18223   0.00000  Uiso   1.00
C105   C     0.04444   0.45139   0.15278   0.00000  Uiso   1.00
C106   C     0.47169   0.40388   0.13545   0.00000  Uiso   1.00
C107   C     0.02831   0.59612   0.19788   0.00000  Uiso   1.00
C108   C     0.01798   0.40380   0.13710   0.00000  Uiso   1.00
C109   C     0.48202   0.59620   0.19624   0.00000  Uiso   1.00
C110   C     0.24790   0.34394   0.14235   0.00000  Uiso   1.00
C111   C     0.25210   0.65606   0.19098   0.00000  Uiso   1.00
C112   C     0.16468   0.49988   0.16762   0.00000  Uiso   1.00
C113   C     0.33532   0.50012   0.16572   0.00000  Uiso   1.00
C114   C     0.40875   0.54842   0.17962   0.00000  Uiso   1.00
Cl115  Cl    0.38108   0.60823   0.19834   0.00000  Uiso   1.00
Cl116  Cl    0.11892   0.39177   0.13500   0.00000  Uiso   1.00
Cl117  Cl    0.36942   0.39213   0.12814   0.00000  Uiso   1.00
Cl118  Cl    0.13058   0.60787   0.20519   0.00000  Uiso   1.00
Cu119  Cu    0.25500   0.50579   0.22813   0.00000  Uiso   1.00
Cu120  Cu    0.24499   0.49421   0.10521   0.00000  Uiso   1.00
H121   H     0.45300   0.36604   0.12307   0.00000  Uiso   1.00
H122   H     0.04700   0.63396   0.21026   0.00000  Uiso   1.00
H123   H     0.03262   0.36591   0.12582   0.00000  Uiso   1.00
H124   H     0.46737   0.63409   0.20752   0.00000  Uiso   1.00
H125   H     0.24397   0.65340   0.09549   0.00000  Uiso   1.00
H126   H     0.25603   0.34660   0.23784   0.00000  Uiso   1.00
H127   H     0.21505   0.45926   0.31626   0.00000  Uiso   1.00
H128   H     0.28495   0.54074   0.01707   0.00000  Uiso   1.00
N129   N     0.23744   0.48547   0.01284   0.00000  Uiso   1.00
N130   N     0.26255   0.51453   0.32049   0.00000  Uiso   1.00
O131   O     0.25325   0.42871   0.20659   0.00000  Uiso   1.00
O132   O     0.24674   0.57129   0.12674   0.00000  Uiso   1.00
O133   O     0.24480   0.41892   0.10279   0.00000  Uiso   1.00
O134   O     0.25520   0.58108   0.23055   0.00000  Uiso   1.00
O135   O     0.18935   0.50488   0.21857   0.00000  Uiso   1.00
O136   O     0.31064   0.49512   0.11476   0.00000  Uiso   1.00
O137   O     0.18090   0.49510   0.11477   0.00000  Uiso   1.00
O138   O     0.31910   0.50490   0.21857   0.00000  Uiso   1.00
C139   C     0.74858   0.39992   0.15110   0.00000  Uiso   1.00
C140   C     0.59125   0.45158   0.15371   0.00000  Uiso   1.00
C141   C     0.88335   0.50015   0.16367   0.00000  Uiso   1.00
C142   C     0.61665   0.49985   0.16966   0.00000  Uiso   1.00
C143   C     0.90352   0.45186   0.14810   0.00000  Uiso   1.00
C144   C     0.59648   0.54814   0.18523   0.00000  Uiso   1.00
C145   C     0.95033   0.45155   0.14951   0.00000  Uiso   1.00
C146   C     0.54967   0.54845   0.18382   0.00000  Uiso   1.00
C147   C     0.97644   0.50004   0.16583   0.00000  Uiso   1.00
C148   C     0.52356   0.49996   0.16750   0.00000  Uiso   1.00
C149   C     0.95556   0.54861   0.18056   0.00000  Uiso   1.00
C150   C     0.75142   0.60008   0.18223   0.00000  Uiso   1.00
C151   C     0.54444   0.45139   0.15278   0.00000  Uiso   1.00
C152   C     0.97169   0.40388   0.13545   0.00000  Uiso   1.00
C153   C     0.52831   0.59612   0.19788   0.00000  Uiso   1.00
C154   C     0.51798   0.40380   0.13710   0.00000  Uiso   1.00
C155   C     0.98202   0.59620   0.19624   0.00000  Uiso   1.00
C156   C     0.74790   0.34394   0.14235   0.00000  Uiso   1.00
C157   C     0.75210   0.65606   0.19098   0.00000  Uiso   1.00
C158   C     0.66468   0.49988   0.16762   0.00000  Uiso   1.00
C159   C     0.83532   0.50012   0.16572   0.00000  Uiso   1.00
C160   C     0.90875   0.54842   0.17962   0.00000  Uiso   1.00
Cl161  Cl    0.88108   0.60823   0.19834   0.00000  Uiso   1.00
Cl162  Cl    0.61892   0.39177   0.13500   0.00000  Uiso   1.00
Cl163  Cl    0.86942   0.39213   0.12814   0.00000  Uiso   1.00
Cl164  Cl    0.63058   0.60787   0.20519   0.00000  Uiso   1.00
Cu165  Cu    0.75500   0.50579   0.22813   0.00000  Uiso   1.00
Cu166  Cu    0.74499   0.49421   0.10521   0.00000  Uiso   1.00
H167   H     0.95300   0.36604   0.12307   0.00000  Uiso   1.00
H168   H     0.54700   0.63396   0.21026   0.00000  Uiso   1.00
H169   H     0.53262   0.36591   0.12582   0.00000  Uiso   1.00
H170   H     0.96737   0.63409   0.20752   0.00000  Uiso   1.00
H171   H     0.74397   0.65340   0.09549   0.00000  Uiso   1.00
H172   H     0.75603   0.34660   0.23784   0.00000  Uiso   1.00
H173   H     0.71505   0.45926   0.31626   0.00000  Uiso   1.00
H174   H     0.78495   0.54074   0.01707   0.00000  Uiso   1.00
N175   N     0.73744   0.48547   0.01284   0.00000  Uiso   1.00
N176   N     0.76255   0.51453   0.32049   0.00000  Uiso   1.00
O177   O     0.75325   0.42871   0.20659   0.00000  Uiso   1.00
O178   O     0.74674   0.57129   0.12674   0.00000  Uiso   1.00
O179   O     0.74480   0.41892   0.10279   0.00000  Uiso   1.00
O180   O     0.75520   0.58108   0.23055   0.00000  Uiso   1.00
O181   O     0.68935   0.50488   0.21857   0.00000  Uiso   1.00
O182   O     0.81064   0.49512   0.11476   0.00000  Uiso   1.00
O183   O     0.68090   0.49510   0.11477   0.00000  Uiso   1.00
O184   O     0.81910   0.50490   0.21857   0.00000  Uiso   1.00
C185   C     0.24858   0.73326   0.15110   0.00000  Uiso   1.00
C186   C     0.09125   0.78491   0.15371   0.00000  Uiso   1.00
C187   C     0.38335   0.83349   0.16367   0.00000  Uiso   1.00
C188   C     0.11665   0.83318   0.16966   0.00000  Uiso   1.00
C189   C     0.40352   0.78519   0.14810   0.00000  Uiso   1.00
C190   C     0.09648   0.88147   0.18523   0.00000  Uiso   1.00
C191   C     0.45033   0.78488   0.14951   0.00000  Uiso   1.00
C192   C     0.04967   0.88178   0.18382   0.00000  Uiso   1.00
C193   C     0.47644   0.83337   0.16583   0.00000  Uiso   1.00
C194   C     0.02356   0.83329   0.16750   0.00000  Uiso   1.00
C195   C     0.45556   0.88194   0.18056   0.00000  Uiso   1.00
C196   C     0.25142   0.93341   0.18223   0.00000  Uiso   1.00
C197   C     0.04444   0.78472   0.15278   0.00000  Uiso   1.00
C198   C     0.47169   0.73721   0.13545   0.00000  Uiso   1.00
C199   C     0.02831   0.92946   0.19788   0.00000  Uiso   1.00
C200   C     0.01798   0.73713   0.13710   0.00000  Uiso   1.00
C201   C     0.48202   0.92954   0.19624   0.00000  Uiso   1.00
C202   C     0.24790   0.67727   0.14235   0.00000  Uiso   1.00
C203   C     0.25210   0.98940   0.19098   0.00000  Uiso   1.00
C204   C     0.16468   0.83322   0.16762   0.00000  Uiso   1.00
C205   C     0.33532   0.83345   0.16572   0.00000  Uiso   1.00
C206   C     0.40875   0.88175   0.17962   0.00000  Uiso   1.00
Cl207  Cl    0.38108   0.94156   0.19834   0.00000  Uiso   1.00
Cl208  Cl    0.11892   0.72511   0.13500   0.00000  Uiso   1.00
Cl209  Cl    0.36942   0.72546   0.12814   0.00000  Uiso   1.00
Cl210  Cl    0.13058   0.94121   0.20519   0.00000  Uiso   1.00
Cu211  Cu    0.25500   0.83913   0.22813   0.00000  Uiso   1.00
Cu212  Cu    0.24499   0.82754   0.10521   0.00000  Uiso   1.00
H213   H     0.45300   0.69937   0.12307   0.00000  Uiso   1.00
H214   H     0.04700   0.96729   0.21026   0.00000  Uiso   1.00
H215   H     0.03262   0.69924   0.12582   0.00000  Uiso   1.00
H216   H     0.46737   0.96743   0.20752   0.00000  Uiso   1.00
H217   H     0.24397   0.98674   0.09549   0.00000  Uiso   1.00
H218   H     0.25603   0.67993   0.23784   0.00000  Uiso   1.00
H219   H     0.21505   0.79259   0.31626   0.00000  Uiso   1.00
H220   H     0.28495   0.87407   0.01707   0.00000  Uiso   1.00
N221   N     0.23744   0.81881   0.01284   0.00000  Uiso   1.00
N222   N     0.26255   0.84786   0.32049   0.00000  Uiso   1.00
O223   O     0.25325   0.76204   0.20659   0.00000  Uiso   1.00
O224   O     0.24674   0.90462   0.12674   0.00000  Uiso   1.00
O225   O     0.24480   0.75226   0.10279   0.00000  Uiso   1.00
O226   O     0.25520   0.91441   0.23055   0.00000  Uiso   1.00
O227   O     0.18935   0.83821   0.21857   0.00000  Uiso   1.00
O228   O     0.31064   0.82845   0.11476   0.00000  Uiso   1.00
O229   O     0.18090   0.82843   0.11477   0.00000  Uiso   1.00
O230   O     0.31910   0.83824   0.21857   0.00000  Uiso   1.00
C231   C     0.74858   0.73326   0.15110   0.00000  Uiso   1.00
C232   C     0.59125   0.78491   0.15371   0.00000  Uiso   1.00
C233   C     0.88335   0.83349   0.16367   0.00000  Uiso   1.00
C234   C     0.61665   0.83318   0.16966   0.00000  Uiso   1.00
C235   C     0.90352   0.78519   0.14810   0.00000  Uiso   1.00
C236   C     0.59648   0.88147   0.18523   0.00000  Uiso   1.00
C237   C     0.95033   0.78488   0.14951   0.00000  Uiso   1.00
C238   C     0.54967   0.88178   0.18382   0.00000  Uiso   1.00
C239   C     0.97644   0.83337   0.16583   0.00000  Uiso   1.00
C240   C     0.52356   0.83329   0.16750   0.00000  Uiso   1.00
C241   C     0.95556   0.88194   0.18056   0.00000  Uiso   1.00
C242   C     0.75142   0.93341   0.18223   0.00000  Uiso   1.00
C243   C     0.54444   0.78472   0.15278   0.00000  Uiso   1.00
C244   C     0.97169   0.73721   0.13545   0.00000  Uiso   1.00
C245   C     0.52831   0.92946   0.19788   0.00000  Uiso   1.00
C246   C     0.51798   0.73713   0.13710   0.00000  Uiso   1.00
C247   C     0.98202   0.92954   0.19624   0.00000  Uiso   1.00
C248   C     0.74790   0.67727   0.14235   0.00000  Uiso   1.00
C249   C     0.75210   0.98940   0.19098   0.00000  Uiso   1.00
C250   C     0.66468   0.83322   0.16762   0.00000  Uiso   1.00
C251   C     0.83532   0.83345   0.16572   0.00000  Uiso   1.00
C252   C     0.90875   0.88175   0.17962   0.00000  Uiso   1.00
Cl253  Cl    0.88108   0.94156   0.19834   0.00000  Uiso   1.00
Cl254  Cl    0.61892   0.72511   0.13500   0.00000  Uiso   1.00
Cl255  Cl    0.86942   0.72546   0.12814   0.00000  Uiso   1.00
Cl256  Cl    0.63058   0.94121   0.20519   0.00000  Uiso   1.00
Cu257  Cu    0.75500   0.83913   0.22813   0.00000  Uiso   1.00
Cu258  Cu    0.74499   0.82754   0.10521   0.00000  Uiso   1.00
H259   H     0.95300   0.69937   0.12307   0.00000  Uiso   1.00
H260   H     0.54700   0.96729   0.21026   0.00000  Uiso   1.00
H261   H     0.53262   0.69924   0.12582   0.00000  Uiso   1.00
H262   H     0.96737   0.96743   0.20752   0.00000  Uiso   1.00
H263   H     0.74397   0.98674   0.09549   0.00000  Uiso   1.00
H264   H     0.75603   0.67993   0.23784   0.00000  Uiso   1.00
H265   H     0.71505   0.79259   0.31626   0.00000  Uiso   1.00
H266   H     0.78495   0.87407   0.01707   0.00000  Uiso   1.00
N267   N     0.73744   0.81881   0.01284   0.00000  Uiso   1.00
N268   N     0.76255   0.84786   0.32049   0.00000  Uiso   1.00
O269   O     0.75325   0.76204   0.20659   0.00000  Uiso   1.00
O270   O     0.74674   0.90462   0.12674   0.00000  Uiso   1.00
O271   O     0.74480   0.75226   0.10279   0.00000  Uiso   1.00
O272   O     0.75520   0.91441   0.23055   0.00000  Uiso   1.00
O273   O     0.68935   0.83821   0.21857   0.00000  Uiso   1.00
O274   O     0.81064   0.82845   0.11476   0.00000  Uiso   1.00
O275   O     0.68090   0.82843   0.11477   0.00000  Uiso   1.00
O276   O     0.81910   0.83824   0.21857   0.00000  Uiso   1.00
C277   C     0.24858   0.06659   0.48444   0.00000  Uiso   1.00
C278   C     0.09125   0.11825   0.48705   0.00000  Uiso   1.00
C279   C     0.38335   0.16682   0.49701   0.00000  Uiso   1.00
C280   C     0.11665   0.16651   0.50299   0.00000  Uiso   1.00
C281   C     0.40352   0.11853   0.48144   0.00000  Uiso   1.00
C282   C     0.09648   0.21481   0.51856   0.00000  Uiso   1.00
C283   C     0.45033   0.11822   0.48285   0.00000  Uiso   1.00
C284   C     0.04967   0.21512   0.51715   0.00000  Uiso   1.00
C285   C     0.47644   0.16671   0.49916   0.00000  Uiso   1.00
C286   C     0.02356   0.16663   0.50084   0.00000  Uiso   1.00
C287   C     0.45556   0.21528   0.51389   0.00000  Uiso   1.00
C288   C     0.25142   0.26674   0.51556   0.00000  Uiso   1.00
C289   C     0.04444   0.11806   0.48611   0.00000  Uiso   1.00
C290   C     0.47169   0.07054   0.46878   0.00000  Uiso   1.00
C291   C     0.02831   0.26279   0.53122   0.00000  Uiso   1.00
C292   C     0.01798   0.07046   0.47043   0.00000  Uiso   1.00
C293   C     0.48202   0.26287   0.52957   0.00000  Uiso   1.00
C294   C     0.24790   0.01060   0.47569   0.00000  Uiso   1.00
C295   C     0.25210   0.32273   0.52431   0.00000  Uiso   1.00
C296   C     0.16468   0.16655   0.50095   0.00000  Uiso   1.00
C297   C     0.33532   0.16678   0.49905   0.00000  Uiso   1.00
C298   C     0.40875   0.21509   0.51295   0.00000  Uiso   1.00
Cl299  Cl    0.38108   0.27489   0.53167   0.00000  Uiso   1.00
Cl300  Cl    0.11892   0.05844   0.46833   0.00000  Uiso   1.00
Cl301  Cl    0.36942   0.05879   0.46147   0.00000  Uiso   1.00
Cl302  Cl    0.13058   0.27454   0.53852   0.00000  Uiso   1.00
Cu303  Cu    0.25500   0.17246   0.56146   0.00000  Uiso   1.00
Cu304  Cu    0.24499   0.16087   0.43854   0.00000  Uiso   1.00
H305   H     0.45300   0.03271   0.45640   0.00000  Uiso   1.00
H306   H     0.04700   0.30063   0.54360   0.00000  Uiso   1.00
H307   H     0.03262   0.03257   0.45915   0.00000  Uiso   1.00
H308   H     0.46737   0.30076   0.54085   0.00000  Uiso   1.00
H309   H     0.24397   0.32007   0.42883   0.00000  Uiso   1.00
H310   H     0.25603   0.01326   0.57117   0.00000  Uiso   1.00
H311   H     0.21505   0.12593   0.64959   0.00000  Uiso   1.00
H312   H     0.28495   0.20741   0.35041   0.00000  Uiso   1.00
N313   N     0.23744   0.15214   0.34617   0.00000  Uiso   1.00
N314   N     0.26255   0.18119   0.65383   0.00000  Uiso   1.00
O315   O     0.25325   0.09538   0.53992   0.00000  Uiso   1.00
O316   O     0.24674   0.23796   0.46008   0.00000  Uiso   1.00
O317   O     0.24480   0.08559   0.43612   0.00000  Uiso   1.00
O318   O     0.25520   0.24774   0.56388   0.00000  Uiso   1.00
O319   O     0.18935   0.17155   0.55191   0.00000  Uiso   1.00
O320   O     0.31064   0.16179   0.44809   0.00000  Uiso   1.00
O321   O     0.18090   0.16176   0.44810   0.00000  Uiso   1.00
O322   O     0.31910   0.17157   0.55190   0.00000  Uiso   1.00
C323   C     0.74858   0.06659   0.48444   0.00000  Uiso   1.00
C324   C     0.59125   0.11825   0.48705   0.00000  Uiso   1.00
C325   C     0.88335   0.16682   0.49701   0.00000  Uiso   1.00
C326   C     0.61665   0.16651   0.50299   0.00000  Uiso   1.00
C327   C     0.90352   0.11853   0.48144   0.00000  Uiso   1.00
C328   C     0.59648   0.21481   0.51856   0.00000  Uiso   1.00
C329   C     0.95033   0.11822   0.48285   0.00000  Uiso   1.00
C330   C     0.54967   0.21512   0.51715   0.00000  Uiso   1.00
C331   C     0.97644   0.16671   0.49916   0.00000  Uiso   1.00
C332   C     0.52356   0.16663   0.50084   0.00000  Uiso   1.00
C333   C     0.95556   0.21528   0.51389   0.00000  Uiso   1.00
C334   C     0.75142   0.26674   0.51556   0.00000  Uiso   1.00
C335   C     0.54444   0.11806   0.48611   0.00000  Uiso   1.00
C336   C     0.97169   0.07054   0.46878   0.00000  Uiso   1.00
C337   C     0.52831   0.26279   0.53122   0.00000  Uiso   1.00
C338   C     0.51798   0.07046   0.47043   0.00000  Uiso   1.00
C339   C     0.98202   0.26287   0.52957   0.00000  Uiso   1.00
C340   C     0.74790   0.01060   0.47569   0.00000  Uiso   1.00
C341   C     0.75210   0.32273   0.52431   0.00000  Uiso   1.00
C342   C     0.66468   0.16655   0.50095   0.00000  Uiso   1.00
C343   C     0.83532   0.16678   0.49905   0.00000  Uiso   1.00
C344   C     0.90875   0.21509   0.51295   0.00000  Uiso   1.00
Cl345  Cl    0.88108   0.27489   0.53167   0.00000  Uiso   1.00
Cl346  Cl    0.61892   0.05844   0.46833   0.00000  Uiso   1.00
Cl347  Cl    0.86942   0.05879   0.46147   0.00000  Uiso   1.00
Cl348  Cl    0.63058   0.27454   0.53852   0.00000  Uiso   1.00
Cu349  Cu    0.75500   0.17246   0.56146   0.00000  Uiso   1.00
Cu350  Cu    0.74499   0.16087   0.43854   0.00000  Uiso   1.00
H351   H     0.95300   0.03271   0.45640   0.00000  Uiso   1.00
H352   H     0.54700   0.30063   0.54360   0.00000  Uiso   1.00
H353   H     0.53262   0.03257   0.45915   0.00000  Uiso   1.00
H354   H     0.96737   0.30076   0.54085   0.00000  Uiso   1.00
H355   H     0.74397   0.32007   0.42883   0.00000  Uiso   1.00
H356   H     0.75603   0.01326   0.57117   0.00000  Uiso   1.00
H357   H     0.71505   0.12593   0.64959   0.00000  Uiso   1.00
H358   H     0.78495   0.20741   0.35041   0.00000  Uiso   1.00
N359   N     0.73744   0.15214   0.34617   0.00000  Uiso   1.00
N360   N     0.76255   0.18119   0.65383   0.00000  Uiso   1.00
O361   O     0.75325   0.09538   0.53992   0.00000  Uiso   1.00
O362   O     0.74674   0.23796   0.46008   0.00000  Uiso   1.00
O363   O     0.74480   0.08559   0.43612   0.00000  Uiso   1.00
O364   O     0.75520   0.24774   0.56388   0.00000  Uiso   1.00
O365   O     0.68935   0.17155   0.55191   0.00000  Uiso   1.00
O366   O     0.81064   0.16179   0.44809   0.00000  Uiso   1.00
O367   O     0.68090   0.16176   0.44810   0.00000  Uiso   1.00
O368   O     0.81910   0.17157   0.55190   0.00000  Uiso   1.00
C369   C     0.24858   0.39992   0.48444   0.00000  Uiso   1.00
C370   C     0.09125   0.45158   0.48705   0.00000  Uiso   1.00
C371   C     0.38335   0.50015   0.49701   0.00000  Uiso   1.00
C372   C     0.11665   0.49985   0.50299   0.00000  Uiso   1.00
C373   C     0.40352   0.45186   0.48144   0.00000  Uiso   1.00
C374   C     0.09648   0.54814   0.51856   0.00000  Uiso   1.00
C375   C     0.45033   0.45155   0.48285   0.00000  Uiso   1.00
C376   C     0.04967   0.54845   0.51715   0.00000  Uiso   1.00
C377   C     0.47644   0.50004   0.49916   0.00000  Uiso   1.00
C378   C     0.02356   0.49996   0.50084   0.00000  Uiso   1.00
C379   C     0.45556   0.54861   0.51389   0.00000  Uiso   1.00
C380   C     0.25142   0.60008   0.51556   0.00000  Uiso   1.00
C381   C     0.04444   0.45139   0.48611   0.00000  Uiso   1.00
C382   C     0.47169   0.40388   0.46878   0.00000  Uiso   1.00
C383   C     0.02831   0.59612   0.53122   0.00000  Uiso   1.00
C384   C     0.01798   0.40380   0.47043   0.00000  Uiso   1.00
C385   C     0.48202   0.59620   0.52957   0.00000  Uiso   1.00
C386   C     0.24790   0.34394   0.47569   0.00000  Uiso   1.00
C387   C     0.25210   0.65606   0.52431   0.00000  Uiso   1.00
C388   C     0.16468   0.49988   0.50095   0.00000  Uiso   1.00
C389   C     0.33532   0.50012   0.49905   0.00000  Uiso   1.00
C390   C     0.40875   0.54842   0.51295   0.00000  Uiso   1.00
Cl391  Cl    0.38108   0.60823   0.53167   0.00000  Uiso   1.00
Cl392  Cl    0.11892   0.39177   0.46833   0.00000  Uiso   1.00
Cl393  Cl    0.36942   0.39213   0.46147   0.00000  Uiso   1.00
Cl394  Cl    0.13058   0.60787   0.53852   0.00000  Uiso   1.00
Cu395  Cu    0.25500   0.50579   0.56146   0.00000  Uiso   1.00
Cu396  Cu    0.24499   0.49421   0.43854   0.00000  Uiso   1.00
H397   H     0.45300   0.36604   0.45640   0.00000  Uiso   1.00
H398   H     0.04700   0.63396   0.54360   0.00000  Uiso   1.00
H399   H     0.03262   0.36591   0.45915   0.00000  Uiso   1.00
H400   H     0.46737   0.63409   0.54085   0.00000  Uiso   1.00
H401   H     0.24397   0.65340   0.42883   0.00000  Uiso   1.00
H402   H     0.25603   0.34660   0.57117   0.00000  Uiso   1.00
H403   H     0.21505   0.45926   0.64959   0.00000  Uiso   1.00
H404   H     0.28495   0.54074   0.35041   0.00000  Uiso   1.00
N405   N     0.23744   0.48547   0.34617   0.00000  Uiso   1.00
N406   N     0.26255   0.51453   0.65383   0.00000  Uiso   1.00
O407   O     0.25325   0.42871   0.53992   0.00000  Uiso   1.00
O408   O     0.24674   0.57129   0.46008   0.00000  Uiso   1.00
O409   O     0.24480   0.41892   0.43612   0.00000  Uiso   1.00
O410   O     0.25520   0.58108   0.56388   0.00000  Uiso   1.00
O411   O     0.18935   0.50488   0.55191   0.00000  Uiso   1.00
O412   O     0.31064   0.49512   0.44809   0.00000  Uiso   1.00
O413   O     0.18090   0.49510   0.44810   0.00000  Uiso   1.00
O414   O     0.31910   0.50490   0.55190   0.00000  Uiso   1.00
C415   C     0.74858   0.39992   0.48444   0.00000  Uiso   1.00
C416   C     0.59125   0.45158   0.48705   0.00000  Uiso   1.00
C417   C     0.88335   0.50015   0.49701   0.00000  Uiso   1.00
C418   C     0.61665   0.49985   0.50299   0.00000  Uiso   1.00
C419   C     0.90352   0.45186   0.48144   0.00000  Uiso   1.00
C420   C     0.59648   0.54814   0.51856   0.00000  Uiso   1.00
C421   C     0.95033   0.45155   0.48285   0.00000  Uiso   1.00
C422   C     0.54967   0.54845   0.51715   0.00000  Uiso   1.00
C423   C     0.97644   0.50004   0.49916   0.00000  Uiso   1.00
C424   C     0.52356   0.49996   0.50084   0.00000  Uiso   1.00
C425   C     0.95556   0.54861   0.51389   0.00000  Uiso   1.00
C426   C     0.75142   0.60008   0.51556   0.00000  Uiso   1.00
C427   C     0.54444   0.45139   0.48611   0.00000  Uiso   1.00
C428   C     0.97169   0.40388   0.46878   0.00000  Uiso   1.00
C429   C     0.52831   0.59612   0.53122   0.00000  Uiso   1.00
C430   C     0.51798   0.40380   0.47043   0.00000  Uiso   1.00
C431   C     0.98202   0.59620   0.52957   0.00000  Uiso   1.00
C432   C     0.74790   0.34394   0.47569   0.00000  Uiso   1.00
C433   C     0.75210   0.65606   0.52431   0.00000  Uiso   1.00
C434   C     0.66468   0.49988   0.50095   0.00000  Uiso   1.00
C435   C     0.83532   0.50012   0.49905   0.00000  Uiso   1.00
C436   C     0.90875   0.54842   0.51295   0.00000  Uiso   1.00
Cl437  Cl    0.88108   0.60823   0.53167   0.00000  Uiso   1.00
Cl438  Cl    0.61892   0.39177   0.46833   0.00000  Uiso   1.00
Cl439  Cl    0.86942   0.39213   0.46147   0.00000  Uiso   1.00
Cl440  Cl    0.63058   0.60787   0.53852   0.00000  Uiso   1.00
Cu441  Cu    0.75500   0.50579   0.56146   0.00000  Uiso   1.00
Cu442  Cu    0.74499   0.49421   0.43854   0.00000  Uiso   1.00
H443   H     0.95300   0.36604   0.45640   0.00000  Uiso   1.00
H444   H     0.54700   0.63396   0.54360   0.00000  Uiso   1.00
H445   H     0.53262   0.36591   0.45915   0.00000  Uiso   1.00
H446   H     0.96737   0.63409   0.54085   0.00000  Uiso   1.00
H447   H     0.74397   0.65340   0.42883   0.00000  Uiso   1.00
H448   H     0.75603   0.34660   0.57117   0.00000  Uiso   1.00
H449   H     0.71505   0.45926   0.64959   0.00000  Uiso   1.00
H450   H     0.78495   0.54074   0.35041   0.00000  Uiso   1.00
N451   N     0.73744   0.48547   0.34617   0.00000  Uiso   1.00
N452   N     0.76255   0.51453   0.65383   0.00000  Uiso   1.00
O453   O     0.75325   0.42871   0.53992   0.00000  Uiso   1.00
O454   O     0.74674   0.57129   0.46008   0.00000  Uiso   1.00
O455   O     0.74480   0.41892   0.43612   0.00000  Uiso   1.00
O456   O     0.75520   0.58108   0.56388   0.00000  Uiso   1.00
O457   O     0.68935   0.50488   0.55191   0.00000  Uiso   1.00
O458   O     0.81064   0.49512   0.44809   0.00000  Uiso   1.00
O459   O     0.68090   0.49510   0.44810   0.00000  Uiso   1.00
O460   O     0.81910   0.50490   0.55190   0.00000  Uiso   1.00
C461   C     0.24858   0.73326   0.48444   0.00000  Uiso   1.00
C462   C     0.09125   0.78491   0.48705   0.00000  Uiso   1.00
C463   C     0.38335   0.83349   0.49701   0.00000  Uiso   1.00
C464   C     0.11665   0.83318   0.50299   0.00000  Uiso   1.00
C465   C     0.40352   0.78519   0.48144   0.00000  Uiso   1.00
C466   C     0.09648   0.88147   0.51856   0.00000  Uiso   1.00
C467   C     0.45033   0.78488   0.48285   0.00000  Uiso   1.00
C468   C     0.04967   0.88178   0.51715   0.00000  Uiso   1.00
C469   C     0.47644   0.83337   0.49916   0.00000  Uiso   1.00
C470   C     0.02356   0.83329   0.50084   0.00000  Uiso   1.00
C471   C     0.45556   0.88194   0.51389   0.00000  Uiso   1.00
C472   C     0.25142   0.93341   0.51556   0.00000  Uiso   1.00
C473   C     0.04444   0.78472   0.48611   0.00000  Uiso   1.00
C474   C     0.47169   0.73721   0.46878   0.00000  Uiso   1.00
C475   C     0.02831   0.92946   0.53122   0.00000  Uiso   1.00
C476   C     0.01798   0.73713   0.47043   0.00000  Uiso   1.00
C477   C     0.48202   0.92954   0.52957   0.00000  Uiso   1.00
C478   C     0.24790   0.67727   0.47569   0.00000  Uiso   1.00
C479   C     0.25210   0.98940   0.52431   0.00000  Uiso   1.00
C480   C     0.16468   0.83322   0.50095   0.00000  Uiso   1.00
C481   C     0.33532   0.83345   0.49905   0.00000  Uiso   1.00
C482   C     0.40875   0.88175   0.51295   0.00000  Uiso   1.00
Cl483  Cl    0.38108   0.94156   0.53167   0.00000  Uiso   1.00
Cl484  Cl    0.11892   0.72511   0.46833   0.00000  Uiso   1.00
Cl485  Cl    0.36942   0.72546   0.46147   0.00000  Uiso   1.00
Cl486  Cl    0.13058   0.94121   0.53852   0.00000  Uiso   1.00
Cu487  Cu    0.25500   0.83913   0.56146   0.00000  Uiso   1.00
Cu488  Cu    0.24499   0.82754   0.43854   0.00000  Uiso   1.00
H489   H     0.45300   0.69937   0.45640   0.00000  Uiso   1.00
H490   H     0.04700   0.96729   0.54360   0.00000  Uiso   1.00
H491   H     0.03262   0.69924   0.45915   0.00000  Uiso   1.00
H492   H     0.46737   0.96743   0.54085   0.00000  Uiso   1.00
H493   H     0.24397   0.98674   0.42883   0.00000  Uiso   1.00
H494   H     0.25603   0.67993   0.57117   0.00000  Uiso   1.00
H495   H     0.21505   0.79259   0.64959   0.00000  Uiso   1.00
H496   H     0.28495   0.87407   0.35041   0.00000  Uiso   1.00
N497   N     0.23744   0.81881   0.34617   0.00000  Uiso   1.00
N498   N     0.26255   0.84786   0.65383   0.00000  Uiso   1.00
O499   O     0.25325   0.76204   0.53992   0.00000  Uiso   1.00
O500   O     0.24674   0.90462   0.46008   0.00000  Uiso   1.00
O501   O     0.24480   0.75226   0.43612   0.00000  Uiso   1.00
O502   O     0.25520   0.91441   0.56388   0.00000  Uiso   1.00
O503   O     0.18935   0.83821   0.55191   0.00000  Uiso   1.00
O504   O     0.31064   0.82845   0.44809   0.00000  Uiso   1.00
O505   O     0.18090   0.82843   0.44810   0.00000  Uiso   1.00
O506   O     0.31910   0.83824   0.55190   0.00000  Uiso   1.00
C507   C     0.74858   0.73326   0.48444   0.00000  Uiso   1.00
C508   C     0.59125   0.78491   0.48705   0.00000  Uiso   1.00
C509   C     0.88335   0.83349   0.49701   0.00000  Uiso   1.00
C510   C     0.61665   0.83318   0.50299   0.00000  Uiso   1.00
C511   C     0.90352   0.78519   0.48144   0.00000  Uiso   1.00
C512   C     0.59648   0.88147   0.51856   0.00000  Uiso   1.00
C513   C     0.95033   0.78488   0.48285   0.00000  Uiso   1.00
C514   C     0.54967   0.88178   0.51715   0.00000  Uiso   1.00
C515   C     0.97644   0.83337   0.49916   0.00000  Uiso   1.00
C516   C     0.52356   0.83329   0.50084   0.00000  Uiso   1.00
C517   C     0.95556   0.88194   0.51389   0.00000  Uiso   1.00
C518   C     0.75142   0.93341   0.51556   0.00000  Uiso   1.00
C519   C     0.54444   0.78472   0.48611   0.00000  Uiso   1.00
C520   C     0.97169   0.73721   0.46878   0.00000  Uiso   1.00
C521   C     0.52831   0.92946   0.53122   0.00000  Uiso   1.00
C522   C     0.51798   0.73713   0.47043   0.00000  Uiso   1.00
C523   C     0.98202   0.92954   0.52957   0.00000  Uiso   1.00
C524   C     0.74790   0.67727   0.47569   0.00000  Uiso   1.00
C525   C     0.75210   0.98940   0.52431   0.00000  Uiso   1.00
C526   C     0.66468   0.83322   0.50095   0.00000  Uiso   1.00
C527   C     0.83532   0.83345   0.49905   0.00000  Uiso   1.00
C528   C     0.90875   0.88175   0.51295   0.00000  Uiso   1.00
Cl529  Cl    0.88108   0.94156   0.53167   0.00000  Uiso   1.00
Cl530  Cl    0.61892   0.72511   0.46833   0.00000  Uiso   1.00
Cl531  Cl    0.86942   0.72546   0.46147   0.00000  Uiso   1.00
Cl532  Cl    0.63058   0.94121   0.53852   0.00000  Uiso   1.00
Cu533  Cu    0.75500   0.83913   0.56146   0.00000  Uiso   1.00
Cu534  Cu    0.74499   0.82754   0.43854   0.00000  Uiso   1.00
H535   H     0.95300   0.69937   0.45640   0.00000  Uiso   1.00
H536   H     0.54700   0.96729   0.54360   0.00000  Uiso   1.00
H537   H     0.53262   0.69924   0.45915   0.00000  Uiso   1.00
H538   H     0.96737   0.96743   0.54085   0.00000  Uiso   1.00
H539   H     0.74397   0.98674   0.42883   0.00000  Uiso   1.00
H540   H     0.75603   0.67993   0.57117   0.00000  Uiso   1.00
H541   H     0.71505   0.79259   0.64959   0.00000  Uiso   1.00
H542   H     0.78495   0.87407   0.35041   0.00000  Uiso   1.00
N543   N     0.73744   0.81881   0.34617   0.00000  Uiso   1.00
N544   N     0.76255   0.84786   0.65383   0.00000  Uiso   1.00
O545   O     0.75325   0.76204   0.53992   0.00000  Uiso   1.00
O546   O     0.74674   0.90462   0.46008   0.00000  Uiso   1.00
O547   O     0.74480   0.75226   0.43612   0.00000  Uiso   1.00
O548   O     0.75520   0.91441   0.56388   0.00000  Uiso   1.00
O549   O     0.68935   0.83821   0.55191   0.00000  Uiso   1.00
O550   O     0.81064   0.82845   0.44809   0.00000  Uiso   1.00
O551   O     0.68090   0.82843   0.44810   0.00000  Uiso   1.00
O552   O     0.81910   0.83824   0.55190   0.00000  Uiso   1.00
C553   C     0.24858   0.06659   0.81777   0.00000  Uiso   1.00
C554   C     0.09125   0.11825   0.82038   0.00000  Uiso   1.00
C555   C     0.38335   0.16682   0.83034   0.00000  Uiso   1.00
C556   C     0.11665   0.16651   0.83633   0.00000  Uiso   1.00
C557   C     0.40352   0.11853   0.81477   0.00000  Uiso   1.00
C558   C     0.09648   0.21481   0.85189   0.00000  Uiso   1.00
C559   C     0.45033   0.11822   0.81618   0.00000  Uiso   1.00
C560   C     0.04967   0.21512   0.85049   0.00000  Uiso   1.00
C561   C     0.47644   0.16671   0.83250   0.00000  Uiso   1.00
C562   C     0.02356   0.16663   0.83417   0.00000  Uiso   1.00
C563   C     0.45556   0.21528   0.84722   0.00000  Uiso   1.00
C564   C     0.25142   0.26674   0.84890   0.00000  Uiso   1.00
C565   C     0.04444   0.11806   0.81944   0.00000  Uiso   1.00
C566   C     0.47169   0.07054   0.80211   0.00000  Uiso   1.00
C567   C     0.02831   0.26279   0.86455   0.00000  Uiso   1.00
C568   C     0.01798   0.07046   0.80376   0.00000  Uiso   1.00
C569   C     0.48202   0.26287   0.86290   0.00000  Uiso   1.00
C570   C     0.24790   0.01060   0.80902   0.00000  Uiso   1.00
C571   C     0.25210   0.32273   0.85765   0.00000  Uiso   1.00
C572   C     0.16468   0.16655   0.83428   0.00000  Uiso   1.00
C573   C     0.33532   0.16678   0.83238   0.00000  Uiso   1.00
C574   C     0.40875   0.21509   0.84629   0.00000  Uiso   1.00
Cl575  Cl    0.38108   0.27489   0.86500   0.00000  Uiso   1.00
Cl576  Cl    0.11892   0.05844   0.80166   0.00000  Uiso   1.00
Cl577  Cl    0.36942   0.05879   0.79481   0.00000  Uiso   1.00
Cl578  Cl    0.13058   0.27454   0.87186   0.00000  Uiso   1.00
Cu579  Cu    0.25500   0.17246   0.89479   0.00000  Uiso   1.00
Cu580  Cu    0.24499   0.16087   0.77187   0.00000  Uiso   1.00
H581   H     0.45300   0.03271   0.78973   0.00000  Uiso   1.00
H582   H     0.04700   0.30063   0.87693   0.00000  Uiso   1.00
H583   H     0.03262   0.03257   0.79248   0.00000  Uiso   1.00
H584   H     0.46737   0.30076   0.87418   0.00000  Uiso   1.00
H585   H     0.24397   0.32007   0.76216   0.00000  Uiso   1.00
H586   H     0.25603   0.01326   0.90451   0.00000  Uiso   1.00
H587   H     0.21505   0.12593   0.98293   0.00000  Uiso   1.00
H588   H     0.28495   0.20741   0.68374   0.00000  Uiso   1.00
N589   N     0.23744   0.15214   0.67951   0.00000  Uiso   1.00
N590   N     0.26255   0.18119   0.98716   0.00000  Uiso   1.00
O591   O     0.25325   0.09538   0.87326   0.00000  Uiso   1.00
O592   O     0.24674   0.23796   0.79341   0.00000  Uiso   1.00
O593   O     0.24480   0.08559   0.76945   0.00000  Uiso   1.00
O594   O     0.25520   0.24774   0.89721   0.00000  Uiso   1.00
O595   O     0.18935   0.17155   0.88524   0.00000  Uiso   1.00
O596   O     0.31064   0.16179   0.78143   0.00000  Uiso   1.00
O597   O     0.18090   0.16176   0.78143   0.00000  Uiso   1.00
O598   O     0.31910   0.17157   0.88523   0.00000  Uiso   1.00
C599   C     0.74858   0.06659   0.81777   0.00000  Uiso   1.00
C600   C     0.59125   0.11825   0.82038   0.00000  Uiso   1.00
C601   C     0.88335   0.16682   0.83034   0.00000  Uiso   1.00
C602   C     0.61665   0.16651   0.83633   0.00000  Uiso   1.00
C603   C     0.90352   0.11853   0.81477   0.00000  Uiso   1.00
C604   C     0.59648   0.21481   0.85189   0.00000  Uiso   1.00
C605   C     0.95033   0.11822   0.81618   0.00000  Uiso   1.00
C606   C     0.54967   0.21512   0.85049   0.00000  Uiso   1.00
C607   C     0.97644   0.16671   0.83250   0.00000  Uiso   1.00
C608   C     0.52356   0.16663   0.83417   0.00000  Uiso   1.00
C609   C     0.95556   0.21528   0.84722   0.00000  Uiso   1.00
C610   C     0.75142   0.26674   0.84890   0.00000  Uiso   1.00
C611   C     0.54444   0.11806   0.81944   0.00000  Uiso   1.00
C612   C     0.97169   0.07054   0.80211   0.00000  Uiso   1.00
C613   C     0.52831   0.26279   0.86455   0.00000  Uiso   1.00
C614   C     0.51798   0.07046   0.80376   0.00000  Uiso   1.00
C615   C     0.98202   0.26287   0.86290   0.00000  Uiso   1.00
C616   C     0.74790   0.01060   0.80902   0.00000  Uiso   1.00
C617   C     0.75210   0.32273   0.85765   0.00000  Uiso   1.00
C618   C     0.66468   0.16655   0.83428   0.00000  Uiso   1.00
C619   C     0.83532   0.16678   0.83238   0.00000  Uiso   1.00
C620   C     0.90875   0.21509   0.84629   0.00000  Uiso   1.00
Cl621  Cl    0.88108   0.27489   0.86500   0.00000  Uiso   1.00
Cl622  Cl    0.61892   0.05844   0.80166   0.00000  Uiso   1.00
Cl623  Cl    0.86942   0.05879   0.79481   0.00000  Uiso   1.00
Cl624  Cl    0.63058   0.27454   0.87186   0.00000  Uiso   1.00
Cu625  Cu    0.75500   0.17246   0.89479   0.00000  Uiso   1.00
Cu626  Cu    0.74499   0.16087   0.77187   0.00000  Uiso   1.00
H627   H     0.95300   0.03271   0.78973   0.00000  Uiso   1.00
H628   H     0.54700   0.30063   0.87693   0.00000  Uiso   1.00
H629   H     0.53262   0.03257   0.79248   0.00000  Uiso   1.00
H630   H     0.96737   0.30076   0.87418   0.00000  Uiso   1.00
H631   H     0.74397   0.32007   0.76216   0.00000  Uiso   1.00
H632   H     0.75603   0.01326   0.90451   0.00000  Uiso   1.00
H633   H     0.71505   0.12593   0.98293   0.00000  Uiso   1.00
H634   H     0.78495   0.20741   0.68374   0.00000  Uiso   1.00
N635   N     0.73744   0.15214   0.67951   0.00000  Uiso   1.00
N636   N     0.76255   0.18119   0.98716   0.00000  Uiso   1.00
O637   O     0.75325   0.09538   0.87326   0.00000  Uiso   1.00
O638   O     0.74674   0.23796   0.79341   0.00000  Uiso   1.00
O639   O     0.74480   0.08559   0.76945   0.00000  Uiso   1.00
O640   O     0.75520   0.24774   0.89721   0.00000  Uiso   1.00
O641   O     0.68935   0.17155   0.88524   0.00000  Uiso   1.00
O642   O     0.81064   0.16179   0.78143   0.00000  Uiso   1.00
O643   O     0.68090   0.16176   0.78143   0.00000  Uiso   1.00
O644   O     0.81910   0.17157   0.88523   0.00000  Uiso   1.00
C645   C     0.24858   0.39992   0.81777   0.00000  Uiso   1.00
C646   C     0.09125   0.45158   0.82038   0.00000  Uiso   1.00
C647   C     0.38335   0.50015   0.83034   0.00000  Uiso   1.00
C648   C     0.11665   0.49985   0.83633   0.00000  Uiso   1.00
C649   C     0.40352   0.45186   0.81477   0.00000  Uiso   1.00
C650   C     0.09648   0.54814   0.85189   0.00000  Uiso   1.00
C651   C     0.45033   0.45155   0.81618   0.00000  Uiso   1.00
C652   C     0.04967   0.54845   0.85049   0.00000  Uiso   1.00
C653   C     0.47644   0.50004   0.83250   0.00000  Uiso   1.00
C654   C     0.02356   0.49996   0.83417   0.00000  Uiso   1.00
C655   C     0.45556   0.54861   0.84722   0.00000  Uiso   1.00
C656   C     0.25142   0.60008   0.84890   0.00000  Uiso   1.00
C657   C     0.04444   0.45139   0.81944   0.00000  Uiso   1.00
C658   C     0.47169   0.40388   0.80211   0.00000  Uiso   1.00
C659   C     0.02831   0.59612   0.86455   0.00000  Uiso   1.00
C660   C     0.01798   0.40380   0.80376   0.00000  Uiso   1.00
C661   C     0.48202   0.59620   0.86290   0.00000  Uiso   1.00
C662   C     0.24790   0.34394   0.80902   0.00000  Uiso   1.00
C663   C     0.25210   0.65606   0.85765   0.00000  Uiso   1.00
C664   C     0.16468   0.49988   0.83428   0.00000  Uiso   1.00
C665   C     0.33532   0.50012   0.83238   0.00000  Uiso   1.00
C666   C     0.40875   0.54842   0.84629   0.00000  Uiso   1.00
Cl667  Cl    0.38108   0.60823   0.86500   0.00000  Uiso   1.00
Cl668  Cl    0.11892   0.39177   0.80166   0.00000  Uiso   1.00
Cl669  Cl    0.36942   0.39213   0.79481   0.00000  Uiso   1.00
Cl670  Cl    0.13058   0.60787   0.87186   0.00000  Uiso   1.00
Cu671  Cu    0.25500   0.50579   0.89479   0.00000  Uiso   1.00
Cu672  Cu    0.24499   0.49421   0.77187   0.00000  Uiso   1.00
H673   H     0.45300   0.36604   0.78973   0.00000  Uiso   1.00
H674   H     0.04700   0.63396   0.87693   0.00000  Uiso   1.00
H675   H     0.03262   0.36591   0.79248   0.00000  Uiso   1.00
H676   H     0.46737   0.63409   0.87418   0.00000  Uiso   1.00
H677   H     0.24397   0.65340   0.76216   0.00000  Uiso   1.00
H678   H     0.25603   0.34660   0.90451   0.00000  Uiso   1.00
H679   H     0.21505   0.45926   0.98293   0.00000  Uiso   1.00
H680   H     0.28495   0.54074   0.68374   0.00000  Uiso   1.00
N681   N     0.23744   0.48547   0.67951   0.00000  Uiso   1.00
N682   N     0.26255   0.51453   0.98716   0.00000  Uiso   1.00
O683   O     0.25325   0.42871   0.87326   0.00000  Uiso   1.00
O684   O     0.24674   0.57129   0.79341   0.00000  Uiso   1.00
O685   O     0.24480   0.41892   0.76945   0.00000  Uiso   1.00
O686   O     0.25520   0.58108   0.89721   0.00000  Uiso   1.00
O687   O     0.18935   0.50488   0.88524   0.00000  Uiso   1.00
O688   O     0.31064   0.49512   0.78143   0.00000  Uiso   1.00
O689   O     0.18090   0.49510   0.78143   0.00000  Uiso   1.00
O690   O     0.31910   0.50490   0.88523   0.00000  Uiso   1.00
C691   C     0.74858   0.39992   0.81777   0.00000  Uiso   1.00
C692   C     0.59125   0.45158   0.82038   0.00000  Uiso   1.00
C693   C     0.88335   0.50015   0.83034   0.00000  Uiso   1.00
C694   C     0.61665   0.49985   0.83633   0.00000  Uiso   1.00
C695   C     0.90352   0.45186   0.81477   0.00000  Uiso   1.00
C696   C     0.59648   0.54814   0.85189   0.00000  Uiso   1.00
C697   C     0.95033   0.45155   0.81618   0.00000  Uiso   1.00
C698   C     0.54967   0.54845   0.85049   0.00000  Uiso   1.00
C699   C     0.97644   0.50004   0.83250   0.00000  Uiso   1.00
C700   C     0.52356   0.49996   0.83417   0.00000  Uiso   1.00
C701   C     0.95556   0.54861   0.84722   0.00000  Uiso   1.00
C702   C     0.75142   0.60008   0.84890   0.00000  Uiso   1.00
C703   C     0.54444   0.45139   0.81944   0.00000  Uiso   1.00
C704   C     0.97169   0.40388   0.80211   0.00000  Uiso   1.00
C705   C     0.52831   0.59612   0.86455   0.00000  Uiso   1.00
C706   C     0.51798   0.40380   0.80376   0.00000  Uiso   1.00
C707   C     0.98202   0.59620   0.86290   0.00000  Uiso   1.00
C708   C     0.74790   0.34394   0.80902   0.00000  Uiso   1.00
C709   C     0.75210   0.65606   0.85765   0.00000  Uiso   1.00
C710   C     0.66468   0.49988   0.83428   0.00000  Uiso   1.00
C711   C     0.83532   0.50012   0.83238   0.00000  Uiso   1.00
C712   C     0.90875   0.54842   0.84629   0.00000  Uiso   1.00
Cl713  Cl    0.88108   0.60823   0.86500   0.00000  Uiso   1.00
Cl714  Cl    0.61892   0.39177   0.80166   0.00000  Uiso   1.00
Cl715  Cl    0.86942   0.39213   0.79481   0.00000  Uiso   1.00
Cl716  Cl    0.63058   0.60787   0.87186   0.00000  Uiso   1.00
Cu717  Cu    0.75500   0.50579   0.89479   0.00000  Uiso   1.00
Cu718  Cu    0.74499   0.49421   0.77187   0.00000  Uiso   1.00
H719   H     0.95300   0.36604   0.78973   0.00000  Uiso   1.00
H720   H     0.54700   0.63396   0.87693   0.00000  Uiso   1.00
H721   H     0.53262   0.36591   0.79248   0.00000  Uiso   1.00
H722   H     0.96737   0.63409   0.87418   0.00000  Uiso   1.00
H723   H     0.74397   0.65340   0.76216   0.00000  Uiso   1.00
H724   H     0.75603   0.34660   0.90451   0.00000  Uiso   1.00
H725   H     0.71505   0.45926   0.98293   0.00000  Uiso   1.00
H726   H     0.78495   0.54074   0.68374   0.00000  Uiso   1.00
N727   N     0.73744   0.48547   0.67951   0.00000  Uiso   1.00
N728   N     0.76255   0.51453   0.98716   0.00000  Uiso   1.00
O729   O     0.75325   0.42871   0.87326   0.00000  Uiso   1.00
O730   O     0.74674   0.57129   0.79341   0.00000  Uiso   1.00
O731   O     0.74480   0.41892   0.76945   0.00000  Uiso   1.00
O732   O     0.75520   0.58108   0.89721   0.00000  Uiso   1.00
O733   O     0.68935   0.50488   0.88524   0.00000  Uiso   1.00
O734   O     0.81064   0.49512   0.78143   0.00000  Uiso   1.00
O735   O     0.68090   0.49510   0.78143   0.00000  Uiso   1.00
O736   O     0.81910   0.50490   0.88523   0.00000  Uiso   1.00
C737   C     0.24858   0.73326   0.81777   0.00000  Uiso   1.00
C738   C     0.09125   0.78491   0.82038   0.00000  Uiso   1.00
C739   C     0.38335   0.83349   0.83034   0.00000  Uiso   1.00
C740   C     0.11665   0.83318   0.83633   0.00000  Uiso   1.00
C741   C     0.40352   0.78519   0.81477   0.00000  Uiso   1.00
C742   C     0.09648   0.88147   0.85189   0.00000  Uiso   1.00
C743   C     0.45033   0.78488   0.81618   0.00000  Uiso   1.00
C744   C     0.04967   0.88178   0.85049   0.00000  Uiso   1.00
C745   C     0.47644   0.83337   0.83250   0.00000  Uiso   1.00
C746   C     0.02356   0.83329   0.83417   0.00000  Uiso   1.00
C747   C     0.45556   0.88194   0.84722   0.00000  Uiso   1.00
C748   C     0.25142   0.93341   0.84890   0.00000  Uiso   1.00
C749   C     0.04444   0.78472   0.81944   0.00000  Uiso   1.00
C750   C     0.47169   0.73721   0.80211   0.00000  Uiso   1.00
C751   C     0.02831   0.92946   0.86455   0.00000  Uiso   1.00
C752   C     0.01798   0.73713   0.80376   0.00000  Uiso   1.00
C753   C     0.48202   0.92954   0.86290   0.00000  Uiso   1.00
C754   C     0.24790   0.67727   0.80902   0.00000  Uiso   1.00
C755   C     0.25210   0.98940   0.85765   0.00000  Uiso   1.00
C756   C     0.16468   0.83322   0.83428   0.00000  Uiso   1.00
C757   C     0.33532   0.83345   0.83238   0.00000  Uiso   1.00
C758   C     0.40875   0.88175   0.84629   0.00000  Uiso   1.00
Cl759  Cl    0.38108   0.94156   0.86500   0.00000  Uiso   1.00
Cl760  Cl    0.11892   0.72511   0.80166   0.00000  Uiso   1.00
Cl761  Cl    0.36942   0.72546   0.79481   0.00000  Uiso   1.00
Cl762  Cl    0.13058   0.94121   0.87186   0.00000  Uiso   1.00
Cu763  Cu    0.25500   0.83913   0.89479   0.00000  Uiso   1.00
Cu764  Cu    0.24499   0.82754   0.77187   0.00000  Uiso   1.00
H765   H     0.45300   0.69937   0.78973   0.00000  Uiso   1.00
H766   H     0.04700   0.96729   0.87693   0.00000  Uiso   1.00
H767   H     0.03262   0.69924   0.79248   0.00000  Uiso   1.00
H768   H     0.46737   0.96743   0.87418   0.00000  Uiso   1.00
H769   H     0.24397   0.98674   0.76216   0.00000  Uiso   1.00
H770   H     0.25603   0.67993   0.90451   0.00000  Uiso   1.00
H771   H     0.21505   0.79259   0.98293   0.00000  Uiso   1.00
H772   H     0.28495   0.87407   0.68374   0.00000  Uiso   1.00
N773   N     0.23744   0.81881   0.67951   0.00000  Uiso   1.00
N774   N     0.26255   0.84786   0.98716   0.00000  Uiso   1.00
O775   O     0.25325   0.76204   0.87326   0.00000  Uiso   1.00
O776   O     0.24674   0.90462   0.79341   0.00000  Uiso   1.00
O777   O     0.24480   0.75226   0.76945   0.00000  Uiso   1.00
O778   O     0.25520   0.91441   0.89721   0.00000  Uiso   1.00
O779   O     0.18935   0.83821   0.88524   0.00000  Uiso   1.00
O780   O     0.31064   0.82845   0.78143   0.00000  Uiso   1.00
O781   O     0.18090   0.82843   0.78143   0.00000  Uiso   1.00
O782   O     0.31910   0.83824   0.88523   0.00000  Uiso   1.00
C783   C     0.74858   0.73326   0.81777   0.00000  Uiso   1.00
C784   C     0.59125   0.78491   0.82038   0.00000  Uiso   1.00
C785   C     0.88335   0.83349   0.83034   0.00000  Uiso   1.00
C786   C     0.61665   0.83318   0.83633   0.00000  Uiso   1.00
C787   C     0.90352   0.78519   0.81477   0.00000  Uiso   1.00
C788   C     0.59648   0.88147   0.85189   0.00000  Uiso   1.00
C789   C     0.95033   0.78488   0.81618   0.00000  Uiso   1.00
C790   C     0.54967   0.88178   0.85049   0.00000  Uiso   1.00
C791   C     0.97644   0.83337   0.83250   0.00000  Uiso   1.00
C792   C     0.52356   0.83329   0.83417   0.00000  Uiso   1.00
C793   C     0.95556   0.88194   0.84722   0.00000  Uiso   1.00
C794   C     0.75142   0.93341   0.84890   0.00000  Uiso   1.00
C795   C     0.54444   0.78472   0.81944   0.00000  Uiso   1.00
C796   C     0.97169   0.73721   0.80211   0.00000  Uiso   1.00
C797   C     0.52831   0.92946   0.86455   0.00000  Uiso   1.00
C798   C     0.51798   0.73713   0.80376   0.00000  Uiso   1.00
C799   C     0.98202   0.92954   0.86290   0.00000  Uiso   1.00
C800   C     0.74790   0.67727   0.80902   0.00000  Uiso   1.00
C801   C     0.75210   0.98940   0.85765   0.00000  Uiso   1.00
C802   C     0.66468   0.83322   0.83428   0.00000  Uiso   1.00
C803   C     0.83532   0.83345   0.83238   0.00000  Uiso   1.00
C804   C     0.90875   0.88175   0.84629   0.00000  Uiso   1.00
Cl805  Cl    0.88108   0.94156   0.86500   0.00000  Uiso   1.00
Cl806  Cl    0.61892   0.72511   0.80166   0.00000  Uiso   1.00
Cl807  Cl    0.86942   0.72546   0.79481   0.00000  Uiso   1.00
Cl808  Cl    0.63058   0.94121   0.87186   0.00000  Uiso   1.00
Cu809  Cu    0.75500   0.83913   0.89479   0.00000  Uiso   1.00
Cu810  Cu    0.74499   0.82754   0.77187   0.00000  Uiso   1.00
H811   H     0.95300   0.69937   0.78973   0.00000  Uiso   1.00
H812   H     0.54700   0.96729   0.87693   0.00000  Uiso   1.00
H813   H     0.53262   0.69924   0.79248   0.00000  Uiso   1.00
H814   H     0.96737   0.96743   0.87418   0.00000  Uiso   1.00
H815   H     0.74397   0.98674   0.76216   0.00000  Uiso   1.00
H816   H     0.75603   0.67993   0.90451   0.00000  Uiso   1.00
H817   H     0.71505   0.79259   0.98293   0.00000  Uiso   1.00
H818   H     0.78495   0.87407   0.68374   0.00000  Uiso   1.00
N819   N     0.73744   0.81881   0.67951   0.00000  Uiso   1.00
N820   N     0.76255   0.84786   0.98716   0.00000  Uiso   1.00
O821   O     0.75325   0.76204   0.87326   0.00000  Uiso   1.00
O822   O     0.74674   0.90462   0.79341   0.00000  Uiso   1.00
O823   O     0.74480   0.75226   0.76945   0.00000  Uiso   1.00
O824   O     0.75520   0.91441   0.89721   0.00000  Uiso   1.00
O825   O     0.68935   0.83821   0.88524   0.00000  Uiso   1.00
O826   O     0.81064   0.82845   0.78143   0.00000  Uiso   1.00
O827   O     0.68090   0.82843   0.78143   0.00000  Uiso   1.00
O828   O     0.81910   0.83824   0.88523   0.00000  Uiso   1.00
loop_
_geom_bond_atom_site_label_1
_geom_bond_atom_site_label_2
_geom_bond_distance
_geom_bond_site_symmetry_2
_ccdc_geom_bond_type
C1     C18     1.425   .     S
C1     O41     1.285   .     A
C1     O39     1.293   .     A
C2     C4      1.402   .     A
C2     C13     1.403   .     A
C2     Cl24    1.776   .     S
C3     C21     1.445   .     S
C3     C22     1.402   .     A
C3     C5      1.402   .     A
C4     C20     1.445   .     S
C4     C6      1.402   .     A
C5     Cl25    1.775   .     S
C5     C7      1.403   .     A
C6     Cl26    1.775   .     S
C6     C8      1.403   .     A
C7     C9      1.417   .     A
C7     C14     1.404   .     A
C8     C15     1.404   .     A
C8     C10     1.417   .     A
C9     C11     1.417   .     A
C9     C56     1.412   .     S
C10    C13     1.417   .     A
C10    C55     1.412   1_455 S
C11    C22     1.403   .     A
C11    C17     1.404   .     A
C12    O40     1.293   .     A
C12    C19     1.425   .     S
C12    O42     1.285   .     A
C13    C16     1.404   .     A
C14    H29     1.082   .     S
C14    C62     1.387   .     S
C15    H30     1.082   .     S
C15    C63     1.387   1_455 S
C16    H31     1.082   .     S
C16    C60     1.387   1_455 S
C17    H32     1.082   .     S
C17    C61     1.387   .     S
C18    C203    1.326   1_545 S
C18    H217    1.088   1_545 S
C19    C110    1.326   .     S
C19    H126    1.088   .     S
C20    O45     1.291   .     A
C20    O43     1.294   .     A
C21    O44     1.294   .     A
C21    O46     1.291   .     A
C22    Cl23    1.776   .     S
Cu27   O42     1.947   .     S
Cu27   N38     2.022   .     S
Cu27   O43     1.965   .     S
Cu27   O46     1.950   .     S
Cu27   Cu28    2.691   .     S
Cu27   O39     1.953   .     S
Cu28   N37     2.022   .     S
Cu28   O45     1.950   .     S
Cu28   O41     1.947   .     S
Cu28   O40     1.953   .     S
Cu28   O44     1.965   .     S
H33    C110    1.088   .     S
H34    C203    1.088   1_545 S
H35    N313    1.029   .     S
H36    N590    1.029   1_554 S
N37    H587    1.029   1_554 S
N37    N590    1.293   1_554 S
N38    N313    1.293   .     S
N38    H312    1.029   .     S
C47    C64     1.425   .     S
C47    O87     1.285   .     A
C47    O85     1.293   .     A
C48    C50     1.402   .     A
C48    C59     1.403   .     A
C48    Cl70    1.776   .     S
C49    C67     1.445   .     S
C49    C68     1.402   .     A
C49    C51     1.402   .     A
C50    C66     1.445   .     S
C50    C52     1.402   .     A
C51    Cl71    1.775   .     S
C51    C53     1.403   .     A
C52    Cl72    1.775   .     S
C52    C54     1.403   .     A
C53    C55     1.417   .     A
C53    C60     1.404   .     A
C54    C61     1.404   .     A
C54    C56     1.417   .     A
C55    C57     1.417   .     A
C55    C10     1.412   1_655 S
C56    C59     1.417   .     A
C57    C68     1.403   .     A
C57    C63     1.404   .     A
C58    O86     1.293   .     A
C58    C65     1.425   .     S
C58    O88     1.285   .     A
C59    C62     1.404   .     A
C60    H75     1.082   .     S
C60    C16     1.387   1_655 S
C61    H76     1.082   .     S
C62    H77     1.082   .     S
C63    H78     1.082   .     S
C63    C15     1.387   1_655 S
C64    C249    1.326   1_545 S
C64    H263    1.088   1_545 S
C65    C156    1.326   .     S
C65    H172    1.088   .     S
C66    O91     1.291   .     A
C66    O89     1.294   .     A
C67    O90     1.294   .     A
C67    O92     1.291   .     A
C68    Cl69    1.776   .     S
Cu73   O88     1.947   .     S
Cu73   N84     2.022   .     S
Cu73   O89     1.965   .     S
Cu73   O92     1.950   .     S
Cu73   Cu74    2.691   .     S
Cu73   O85     1.953   .     S
Cu74   N83     2.022   .     S
Cu74   O91     1.950   .     S
Cu74   O87     1.947   .     S
Cu74   O86     1.953   .     S
Cu74   O90     1.965   .     S
H79    C156    1.088   .     S
H80    C249    1.088   1_545 S
H81    N359    1.029   .     S
H82    N636    1.029   1_554 S
N83    H633    1.029   1_554 S
N83    N636    1.293   1_554 S
N84    N359    1.293   .     S
N84    H358    1.029   .     S
C93    C110    1.425   .     S
C93    O133    1.285   .     A
C93    O131    1.293   .     A
C94    C96     1.402   .     A
C94    C105    1.403   .     A
C94    Cl116   1.776   .     S
C95    C113    1.445   .     S
C95    C114    1.402   .     A
C95    C97     1.402   .     A
C96    C112    1.445   .     S
C96    C98     1.402   .     A
C97    Cl117   1.775   .     S
C97    C99     1.403   .     A
C98    Cl118   1.775   .     S
C98    C100    1.403   .     A
C99    C101    1.417   .     A
C99    C106    1.404   .     A
C100   C107    1.404   .     A
C100   C102    1.417   .     A
C101   C103    1.417   .     A
C101   C148    1.412   .     S
C102   C105    1.417   .     A
C102   C147    1.412   1_455 S
C103   C114    1.403   .     A
C103   C109    1.404   .     A
C104   O132    1.293   .     A
C104   C111    1.425   .     S
C104   O134    1.285   .     A
C105   C108    1.404   .     A
C106   H121    1.082   .     S
C106   C154    1.387   .     S
C107   H122    1.082   .     S
C107   C155    1.387   1_455 S
C108   H123    1.082   .     S
C108   C152    1.387   1_455 S
C109   H124    1.082   .     S
C109   C153    1.387   .     S
C111   C202    1.326   .     S
C111   H218    1.088   .     S
C112   O137    1.291   .     A
C112   O135    1.294   .     A
C113   O136    1.294   .     A
C113   O138    1.291   .     A
C114   Cl115   1.776   .     S
Cu119  O134    1.947   .     S
Cu119  N130    2.022   .     S
Cu119  O135    1.965   .     S
Cu119  O138    1.950   .     S
Cu119  Cu120   2.691   .     S
Cu119  O131    1.953   .     S
Cu120  N129    2.022   .     S
Cu120  O137    1.950   .     S
Cu120  O133    1.947   .     S
Cu120  O132    1.953   .     S
Cu120  O136    1.965   .     S
H125   C202    1.088   .     S
H127   N405    1.029   .     S
H128   N682    1.029   1_554 S
N129   H679    1.029   1_554 S
N129   N682    1.293   1_554 S
N130   N405    1.293   .     S
N130   H404    1.029   .     S
C139   C156    1.425   .     S
C139   O179    1.285   .     A
C139   O177    1.293   .     A
C140   C142    1.402   .     A
C140   C151    1.403   .     A
C140   Cl162   1.776   .     S
C141   C159    1.445   .     S
C141   C160    1.402   .     A
C141   C143    1.402   .     A
C142   C158    1.445   .     S
C142   C144    1.402   .     A
C143   Cl163   1.775   .     S
C143   C145    1.403   .     A
C144   Cl164   1.775   .     S
C144   C146    1.403   .     A
C145   C147    1.417   .     A
C145   C152    1.404   .     A
C146   C153    1.404   .     A
C146   C148    1.417   .     A
C147   C149    1.417   .     A
C147   C102    1.412   1_655 S
C148   C151    1.417   .     A
C149   C160    1.403   .     A
C149   C155    1.404   .     A
C150   O178    1.293   .     A
C150   C157    1.425   .     S
C150   O180    1.285   .     A
C151   C154    1.404   .     A
C152   H167    1.082   .     S
C152   C108    1.387   1_655 S
C153   H168    1.082   .     S
C154   H169    1.082   .     S
C155   H170    1.082   .     S
C155   C107    1.387   1_655 S
C157   C248    1.326   .     S
C157   H264    1.088   .     S
C158   O183    1.291   .     A
C158   O181    1.294   .     A
C159   O182    1.294   .     A
C159   O184    1.291   .     A
C160   Cl161   1.776   .     S
Cu165  O180    1.947   .     S
Cu165  N176    2.022   .     S
Cu165  O181    1.965   .     S
Cu165  O184    1.950   .     S
Cu165  Cu166   2.691   .     S
Cu165  O177    1.953   .     S
Cu166  N175    2.022   .     S
Cu166  O183    1.950   .     S
Cu166  O179    1.947   .     S
Cu166  O178    1.953   .     S
Cu166  O182    1.965   .     S
H171   C248    1.088   .     S
H173   N451    1.029   .     S
H174   N728    1.029   1_554 S
N175   H725    1.029   1_554 S
N175   N728    1.293   1_554 S
N176   N451    1.293   .     S
N176   H450    1.029   .     S
C185   C202    1.425   .     S
C185   O225    1.285   .     A
C185   O223    1.293   .     A
C186   C188    1.402   .     A
C186   C197    1.403   .     A
C186   Cl208   1.776   .     S
C187   C205    1.445   .     S
C187   C206    1.402   .     A
C187   C189    1.402   .     A
C188   C204    1.445   .     S
C188   C190    1.402   .     A
C189   Cl209   1.775   .     S
C189   C191    1.403   .     A
C190   Cl210   1.775   .     S
C190   C192    1.403   .     A
C191   C193    1.417   .     A
C191   C198    1.404   .     A
C192   C199    1.404   .     A
C192   C194    1.417   .     A
C193   C195    1.417   .     A
C193   C240    1.412   .     S
C194   C197    1.417   .     A
C194   C239    1.412   1_455 S
C195   C206    1.403   .     A
C195   C201    1.404   .     A
C196   O224    1.293   .     A
C196   C203    1.425   .     S
C196   O226    1.285   .     A
C197   C200    1.404   .     A
C198   H213    1.082   .     S
C198   C246    1.387   .     S
C199   H214    1.082   .     S
C199   C247    1.387   1_455 S
C200   H215    1.082   .     S
C200   C244    1.387   1_455 S
C201   H216    1.082   .     S
C201   C245    1.387   .     S
C203   C18     1.326   1_565 S
C203   H34     1.088   1_565 S
C204   O229    1.291   .     A
C204   O227    1.294   .     A
C205   O228    1.294   .     A
C205   O230    1.291   .     A
C206   Cl207   1.776   .     S
Cu211  O226    1.947   .     S
Cu211  N222    2.022   .     S
Cu211  O227    1.965   .     S
Cu211  O230    1.950   .     S
Cu211  Cu212   2.691   .     S
Cu211  O223    1.953   .     S
Cu212  N221    2.022   .     S
Cu212  O229    1.950   .     S
Cu212  O225    1.947   .     S
Cu212  O224    1.953   .     S
Cu212  O228    1.965   .     S
H217   C18     1.088   1_565 S
H219   N497    1.029   .     S
H220   N774    1.029   1_554 S
N221   H771    1.029   1_554 S
N221   N774    1.293   1_554 S
N222   N497    1.293   .     S
N222   H496    1.029   .     S
C231   C248    1.425   .     S
C231   O271    1.285   .     A
C231   O269    1.293   .     A
C232   C234    1.402   .     A
C232   C243    1.403   .     A
C232   Cl254   1.776   .     S
C233   C251    1.445   .     S
C233   C252    1.402   .     A
C233   C235    1.402   .     A
C234   C250    1.445   .     S
C234   C236    1.402   .     A
C235   Cl255   1.775   .     S
C235   C237    1.403   .     A
C236   Cl256   1.775   .     S
C236   C238    1.403   .     A
C237   C239    1.417   .     A
C237   C244    1.404   .     A
C238   C245    1.404   .     A
C238   C240    1.417   .     A
C239   C241    1.417   .     A
C239   C194    1.412   1_655 S
C240   C243    1.417   .     A
C241   C252    1.403   .     A
C241   C247    1.404   .     A
C242   O270    1.293   .     A
C242   C249    1.425   .     S
C242   O272    1.285   .     A
C243   C246    1.404   .     A
C244   H259    1.082   .     S
C244   C200    1.387   1_655 S
C245   H260    1.082   .     S
C246   H261    1.082   .     S
C247   H262    1.082   .     S
C247   C199    1.387   1_655 S
C249   C64     1.326   1_565 S
C249   H80     1.088   1_565 S
C250   O275    1.291   .     A
C250   O273    1.294   .     A
C251   O274    1.294   .     A
C251   O276    1.291   .     A
C252   Cl253   1.776   .     S
Cu257  O272    1.947   .     S
Cu257  N268    2.022   .     S
Cu257  O273    1.965   .     S
Cu257  O276    1.950   .     S
Cu257  Cu258   2.691   .     S
Cu257  O269    1.953   .     S
Cu258  N267    2.022   .     S
Cu258  O275    1.950   .     S
Cu258  O271    1.947   .     S
Cu258  O270    1.953   .     S
Cu258  O274    1.965   .     S
H263   C64     1.088   1_565 S
H265   N543    1.029   .     S
H266   N820    1.029   1_554 S
N267   H817    1.029   1_554 S
N267   N820    1.293   1_554 S
N268   N543    1.293   .     S
N268   H542    1.029   .     S
C277   C294    1.425   .     S
C277   O317    1.285   .     A
C277   O315    1.293   .     A
C278   C280    1.402   .     A
C278   C289    1.403   .     A
C278   Cl300   1.776   .     S
C279   C297    1.445   .     S
C279   C298    1.402   .     A
C279   C281    1.402   .     A
C280   C296    1.445   .     S
C280   C282    1.402   .     A
C281   Cl301   1.775   .     S
C281   C283    1.403   .     A
C282   Cl302   1.775   .     S
C282   C284    1.403   .     A
C283   C285    1.417   .     A
C283   C290    1.404   .     A
C284   C291    1.404   .     A
C284   C286    1.417   .     A
C285   C287    1.417   .     A
C285   C332    1.412   .     S
C286   C289    1.417   .     A
C286   C331    1.412   1_455 S
C287   C298    1.403   .     A
C287   C293    1.404   .     A
C288   O316    1.293   .     A
C288   C295    1.425   .     S
C288   O318    1.285   .     A
C289   C292    1.404   .     A
C290   H305    1.082   .     S
C290   C338    1.387   .     S
C291   H306    1.082   .     S
C291   C339    1.387   1_455 S
C292   H307    1.082   .     S
C292   C336    1.387   1_455 S
C293   H308    1.082   .     S
C293   C337    1.387   .     S
C294   C479    1.326   1_545 S
C294   H493    1.088   1_545 S
C295   C386    1.326   .     S
C295   H402    1.088   .     S
C296   O321    1.291   .     A
C296   O319    1.294   .     A
C297   O320    1.294   .     A
C297   O322    1.291   .     A
C298   Cl299   1.776   .     S
Cu303  O318    1.947   .     S
Cu303  N314    2.022   .     S
Cu303  O319    1.965   .     S
Cu303  O322    1.950   .     S
Cu303  Cu304   2.691   .     S
Cu303  O315    1.953   .     S
Cu304  N313    2.022   .     S
Cu304  O321    1.950   .     S
Cu304  O317    1.947   .     S
Cu304  O316    1.953   .     S
Cu304  O320    1.965   .     S
H309   C386    1.088   .     S
H310   C479    1.088   1_545 S
H311   N589    1.029   .     S
N314   N589    1.293   .     S
N314   H588    1.029   .     S
C323   C340    1.425   .     S
C323   O363    1.285   .     A
C323   O361    1.293   .     A
C324   C326    1.402   .     A
C324   C335    1.403   .     A
C324   Cl346   1.776   .     S
C325   C343    1.445   .     S
C325   C344    1.402   .     A
C325   C327    1.402   .     A
C326   C342    1.445   .     S
C326   C328    1.402   .     A
C327   Cl347   1.775   .     S
C327   C329    1.403   .     A
C328   Cl348   1.775   .     S
C328   C330    1.403   .     A
C329   C331    1.417   .     A
C329   C336    1.404   .     A
C330   C337    1.404   .     A
C330   C332    1.417   .     A
C331   C333    1.417   .     A
C331   C286    1.412   1_655 S
C332   C335    1.417   .     A
C333   C344    1.403   .     A
C333   C339    1.404   .     A
C334   O362    1.293   .     A
C334   C341    1.425   .     S
C334   O364    1.285   .     A
C335   C338    1.404   .     A
C336   H351    1.082   .     S
C336   C292    1.387   1_655 S
C337   H352    1.082   .     S
C338   H353    1.082   .     S
C339   H354    1.082   .     S
C339   C291    1.387   1_655 S
C340   C525    1.326   1_545 S
C340   H539    1.088   1_545 S
C341   C432    1.326   .     S
C341   H448    1.088   .     S
C342   O367    1.291   .     A
C342   O365    1.294   .     A
C343   O366    1.294   .     A
C343   O368    1.291   .     A
C344   Cl345   1.776   .     S
Cu349  O364    1.947   .     S
Cu349  N360    2.022   .     S
Cu349  O365    1.965   .     S
Cu349  O368    1.950   .     S
Cu349  Cu350   2.691   .     S
Cu349  O361    1.953   .     S
Cu350  N359    2.022   .     S
Cu350  O367    1.950   .     S
Cu350  O363    1.947   .     S
Cu350  O362    1.953   .     S
Cu350  O366    1.965   .     S
H355   C432    1.088   .     S
H356   C525    1.088   1_545 S
H357   N635    1.029   .     S
N360   N635    1.293   .     S
N360   H634    1.029   .     S
C369   C386    1.425   .     S
C369   O409    1.285   .     A
C369   O407    1.293   .     A
C370   C372    1.402   .     A
C370   C381    1.403   .     A
C370   Cl392   1.776   .     S
C371   C389    1.445   .     S
C371   C390    1.402   .     A
C371   C373    1.402   .     A
C372   C388    1.445   .     S
C372   C374    1.402   .     A
C373   Cl393   1.775   .     S
C373   C375    1.403   .     A
C374   Cl394   1.775   .     S
C374   C376    1.403   .     A
C375   C377    1.417   .     A
C375   C382    1.404   .     A
C376   C383    1.404   .     A
C376   C378    1.417   .     A
C377   C379    1.417   .     A
C377   C424    1.412   .     S
C378   C381    1.417   .     A
C378   C423    1.412   1_455 S
C379   C390    1.403   .     A
C379   C385    1.404   .     A
C380   O408    1.293   .     A
C380   C387    1.425   .     S
C380   O410    1.285   .     A
C381   C384    1.404   .     A
C382   H397    1.082   .     S
C382   C430    1.387   .     S
C383   H398    1.082   .     S
C383   C431    1.387   1_455 S
C384   H399    1.082   .     S
C384   C428    1.387   1_455 S
C385   H400    1.082   .     S
C385   C429    1.387   .     S
C387   C478    1.326   .     S
C387   H494    1.088   .     S
C388   O413    1.291   .     A
C388   O411    1.294   .     A
C389   O412    1.294   .     A
C389   O414    1.291   .     A
C390   Cl391   1.776   .     S
Cu395  O410    1.947   .     S
Cu395  N406    2.022   .     S
Cu395  O411    1.965   .     S
Cu395  O414    1.950   .     S
Cu395  Cu396   2.691   .     S
Cu395  O407    1.953   .     S
Cu396  N405    2.022   .     S
Cu396  O413    1.950   .     S
Cu396  O409    1.947   .     S
Cu396  O408    1.953   .     S
Cu396  O412    1.965   .     S
H401   C478    1.088   .     S
H403   N681    1.029   .     S
N406   N681    1.293   .     S
N406   H680    1.029   .     S
C415   C432    1.425   .     S
C415   O455    1.285   .     A
C415   O453    1.293   .     A
C416   C418    1.402   .     A
C416   C427    1.403   .     A
C416   Cl438   1.776   .     S
C417   C435    1.445   .     S
C417   C436    1.402   .     A
C417   C419    1.402   .     A
C418   C434    1.445   .     S
C418   C420    1.402   .     A
C419   Cl439   1.775   .     S
C419   C421    1.403   .     A
C420   Cl440   1.775   .     S
C420   C422    1.403   .     A
C421   C423    1.417   .     A
C421   C428    1.404   .     A
C422   C429    1.404   .     A
C422   C424    1.417   .     A
C423   C425    1.417   .     A
C423   C378    1.412   1_655 S
C424   C427    1.417   .     A
C425   C436    1.403   .     A
C425   C431    1.404   .     A
C426   O454    1.293   .     A
C426   C433    1.425   .     S
C426   O456    1.285   .     A
C427   C430    1.404   .     A
C428   H443    1.082   .     S
C428   C384    1.387   1_655 S
C429   H444    1.082   .     S
C430   H445    1.082   .     S
C431   H446    1.082   .     S
C431   C383    1.387   1_655 S
C433   C524    1.326   .     S
C433   H540    1.088   .     S
C434   O459    1.291   .     A
C434   O457    1.294   .     A
C435   O458    1.294   .     A
C435   O460    1.291   .     A
C436   Cl437   1.776   .     S
Cu441  O456    1.947   .     S
Cu441  N452    2.022   .     S
Cu441  O457    1.965   .     S
Cu441  O460    1.950   .     S
Cu441  Cu442   2.691   .     S
Cu441  O453    1.953   .     S
Cu442  N451    2.022   .     S
Cu442  O459    1.950   .     S
Cu442  O455    1.947   .     S
Cu442  O454    1.953   .     S
Cu442  O458    1.965   .     S
H447   C524    1.088   .     S
H449   N727    1.029   .     S
N452   N727    1.293   .     S
N452   H726    1.029   .     S
C461   C478    1.425   .     S
C461   O501    1.285   .     A
C461   O499    1.293   .     A
C462   C464    1.402   .     A
C462   C473    1.403   .     A
C462   Cl484   1.776   .     S
C463   C481    1.445   .     S
C463   C482    1.402   .     A
C463   C465    1.402   .     A
C464   C480    1.445   .     S
C464   C466    1.402   .     A
C465   Cl485   1.775   .     S
C465   C467    1.403   .     A
C466   Cl486   1.775   .     S
C466   C468    1.403   .     A
C467   C469    1.417   .     A
C467   C474    1.404   .     A
C468   C475    1.404   .     A
C468   C470    1.417   .     A
C469   C471    1.417   .     A
C469   C516    1.412   .     S
C470   C473    1.417   .     A
C470   C515    1.412   1_455 S
C471   C482    1.403   .     A
C471   C477    1.404   .     A
C472   O500    1.293   .     A
C472   C479    1.425   .     S
C472   O502    1.285   .     A
C473   C476    1.404   .     A
C474   H489    1.082   .     S
C474   C522    1.387   .     S
C475   H490    1.082   .     S
C475   C523    1.387   1_455 S
C476   H491    1.082   .     S
C476   C520    1.387   1_455 S
C477   H492    1.082   .     S
C477   C521    1.387   .     S
C479   C294    1.326   1_565 S
C479   H310    1.088   1_565 S
C480   O505    1.291   .     A
C480   O503    1.294   .     A
C481   O504    1.294   .     A
C481   O506    1.291   .     A
C482   Cl483   1.776   .     S
Cu487  O502    1.947   .     S
Cu487  N498    2.022   .     S
Cu487  O503    1.965   .     S
Cu487  O506    1.950   .     S
Cu487  Cu488   2.691   .     S
Cu487  O499    1.953   .     S
Cu488  N497    2.022   .     S
Cu488  O505    1.950   .     S
Cu488  O501    1.947   .     S
Cu488  O500    1.953   .     S
Cu488  O504    1.965   .     S
H493   C294    1.088   1_565 S
H495   N773    1.029   .     S
N498   N773    1.293   .     S
N498   H772    1.029   .     S
C507   C524    1.425   .     S
C507   O547    1.285   .     A
C507   O545    1.293   .     A
C508   C510    1.402   .     A
C508   C519    1.403   .     A
C508   Cl530   1.776   .     S
C509   C527    1.445   .     S
C509   C528    1.402   .     A
C509   C511    1.402   .     A
C510   C526    1.445   .     S
C510   C512    1.402   .     A
C511   Cl531   1.775   .     S
C511   C513    1.403   .     A
C512   Cl532   1.775   .     S
C512   C514    1.403   .     A
C513   C515    1.417   .     A
C513   C520    1.404   .     A
C514   C521    1.404   .     A
C514   C516    1.417   .     A
C515   C517    1.417   .     A
C515   C470    1.412   1_655 S
C516   C519    1.417   .     A
C517   C528    1.403   .     A
C517   C523    1.404   .     A
C518   O546    1.293   .     A
C518   C525    1.425   .     S
C518   O548    1.285   .     A
C519   C522    1.404   .     A
C520   H535    1.082   .     S
C520   C476    1.387   1_655 S
C521   H536    1.082   .     S
C522   H537    1.082   .     S
C523   H538    1.082   .     S
C523   C475    1.387   1_655 S
C525   C340    1.326   1_565 S
C525   H356    1.088   1_565 S
C526   O551    1.291   .     A
C526   O549    1.294   .     A
C527   O550    1.294   .     A
C527   O552    1.291   .     A
C528   Cl529   1.776   .     S
Cu533  O548    1.947   .     S
Cu533  N544    2.022   .     S
Cu533  O549    1.965   .     S
Cu533  O552    1.950   .     S
Cu533  Cu534   2.691   .     S
Cu533  O545    1.953   .     S
Cu534  N543    2.022   .     S
Cu534  O551    1.950   .     S
Cu534  O547    1.947   .     S
Cu534  O546    1.953   .     S
Cu534  O550    1.965   .     S
H539   C340    1.088   1_565 S
H541   N819    1.029   .     S
N544   N819    1.293   .     S
N544   H818    1.029   .     S
C553   C570    1.425   .     S
C553   O593    1.285   .     A
C553   O591    1.293   .     A
C554   C556    1.402   .     A
C554   C565    1.403   .     A
C554   Cl576   1.776   .     S
C555   C573    1.445   .     S
C555   C574    1.402   .     A
C555   C557    1.402   .     A
C556   C572    1.445   .     S
C556   C558    1.402   .     A
C557   Cl577   1.775   .     S
C557   C559    1.403   .     A
C558   Cl578   1.775   .     S
C558   C560    1.403   .     A
C559   C561    1.417   .     A
C559   C566    1.404   .     A
C560   C567    1.404   .     A
C560   C562    1.417   .     A
C561   C563    1.417   .     A
C561   C608    1.412   .     S
C562   C565    1.417   .     A
C562   C607    1.412   1_455 S
C563   C574    1.403   .     A
C563   C569    1.404   .     A
C564   O592    1.293   .     A
C564   C571    1.425   .     S
C564   O594    1.285   .     A
C565   C568    1.404   .     A
C566   H581    1.082   .     S
C566   C614    1.387   .     S
C567   H582    1.082   .     S
C567   C615    1.387   1_455 S
C568   H583    1.082   .     S
C568   C612    1.387   1_455 S
C569   H584    1.082   .     S
C569   C613    1.387   .     S
C570   C755    1.326   1_545 S
C570   H769    1.088   1_545 S
C571   C662    1.326   .     S
C571   H678    1.088   .     S
C572   O597    1.291   .     A
C572   O595    1.294   .     A
C573   O596    1.294   .     A
C573   O598    1.291   .     A
C574   Cl575   1.776   .     S
Cu579  O594    1.947   .     S
Cu579  N590    2.022   .     S
Cu579  O595    1.965   .     S
Cu579  O598    1.950   .     S
Cu579  Cu580   2.691   .     S
Cu579  O591    1.953   .     S
Cu580  N589    2.022   .     S
Cu580  O597    1.950   .     S
Cu580  O593    1.947   .     S
Cu580  O592    1.953   .     S
Cu580  O596    1.965   .     S
H585   C662    1.088   .     S
H586   C755    1.088   1_545 S
H587   N37     1.029   1_556 S
N590   N37     1.293   1_556 S
N590   H36     1.029   1_556 S
C599   C616    1.425   .     S
C599   O639    1.285   .     A
C599   O637    1.293   .     A
C600   C602    1.402   .     A
C600   C611    1.403   .     A
C600   Cl622   1.776   .     S
C601   C619    1.445   .     S
C601   C620    1.402   .     A
C601   C603    1.402   .     A
C602   C618    1.445   .     S
C602   C604    1.402   .     A
C603   Cl623   1.775   .     S
C603   C605    1.403   .     A
C604   Cl624   1.775   .     S
C604   C606    1.403   .     A
C605   C607    1.417   .     A
C605   C612    1.404   .     A
C606   C613    1.404   .     A
C606   C608    1.417   .     A
C607   C609    1.417   .     A
C607   C562    1.412   1_655 S
C608   C611    1.417   .     A
C609   C620    1.403   .     A
C609   C615    1.404   .     A
C610   O638    1.293   .     A
C610   C617    1.425   .     S
C610   O640    1.285   .     A
C611   C614    1.404   .     A
C612   H627    1.082   .     S
C612   C568    1.387   1_655 S
C613   H628    1.082   .     S
C614   H629    1.082   .     S
C615   H630    1.082   .     S
C615   C567    1.387   1_655 S
C616   C801    1.326   1_545 S
C616   H815    1.088   1_545 S
C617   C708    1.326   .     S
C617   H724    1.088   .     S
C618   O643    1.291   .     A
C618   O641    1.294   .     A
C619   O642    1.294   .     A
C619   O644    1.291   .     A
C620   Cl621   1.776   .     S
Cu625  O640    1.947   .     S
Cu625  N636    2.022   .     S
Cu625  O641    1.965   .     S
Cu625  O644    1.950   .     S
Cu625  Cu626   2.691   .     S
Cu625  O637    1.953   .     S
Cu626  N635    2.022   .     S
Cu626  O643    1.950   .     S
Cu626  O639    1.947   .     S
Cu626  O638    1.953   .     S
Cu626  O642    1.965   .     S
H631   C708    1.088   .     S
H632   C801    1.088   1_545 S
H633   N83     1.029   1_556 S
N636   N83     1.293   1_556 S
N636   H82     1.029   1_556 S
C645   C662    1.425   .     S
C645   O685    1.285   .     A
C645   O683    1.293   .     A
C646   C648    1.402   .     A
C646   C657    1.403   .     A
C646   Cl668   1.776   .     S
C647   C665    1.445   .     S
C647   C666    1.402   .     A
C647   C649    1.402   .     A
C648   C664    1.445   .     S
C648   C650    1.402   .     A
C649   Cl669   1.775   .     S
C649   C651    1.403   .     A
C650   Cl670   1.775   .     S
C650   C652    1.403   .     A
C651   C653    1.417   .     A
C651   C658    1.404   .     A
C652   C659    1.404   .     A
C652   C654    1.417   .     A
C653   C655    1.417   .     A
C653   C700    1.412   .     S
C654   C657    1.417   .     A
C654   C699    1.412   1_455 S
C655   C666    1.403   .     A
C655   C661    1.404   .     A
C656   O684    1.293   .     A
C656   C663    1.425   .     S
C656   O686    1.285   .     A
C657   C660    1.404   .     A
C658   H673    1.082   .     S
C658   C706    1.387   .     S
C659   H674    1.082   .     S
C659   C707    1.387   1_455 S
C660   H675    1.082   .     S
C660   C704    1.387   1_455 S
C661   H676    1.082   .     S
C661   C705    1.387   .     S
C663   C754    1.326   .     S
C663   H770    1.088   .     S
C664   O689    1.291   .     A
C664   O687    1.294   .     A
C665   O688    1.294   .     A
C665   O690    1.291   .     A
C666   Cl667   1.776   .     S
Cu671  O686    1.947   .     S
Cu671  N682    2.022   .     S
Cu671  O687    1.965   .     S
Cu671  O690    1.950   .     S
Cu671  Cu672   2.691   .     S
Cu671  O683    1.953   .     S
Cu672  N681    2.022   .     S
Cu672  O689    1.950   .     S
Cu672  O685    1.947   .     S
Cu672  O684    1.953   .     S
Cu672  O688    1.965   .     S
H677   C754    1.088   .     S
H679   N129    1.029   1_556 S
N682   N129    1.293   1_556 S
N682   H128    1.029   1_556 S
C691   C708    1.425   .     S
C691   O731    1.285   .     A
C691   O729    1.293   .     A
C692   C694    1.402   .     A
C692   C703    1.403   .     A
C692   Cl714   1.776   .     S
C693   C711    1.445   .     S
C693   C712    1.402   .     A
C693   C695    1.402   .     A
C694   C710    1.445   .     S
C694   C696    1.402   .     A
C695   Cl715   1.775   .     S
C695   C697    1.403   .     A
C696   Cl716   1.775   .     S
C696   C698    1.403   .     A
C697   C699    1.417   .     A
C697   C704    1.404   .     A
C698   C705    1.404   .     A
C698   C700    1.417   .     A
C699   C701    1.417   .     A
C699   C654    1.412   1_655 S
C700   C703    1.417   .     A
C701   C712    1.403   .     A
C701   C707    1.404   .     A
C702   O730    1.293   .     A
C702   C709    1.425   .     S
C702   O732    1.285   .     A
C703   C706    1.404   .     A
C704   H719    1.082   .     S
C704   C660    1.387   1_655 S
C705   H720    1.082   .     S
C706   H721    1.082   .     S
C707   H722    1.082   .     S
C707   C659    1.387   1_655 S
C709   C800    1.326   .     S
C709   H816    1.088   .     S
C710   O735    1.291   .     A
C710   O733    1.294   .     A
C711   O734    1.294   .     A
C711   O736    1.291   .     A
C712   Cl713   1.776   .     S
Cu717  O732    1.947   .     S
Cu717  N728    2.022   .     S
Cu717  O733    1.965   .     S
Cu717  O736    1.950   .     S
Cu717  Cu718   2.691   .     S
Cu717  O729    1.953   .     S
Cu718  N727    2.022   .     S
Cu718  O735    1.950   .     S
Cu718  O731    1.947   .     S
Cu718  O730    1.953   .     S
Cu718  O734    1.965   .     S
H723   C800    1.088   .     S
H725   N175    1.029   1_556 S
N728   N175    1.293   1_556 S
N728   H174    1.029   1_556 S
C737   C754    1.425   .     S
C737   O777    1.285   .     A
C737   O775    1.293   .     A
C738   C740    1.402   .     A
C738   C749    1.403   .     A
C738   Cl760   1.776   .     S
C739   C757    1.445   .     S
C739   C758    1.402   .     A
C739   C741    1.402   .     A
C740   C756    1.445   .     S
C740   C742    1.402   .     A
C741   Cl761   1.775   .     S
C741   C743    1.403   .     A
C742   Cl762   1.775   .     S
C742   C744    1.403   .     A
C743   C745    1.417   .     A
C743   C750    1.404   .     A
C744   C751    1.404   .     A
C744   C746    1.417   .     A
C745   C747    1.417   .     A
C745   C792    1.412   .     S
C746   C749    1.417   .     A
C746   C791    1.412   1_455 S
C747   C758    1.403   .     A
C747   C753    1.404   .     A
C748   O776    1.293   .     A
C748   C755    1.425   .     S
C748   O778    1.285   .     A
C749   C752    1.404   .     A
C750   H765    1.082   .     S
C750   C798    1.387   .     S
C751   H766    1.082   .     S
C751   C799    1.387   1_455 S
C752   H767    1.082   .     S
C752   C796    1.387   1_455 S
C753   H768    1.082   .     S
C753   C797    1.387   .     S
C755   C570    1.326   1_565 S
C755   H586    1.088   1_565 S
C756   O781    1.291   .     A
C756   O779    1.294   .     A
C757   O780    1.294   .     A
C757   O782    1.291   .     A
C758   Cl759   1.776   .     S
Cu763  O778    1.947   .     S
Cu763  N774    2.022   .     S
Cu763  O779    1.965   .     S
Cu763  O782    1.950   .     S
Cu763  Cu764   2.691   .     S
Cu763  O775    1.953   .     S
Cu764  N773    2.022   .     S
Cu764  O781    1.950   .     S
Cu764  O777    1.947   .     S
Cu764  O776    1.953   .     S
Cu764  O780    1.965   .     S
H769   C570    1.088   1_565 S
H771   N221    1.029   1_556 S
N774   N221    1.293   1_556 S
N774   H220    1.029   1_556 S
C783   C800    1.425   .     S
C783   O823    1.285   .     A
C783   O821    1.293   .     A
C784   C786    1.402   .     A
C784   C795    1.403   .     A
C784   Cl806   1.776   .     S
C785   C803    1.445   .     S
C785   C804    1.402   .     A
C785   C787    1.402   .     A
C786   C802    1.445   .     S
C786   C788    1.402   .     A
C787   Cl807   1.775   .     S
C787   C789    1.403   .     A
C788   Cl808   1.775   .     S
C788   C790    1.403   .     A
C789   C791    1.417   .     A
C789   C796    1.404   .     A
C790   C797    1.404   .     A
C790   C792    1.417   .     A
C791   C793    1.417   .     A
C791   C746    1.412   1_655 S
C792   C795    1.417   .     A
C793   C804    1.403   .     A
C793   C799    1.404   .     A
C794   O822    1.293   .     A
C794   C801    1.425   .     S
C794   O824    1.285   .     A
C795   C798    1.404   .     A
C796   H811    1.082   .     S
C796   C752    1.387   1_655 S
C797   H812    1.082   .     S
C798   H813    1.082   .     S
C799   H814    1.082   .     S
C799   C751    1.387   1_655 S
C801   C616    1.326   1_565 S
C801   H632    1.088   1_565 S
C802   O827    1.291   .     A
C802   O825    1.294   .     A
C803   O826    1.294   .     A
C803   O828    1.291   .     A
C804   Cl805   1.776   .     S
Cu809  O824    1.947   .     S
Cu809  N820    2.022   .     S
Cu809  O825    1.965   .     S
Cu809  O828    1.950   .     S
Cu809  Cu810   2.691   .     S
Cu809  O821    1.953   .     S
Cu810  N819    2.022   .     S
Cu810  O827    1.950   .     S
Cu810  O823    1.947   .     S
Cu810  O822    1.953   .     S
Cu810  O826    1.965   .     S
H815   C616    1.088   1_565 S
H817   N267    1.029   1_556 S
N820   N267    1.293   1_556 S
N820   H266    1.029   1_556 S
