data_str_m1_o1_o17_pcu_sym.86
_audit_creation_date              2020-01-03
_audit_creation_method            'Materials Studio'
_symmetry_space_group_name_H-M    'P1'
_symmetry_Int_Tables_number       1
_symmetry_cell_setting            triclinic
loop_
_symmetry_equiv_pos_as_xyz
  x,y,z
_cell_length_a                    36.6727
_cell_length_b                    36.6732
_cell_length_c                    34.4207
_cell_angle_alpha                 90.0009
_cell_angle_beta                  90.0009
_cell_angle_gamma                 90.0231
loop_
_atom_site_label
_atom_site_type_symbol
_atom_site_fract_x
_atom_site_fract_y
_atom_site_fract_z
_atom_site_U_iso_or_equiv
_atom_site_adp_type
_atom_site_occupancy
Zn1    Zn    0.20660  -0.00000   0.21735   0.00000  Uiso   1.00
Zn2    Zn    0.29341  -0.00000   0.78265   0.00000  Uiso   1.00
Zn3    Zn    0.00000   0.20659   0.21735   0.00000  Uiso   1.00
Zn4    Zn    0.00000   0.29340   0.78265   0.00000  Uiso   1.00
Zn5    Zn    0.29341  -0.00000   0.21735   0.00000  Uiso   1.00
Zn6    Zn    0.20660  -0.00000   0.78265   0.00000  Uiso   1.00
Zn7    Zn    0.00000   0.29340   0.21735   0.00000  Uiso   1.00
Zn8    Zn    0.00000   0.20659   0.78265   0.00000  Uiso   1.00
Zn9    Zn    0.45660   0.25000   0.71735   0.00000  Uiso   1.00
Zn10   Zn    0.04341   0.25000   0.28265   0.00000  Uiso   1.00
Zn11   Zn    0.25000   0.45659   0.71735   0.00000  Uiso   1.00
Zn12   Zn    0.25000   0.04340   0.28265   0.00000  Uiso   1.00
Zn13   Zn    0.04341   0.25000   0.71735   0.00000  Uiso   1.00
Zn14   Zn    0.45660   0.25000   0.28265   0.00000  Uiso   1.00
Zn15   Zn    0.25000   0.04340   0.71735   0.00000  Uiso   1.00
Zn16   Zn    0.25000   0.45659   0.28265   0.00000  Uiso   1.00
C17    C     0.48345   0.27885   0.41804   0.00000  Uiso   1.00
C18    C     0.00753   0.21762   0.58227   0.00000  Uiso   1.00
C19    C     0.22106   0.48358   0.41804   0.00000  Uiso   1.00
C20    C     0.28241   0.00742   0.58227   0.00000  Uiso   1.00
C21    C     0.01656   0.22115   0.41804   0.00000  Uiso   1.00
C22    C     0.49247   0.28238   0.58227   0.00000  Uiso   1.00
C23    C     0.27892   0.01645   0.41804   0.00000  Uiso   1.00
C24    C     0.21758   0.49259   0.58227   0.00000  Uiso   1.00
C25    C     0.26013   0.03167   0.91772   0.00000  Uiso   1.00
C26    C     0.23150   0.47232   0.08193   0.00000  Uiso   1.00
C27    C     0.47232   0.23151   0.91807   0.00000  Uiso   1.00
C28    C     0.03167   0.26014   0.08228   0.00000  Uiso   1.00
C29    C     0.23987   0.46833   0.91772   0.00000  Uiso   1.00
C30    C     0.26849   0.02768   0.08193   0.00000  Uiso   1.00
C31    C     0.02768   0.26849   0.91807   0.00000  Uiso   1.00
C32    C     0.46833   0.23986   0.08228   0.00000  Uiso   1.00
C33    C     0.00000   0.25000   0.39809   0.00000  Uiso   1.00
C34    C    -0.00000   0.25000   0.60214   0.00000  Uiso   1.00
C35    C     0.25000   0.00001   0.39808   0.00000  Uiso   1.00
C36    C     0.25000   0.00000   0.60213   0.00000  Uiso   1.00
C37    C     0.25000  -0.00000   0.89784   0.00000  Uiso   1.00
C38    C     0.25000  -0.00000   0.10187   0.00000  Uiso   1.00
C39    C     0.00000   0.25000   0.89813   0.00000  Uiso   1.00
C40    C     0.00000   0.25000   0.10216   0.00000  Uiso   1.00
O41    O     0.25000  -0.00000   0.25000   0.00000  Uiso   1.00
O42    O     0.25000  -0.00000   0.75000   0.00000  Uiso   1.00
O43    O     0.00000   0.25000   0.25000   0.00000  Uiso   1.00
O44    O     0.00000   0.25000   0.75000   0.00000  Uiso   1.00
O45    O     0.25000   0.46963   0.33755   0.00000  Uiso   1.00
O46    O     0.25000   0.03036   0.66245   0.00000  Uiso   1.00
O47    O     0.03037   0.25000   0.33755   0.00000  Uiso   1.00
O48    O     0.46964   0.25000   0.66245   0.00000  Uiso   1.00
O49    O     0.25000   0.03036   0.33755   0.00000  Uiso   1.00
O50    O     0.25000   0.46963   0.66245   0.00000  Uiso   1.00
O51    O     0.46964   0.25000   0.33755   0.00000  Uiso   1.00
O52    O     0.03037   0.25000   0.66245   0.00000  Uiso   1.00
O53    O     0.00000   0.21963   0.83755   0.00000  Uiso   1.00
O54    O     0.00000   0.28036   0.16245   0.00000  Uiso   1.00
O55    O     0.28037  -0.00000   0.83755   0.00000  Uiso   1.00
O56    O     0.21964  -0.00000   0.16245   0.00000  Uiso   1.00
O57    O     0.00000   0.28036   0.83755   0.00000  Uiso   1.00
O58    O     0.00000   0.21963   0.16245   0.00000  Uiso   1.00
O59    O     0.21964  -0.00000   0.83755   0.00000  Uiso   1.00
O60    O     0.28037  -0.00000   0.16245   0.00000  Uiso   1.00
O61    O     0.20725   0.07307   0.27302   0.00000  Uiso   1.00
O62    O     0.29276   0.42692   0.72698   0.00000  Uiso   1.00
O63    O     0.42693   0.20724   0.27302   0.00000  Uiso   1.00
O64    O     0.07308   0.29275   0.72698   0.00000  Uiso   1.00
O65    O     0.29276   0.42692   0.27302   0.00000  Uiso   1.00
O66    O     0.20725   0.07307   0.72698   0.00000  Uiso   1.00
O67    O     0.07308   0.29275   0.27302   0.00000  Uiso   1.00
O68    O     0.42693   0.20724   0.72698   0.00000  Uiso   1.00
O69    O     0.20725   0.42692   0.72698   0.00000  Uiso   1.00
O70    O     0.29276   0.07307   0.27302   0.00000  Uiso   1.00
O71    O     0.42693   0.29275   0.72698   0.00000  Uiso   1.00
O72    O     0.07308   0.20724   0.27302   0.00000  Uiso   1.00
O73    O     0.29276   0.07307   0.72698   0.00000  Uiso   1.00
O74    O     0.20725   0.42692   0.27302   0.00000  Uiso   1.00
O75    O     0.07308   0.20724   0.72698   0.00000  Uiso   1.00
O76    O     0.42693   0.29275   0.27302   0.00000  Uiso   1.00
O77    O     0.45725   0.32307   0.77302   0.00000  Uiso   1.00
O78    O     0.04276   0.17692   0.22698   0.00000  Uiso   1.00
O79    O     0.17693   0.45724   0.77302   0.00000  Uiso   1.00
O80    O     0.32308   0.04275   0.22698   0.00000  Uiso   1.00
O81    O     0.04276   0.17692   0.77302   0.00000  Uiso   1.00
O82    O     0.45725   0.32307   0.22698   0.00000  Uiso   1.00
O83    O     0.32308   0.04275   0.77302   0.00000  Uiso   1.00
O84    O     0.17693   0.45724   0.22698   0.00000  Uiso   1.00
O85    O     0.45725   0.17692   0.22698   0.00000  Uiso   1.00
O86    O     0.04276   0.32307   0.77302   0.00000  Uiso   1.00
O87    O     0.17693   0.04275   0.22698   0.00000  Uiso   1.00
O88    O     0.32308   0.45724   0.77302   0.00000  Uiso   1.00
O89    O     0.04276   0.32307   0.22698   0.00000  Uiso   1.00
O90    O     0.45725   0.17692   0.77302   0.00000  Uiso   1.00
O91    O     0.32308   0.45724   0.22698   0.00000  Uiso   1.00
O92    O     0.17693   0.04275   0.77302   0.00000  Uiso   1.00
C93    C     0.02464   0.18777   0.47987   0.00000  Uiso   1.00
C94    C     0.47598   0.31246   0.52052   0.00000  Uiso   1.00
C95    C     0.31237   0.02434   0.47986   0.00000  Uiso   1.00
C96    C     0.18736   0.47638   0.52049   0.00000  Uiso   1.00
C97    C     0.47536   0.31224   0.47987   0.00000  Uiso   1.00
C98    C     0.02402   0.18754   0.52052   0.00000  Uiso   1.00
C99    C     0.18758   0.47577   0.47984   0.00000  Uiso   1.00
C100   C     0.31259   0.02372   0.52051   0.00000  Uiso   1.00
C101   C     0.22076   0.43980   0.97938   0.00000  Uiso   1.00
C102   C     0.27974   0.06003   0.02001   0.00000  Uiso   1.00
C103   C     0.06005   0.27971   0.97998   0.00000  Uiso   1.00
C104   C     0.43977   0.22081   0.02061   0.00000  Uiso   1.00
C105   C     0.27923   0.06020   0.97938   0.00000  Uiso   1.00
C106   C     0.22026   0.43997   0.02001   0.00000  Uiso   1.00
C107   C     0.43995   0.22030   0.97998   0.00000  Uiso   1.00
C108   C     0.06023   0.27920   0.02062   0.00000  Uiso   1.00
C109   C     0.25000   0.00000   0.35576   0.00000  Uiso   1.00
C110   C     0.25000  -0.00000   0.64432   0.00000  Uiso   1.00
C111   C     0.00000   0.25000   0.35576   0.00000  Uiso   1.00
C112   C    -0.00000   0.25000   0.64432   0.00000  Uiso   1.00
C113   C     0.00000   0.25000   0.85577   0.00000  Uiso   1.00
C114   C     0.00000   0.25000   0.14432   0.00000  Uiso   1.00
C115   C     0.25000  -0.00000   0.85568   0.00000  Uiso   1.00
C116   C     0.25000  -0.00000   0.14423   0.00000  Uiso   1.00
C117   C     0.17993   0.07006   0.25001   0.00000  Uiso   1.00
C118   C     0.32007   0.42994   0.74999   0.00000  Uiso   1.00
C119   C     0.42993   0.17995   0.24998   0.00000  Uiso   1.00
C120   C     0.07007   0.32005   0.75002   0.00000  Uiso   1.00
C121   C     0.32007   0.42994   0.25001   0.00000  Uiso   1.00
C122   C     0.17993   0.07006   0.74999   0.00000  Uiso   1.00
C123   C     0.07007   0.32005   0.24998   0.00000  Uiso   1.00
C124   C     0.42993   0.17995   0.75002   0.00000  Uiso   1.00
C125   C     0.17994   0.42993   0.75001   0.00000  Uiso   1.00
C126   C     0.32006   0.07007   0.24999   0.00000  Uiso   1.00
C127   C     0.42994   0.32008   0.74998   0.00000  Uiso   1.00
C128   C     0.07005   0.17992   0.25002   0.00000  Uiso   1.00
C129   C     0.32006   0.07007   0.75001   0.00000  Uiso   1.00
C130   C     0.17994   0.42993   0.24999   0.00000  Uiso   1.00
C131   C     0.07006   0.17992   0.74998   0.00000  Uiso   1.00
C132   C     0.42995   0.32007   0.25002   0.00000  Uiso   1.00
C133   C     0.12258   0.40415   0.22394   0.00000  Uiso   1.00
C134   C     0.37747   0.09580   0.77600   0.00000  Uiso   1.00
C135   C     0.09537   0.12209   0.22464   0.00000  Uiso   1.00
C136   C     0.40468   0.37795   0.77530   0.00000  Uiso   1.00
C137   C     0.37741   0.09585   0.22393   0.00000  Uiso   1.00
C138   C     0.12253   0.40420   0.77600   0.00000  Uiso   1.00
C139   C     0.40464   0.37791   0.22464   0.00000  Uiso   1.00
C140   C     0.09532   0.12205   0.77530   0.00000  Uiso   1.00
C141   C     0.12205   0.09532   0.77530   0.00000  Uiso   1.00
C142   C     0.37791   0.40463   0.22463   0.00000  Uiso   1.00
C143   C     0.09580   0.37746   0.77600   0.00000  Uiso   1.00
C144   C     0.40415   0.12258   0.22393   0.00000  Uiso   1.00
C145   C     0.37795   0.40468   0.77530   0.00000  Uiso   1.00
C146   C     0.12209   0.09537   0.22463   0.00000  Uiso   1.00
C147   C     0.40420   0.12254   0.77600   0.00000  Uiso   1.00
C148   C     0.09585   0.37742   0.22393   0.00000  Uiso   1.00
C149   C     0.37245   0.15428   0.72414   0.00000  Uiso   1.00
C150   C     0.12750   0.34577   0.27593   0.00000  Uiso   1.00
C151   C     0.34539   0.37211   0.72459   0.00000  Uiso   1.00
C152   C     0.15456   0.12784   0.27548   0.00000  Uiso   1.00
C153   C     0.12755   0.34572   0.72414   0.00000  Uiso   1.00
C154   C     0.37250   0.15423   0.27594   0.00000  Uiso   1.00
C155   C     0.15461   0.12789   0.72459   0.00000  Uiso   1.00
C156   C     0.34544   0.37216   0.27548   0.00000  Uiso   1.00
C157   C     0.37217   0.34544   0.27549   0.00000  Uiso   1.00
C158   C     0.12788   0.15461   0.72458   0.00000  Uiso   1.00
C159   C     0.34578   0.12749   0.27595   0.00000  Uiso   1.00
C160   C     0.15427   0.37246   0.72413   0.00000  Uiso   1.00
C161   C     0.12783   0.15456   0.27549   0.00000  Uiso   1.00
C162   C     0.37212   0.34539   0.72458   0.00000  Uiso   1.00
C163   C     0.15422   0.37251   0.27595   0.00000  Uiso   1.00
C164   C     0.34573   0.12754   0.72413   0.00000  Uiso   1.00
H165   H     0.12029   0.42654   0.20356   0.00000  Uiso   1.00
H166   H     0.37981   0.07337   0.79631   0.00000  Uiso   1.00
H167   H     0.07263   0.11944   0.20474   0.00000  Uiso   1.00
H168   H     0.42745   0.38064   0.79514   0.00000  Uiso   1.00
H169   H     0.37971   0.07346   0.20356   0.00000  Uiso   1.00
H170   H     0.12019   0.42663   0.79631   0.00000  Uiso   1.00
H171   H     0.42737   0.38055   0.20474   0.00000  Uiso   1.00
H172   H     0.07255   0.11936   0.79513   0.00000  Uiso   1.00
H173   H     0.11936   0.07256   0.79514   0.00000  Uiso   1.00
H174   H     0.38056   0.42736   0.20474   0.00000  Uiso   1.00
H175   H     0.07337   0.37980   0.79632   0.00000  Uiso   1.00
H176   H     0.42654   0.12028   0.20356   0.00000  Uiso   1.00
H177   H     0.38064   0.42744   0.79514   0.00000  Uiso   1.00
H178   H     0.11944   0.07264   0.20474   0.00000  Uiso   1.00
H179   H     0.42663   0.12020   0.79632   0.00000  Uiso   1.00
H180   H     0.07346   0.37971   0.20356   0.00000  Uiso   1.00
H181   H     0.37010   0.17671   0.70383   0.00000  Uiso   1.00
H182   H     0.12981   0.32338   0.29630   0.00000  Uiso   1.00
H183   H     0.32262   0.36943   0.70475   0.00000  Uiso   1.00
H184   H     0.17729   0.13049   0.29537   0.00000  Uiso   1.00
H185   H     0.12990   0.32328   0.70383   0.00000  Uiso   1.00
H186   H     0.37019   0.17662   0.29630   0.00000  Uiso   1.00
H187   H     0.17738   0.13057   0.70475   0.00000  Uiso   1.00
H188   H     0.32271   0.36951   0.29537   0.00000  Uiso   1.00
H189   H     0.36953   0.32272   0.29540   0.00000  Uiso   1.00
H190   H     0.13056   0.17737   0.70474   0.00000  Uiso   1.00
H191   H     0.32339   0.12978   0.29632   0.00000  Uiso   1.00
H192   H     0.17671   0.37012   0.70381   0.00000  Uiso   1.00
H193   H     0.13047   0.17728   0.29540   0.00000  Uiso   1.00
H194   H     0.36944   0.32263   0.70474   0.00000  Uiso   1.00
H195   H     0.17661   0.37022   0.29632   0.00000  Uiso   1.00
H196   H     0.32329   0.12988   0.70381   0.00000  Uiso   1.00
C197   C     0.01375   0.21925   0.45899   0.00000  Uiso   1.00
C198   C     0.48919   0.28188   0.54133   0.00000  Uiso   1.00
C199   C     0.28081   0.01362   0.45898   0.00000  Uiso   1.00
C200   C     0.21803   0.48937   0.54133   0.00000  Uiso   1.00
C201   C     0.48626   0.28075   0.45899   0.00000  Uiso   1.00
C202   C     0.01081   0.21812   0.54133   0.00000  Uiso   1.00
C203   C     0.21916   0.48644   0.45898   0.00000  Uiso   1.00
C204   C     0.28193   0.01068   0.54133   0.00000  Uiso   1.00
C205   C     0.23657   0.46914   0.95863   0.00000  Uiso   1.00
C206   C     0.26611   0.02963   0.04096   0.00000  Uiso   1.00
C207   C     0.02964   0.26610   0.95904   0.00000  Uiso   1.00
C208   C     0.46913   0.23659   0.04137   0.00000  Uiso   1.00
C209   C     0.26343   0.03086   0.95863   0.00000  Uiso   1.00
C210   C     0.23389   0.47037   0.04096   0.00000  Uiso   1.00
C211   C     0.47036   0.23391   0.95904   0.00000  Uiso   1.00
C212   C     0.03087   0.26342   0.04137   0.00000  Uiso   1.00
C213   C     0.09817   0.34810   0.24995   0.00000  Uiso   1.00
C214   C     0.40184   0.15190   0.75005   0.00000  Uiso   1.00
C215   C     0.15184   0.09811   0.25004   0.00000  Uiso   1.00
C216   C     0.34816   0.40189   0.74996   0.00000  Uiso   1.00
C217   C     0.40184   0.15190   0.24995   0.00000  Uiso   1.00
C218   C     0.09816   0.34810   0.75006   0.00000  Uiso   1.00
C219   C     0.34816   0.40189   0.25004   0.00000  Uiso   1.00
C220   C     0.15184   0.09811   0.74996   0.00000  Uiso   1.00
C221   C     0.09810   0.15184   0.74995   0.00000  Uiso   1.00
C222   C     0.40190   0.34816   0.25005   0.00000  Uiso   1.00
C223   C     0.15189   0.40184   0.75004   0.00000  Uiso   1.00
C224   C     0.34811   0.09815   0.24996   0.00000  Uiso   1.00
C225   C     0.40190   0.34816   0.74995   0.00000  Uiso   1.00
C226   C     0.09810   0.15184   0.25005   0.00000  Uiso   1.00
C227   C     0.34811   0.09816   0.75004   0.00000  Uiso   1.00
C228   C     0.15189   0.40185   0.24996   0.00000  Uiso   1.00
C229   C     0.00000   0.25000   0.47957   0.00000  Uiso   1.00
C230   C     0.00000   0.25000   0.52073   0.00000  Uiso   1.00
C231   C     0.24998   0.00003   0.47957   0.00000  Uiso   1.00
C232   C     0.24998   0.00003   0.52073   0.00000  Uiso   1.00
C233   C     0.25000  -0.00000   0.97924   0.00000  Uiso   1.00
C234   C     0.25000  -0.00000   0.02039   0.00000  Uiso   1.00
C235   C    -0.00000   0.25000   0.97961   0.00000  Uiso   1.00
C236   C    -0.00000   0.25000   0.02076   0.00000  Uiso   1.00
N237   N     0.03441   0.15465   0.46026   0.00000  Uiso   1.00
O238   O     0.00913   0.13504   0.44391   0.00000  Uiso   1.00
O239   O     0.06712   0.14135   0.46390   0.00000  Uiso   1.00
N240   N     0.46080   0.34341   0.54023   0.00000  Uiso   1.00
O241   O     0.42913   0.34062   0.55700   0.00000  Uiso   1.00
O242   O     0.47585   0.37537   0.53662   0.00000  Uiso   1.00
N243   N     0.34555   0.03387   0.46024   0.00000  Uiso   1.00
O244   O     0.36492   0.00847   0.44381   0.00000  Uiso   1.00
O245   O     0.35914   0.06647   0.46392   0.00000  Uiso   1.00
N246   N     0.15625   0.46147   0.54018   0.00000  Uiso   1.00
O247   O     0.15868   0.42969   0.55678   0.00000  Uiso   1.00
O248   O     0.12446   0.47687   0.53664   0.00000  Uiso   1.00
N249   N     0.46561   0.34536   0.46027   0.00000  Uiso   1.00
O250   O     0.49089   0.36496   0.44391   0.00000  Uiso   1.00
O251   O     0.43290   0.35867   0.46391   0.00000  Uiso   1.00
N252   N     0.03919   0.15659   0.54023   0.00000  Uiso   1.00
O253   O     0.07087   0.15937   0.55699   0.00000  Uiso   1.00
O254   O     0.02414   0.12463   0.53661   0.00000  Uiso   1.00
N255   N     0.15437   0.46633   0.46022   0.00000  Uiso   1.00
O256   O     0.13512   0.49178   0.44370   0.00000  Uiso   1.00
O257   O     0.14066   0.43378   0.46393   0.00000  Uiso   1.00
N258   N     0.34365   0.03870   0.54021   0.00000  Uiso   1.00
O259   O     0.34112   0.07042   0.55691   0.00000  Uiso   1.00
O260   O     0.37550   0.02342   0.53662   0.00000  Uiso   1.00
N261   N     0.20274   0.41042   0.95960   0.00000  Uiso   1.00
O262   O     0.17148   0.41619   0.94282   0.00000  Uiso   1.00
O263   O     0.21470   0.37718   0.96316   0.00000  Uiso   1.00
N264   N     0.29255   0.09216   0.03949   0.00000  Uiso   1.00
O265   O     0.26914   0.11454   0.05490   0.00000  Uiso   1.00
O266   O     0.32649   0.10206   0.03622   0.00000  Uiso   1.00
N267   N     0.09220   0.29248   0.96051   0.00000  Uiso   1.00
O268   O     0.11454   0.26904   0.94509   0.00000  Uiso   1.00
O269   O     0.10214   0.32641   0.96379   0.00000  Uiso   1.00
N270   N     0.41035   0.20285   0.04037   0.00000  Uiso   1.00
O271   O     0.41602   0.17153   0.05706   0.00000  Uiso   1.00
O272   O     0.37715   0.21492   0.03685   0.00000  Uiso   1.00
N273   N     0.29723   0.08959   0.95961   0.00000  Uiso   1.00
O274   O     0.32851   0.08384   0.94285   0.00000  Uiso   1.00
O275   O     0.28525   0.12282   0.96316   0.00000  Uiso   1.00
N276   N     0.20745   0.40783   0.03948   0.00000  Uiso   1.00
O277   O     0.23087   0.38546   0.05490   0.00000  Uiso   1.00
O278   O     0.17351   0.39793   0.03621   0.00000  Uiso   1.00
N279   N     0.40780   0.20754   0.96050   0.00000  Uiso   1.00
O280   O     0.38546   0.23098   0.94507   0.00000  Uiso   1.00
O281   O     0.39785   0.17361   0.96378   0.00000  Uiso   1.00
N282   N     0.08964   0.29716   0.04038   0.00000  Uiso   1.00
O283   O     0.08396   0.32848   0.05708   0.00000  Uiso   1.00
O284   O     0.12284   0.28511   0.03686   0.00000  Uiso   1.00
N285   N     0.46296   0.30532   0.39636   0.00000  Uiso   1.00
O286   O     0.47899   0.32549   0.37033   0.00000  Uiso   1.00
O287   O     0.42758   0.30584   0.39907   0.00000  Uiso   1.00
N288   N     0.00874   0.18406   0.60378   0.00000  Uiso   1.00
O289   O     0.03388   0.17861   0.62982   0.00000  Uiso   1.00
O290   O     0.48238   0.16056   0.60012   0.00000  Uiso   1.00
N291   N     0.19453   0.46312   0.39638   0.00000  Uiso   1.00
O292   O     0.17451   0.47912   0.37022   0.00000  Uiso   1.00
O293   O     0.19375   0.42776   0.39934   0.00000  Uiso   1.00
N294   N     0.31596   0.00855   0.60380   0.00000  Uiso   1.00
O295   O     0.32150   0.03371   0.62979   0.00000  Uiso   1.00
O296   O     0.33932   0.48207   0.60026   0.00000  Uiso   1.00
N297   N     0.03705   0.19468   0.39636   0.00000  Uiso   1.00
O298   O     0.02102   0.17450   0.37034   0.00000  Uiso   1.00
O299   O     0.07243   0.19419   0.39905   0.00000  Uiso   1.00
N300   N     0.49126   0.31594   0.60378   0.00000  Uiso   1.00
O301   O     0.46612   0.32139   0.62983   0.00000  Uiso   1.00
O302   O     0.01762   0.33944   0.60012   0.00000  Uiso   1.00
N303   N     0.30547   0.03687   0.39636   0.00000  Uiso   1.00
O304   O     0.32553   0.02082   0.37028   0.00000  Uiso   1.00
O305   O     0.30619   0.07224   0.39920   0.00000  Uiso   1.00
N306   N     0.18404   0.49141   0.60383   0.00000  Uiso   1.00
O307   O     0.17852   0.46616   0.62973   0.00000  Uiso   1.00
O308   O     0.16072   0.01793   0.60044   0.00000  Uiso   1.00
N309   N     0.26369   0.06514   0.89633   0.00000  Uiso   1.00
O310   O     0.28936   0.06911   0.87058   0.00000  Uiso   1.00
O311   O     0.23924   0.09055   0.90038   0.00000  Uiso   1.00
N312   N     0.20970   0.44700   0.10372   0.00000  Uiso   1.00
O313   O     0.22492   0.42527   0.12883   0.00000  Uiso   1.00
O314   O     0.17433   0.44936   0.10243   0.00000  Uiso   1.00
N315   N     0.44699   0.20972   0.89628   0.00000  Uiso   1.00
O316   O     0.42527   0.22493   0.87115   0.00000  Uiso   1.00
O317   O     0.44934   0.17434   0.89759   0.00000  Uiso   1.00
N318   N     0.06513   0.26373   0.10368   0.00000  Uiso   1.00
O319   O     0.06909   0.28944   0.12938   0.00000  Uiso   1.00
O320   O     0.09053   0.23925   0.09972   0.00000  Uiso   1.00
N321   N     0.23632   0.43486   0.89634   0.00000  Uiso   1.00
O322   O     0.21067   0.43088   0.87056   0.00000  Uiso   1.00
O323   O     0.26076   0.40944   0.90041   0.00000  Uiso   1.00
N324   N     0.29029   0.05300   0.10373   0.00000  Uiso   1.00
O325   O     0.27507   0.07474   0.12883   0.00000  Uiso   1.00
O326   O     0.32567   0.05064   0.10245   0.00000  Uiso   1.00
N327   N     0.05301   0.29029   0.89628   0.00000  Uiso   1.00
O328   O     0.07473   0.27507   0.87116   0.00000  Uiso   1.00
O329   O     0.05066   0.32566   0.89758   0.00000  Uiso   1.00
N330   N     0.43487   0.23627   0.10368   0.00000  Uiso   1.00
O331   O     0.43091   0.21055   0.12938   0.00000  Uiso   1.00
O332   O     0.40948   0.26075   0.09973   0.00000  Uiso   1.00
Zn333  Zn    0.70660  -0.00000   0.21735   0.00000  Uiso   1.00
Zn334  Zn    0.79341  -0.00000   0.78265   0.00000  Uiso   1.00
Zn335  Zn    0.50000   0.20659   0.21735   0.00000  Uiso   1.00
Zn336  Zn    0.50000   0.29340   0.78265   0.00000  Uiso   1.00
Zn337  Zn    0.79341  -0.00000   0.21735   0.00000  Uiso   1.00
Zn338  Zn    0.70660  -0.00000   0.78265   0.00000  Uiso   1.00
Zn339  Zn    0.50000   0.29340   0.21735   0.00000  Uiso   1.00
Zn340  Zn    0.50000   0.20659   0.78265   0.00000  Uiso   1.00
Zn341  Zn    0.95660   0.25000   0.71735   0.00000  Uiso   1.00
Zn342  Zn    0.54341   0.25000   0.28265   0.00000  Uiso   1.00
Zn343  Zn    0.75000   0.45659   0.71735   0.00000  Uiso   1.00
Zn344  Zn    0.75000   0.04340   0.28265   0.00000  Uiso   1.00
Zn345  Zn    0.54341   0.25000   0.71735   0.00000  Uiso   1.00
Zn346  Zn    0.95660   0.25000   0.28265   0.00000  Uiso   1.00
Zn347  Zn    0.75000   0.04340   0.71735   0.00000  Uiso   1.00
Zn348  Zn    0.75000   0.45659   0.28265   0.00000  Uiso   1.00
C349   C     0.98345   0.27885   0.41804   0.00000  Uiso   1.00
C350   C     0.50753   0.21762   0.58227   0.00000  Uiso   1.00
C351   C     0.72106   0.48358   0.41804   0.00000  Uiso   1.00
C352   C     0.78241   0.00742   0.58227   0.00000  Uiso   1.00
C353   C     0.51656   0.22115   0.41804   0.00000  Uiso   1.00
C354   C     0.99247   0.28238   0.58227   0.00000  Uiso   1.00
C355   C     0.77892   0.01645   0.41804   0.00000  Uiso   1.00
C356   C     0.71758   0.49259   0.58227   0.00000  Uiso   1.00
C357   C     0.76013   0.03167   0.91772   0.00000  Uiso   1.00
C358   C     0.73150   0.47232   0.08193   0.00000  Uiso   1.00
C359   C     0.97232   0.23151   0.91807   0.00000  Uiso   1.00
C360   C     0.53167   0.26014   0.08228   0.00000  Uiso   1.00
C361   C     0.73987   0.46833   0.91772   0.00000  Uiso   1.00
C362   C     0.76849   0.02768   0.08193   0.00000  Uiso   1.00
C363   C     0.52768   0.26849   0.91807   0.00000  Uiso   1.00
C364   C     0.96833   0.23986   0.08228   0.00000  Uiso   1.00
C365   C     0.50000   0.25000   0.39809   0.00000  Uiso   1.00
C366   C     0.50000   0.25000   0.60214   0.00000  Uiso   1.00
C367   C     0.75000   0.00001   0.39808   0.00000  Uiso   1.00
C368   C     0.75000   0.00000   0.60213   0.00000  Uiso   1.00
C369   C     0.75000  -0.00000   0.89784   0.00000  Uiso   1.00
C370   C     0.75000  -0.00000   0.10187   0.00000  Uiso   1.00
C371   C     0.50000   0.25000   0.89813   0.00000  Uiso   1.00
C372   C     0.50000   0.25000   0.10216   0.00000  Uiso   1.00
O373   O     0.75000  -0.00000   0.25000   0.00000  Uiso   1.00
O374   O     0.75000  -0.00000   0.75000   0.00000  Uiso   1.00
O375   O     0.50000   0.25000   0.25000   0.00000  Uiso   1.00
O376   O     0.50000   0.25000   0.75000   0.00000  Uiso   1.00
O377   O     0.75000   0.46963   0.33755   0.00000  Uiso   1.00
O378   O     0.75000   0.03036   0.66245   0.00000  Uiso   1.00
O379   O     0.53037   0.25000   0.33755   0.00000  Uiso   1.00
O380   O     0.96964   0.25000   0.66245   0.00000  Uiso   1.00
O381   O     0.75000   0.03036   0.33755   0.00000  Uiso   1.00
O382   O     0.75000   0.46963   0.66245   0.00000  Uiso   1.00
O383   O     0.96964   0.25000   0.33755   0.00000  Uiso   1.00
O384   O     0.53037   0.25000   0.66245   0.00000  Uiso   1.00
O385   O     0.50000   0.21963   0.83755   0.00000  Uiso   1.00
O386   O     0.50000   0.28036   0.16245   0.00000  Uiso   1.00
O387   O     0.78037  -0.00000   0.83755   0.00000  Uiso   1.00
O388   O     0.71964  -0.00000   0.16245   0.00000  Uiso   1.00
O389   O     0.50000   0.28036   0.83755   0.00000  Uiso   1.00
O390   O     0.50000   0.21963   0.16245   0.00000  Uiso   1.00
O391   O     0.71964  -0.00000   0.83755   0.00000  Uiso   1.00
O392   O     0.78037  -0.00000   0.16245   0.00000  Uiso   1.00
O393   O     0.70725   0.07307   0.27302   0.00000  Uiso   1.00
O394   O     0.79276   0.42692   0.72698   0.00000  Uiso   1.00
O395   O     0.92693   0.20724   0.27302   0.00000  Uiso   1.00
O396   O     0.57308   0.29275   0.72698   0.00000  Uiso   1.00
O397   O     0.79276   0.42692   0.27302   0.00000  Uiso   1.00
O398   O     0.70725   0.07307   0.72698   0.00000  Uiso   1.00
O399   O     0.57308   0.29275   0.27302   0.00000  Uiso   1.00
O400   O     0.92693   0.20724   0.72698   0.00000  Uiso   1.00
O401   O     0.70725   0.42692   0.72698   0.00000  Uiso   1.00
O402   O     0.79276   0.07307   0.27302   0.00000  Uiso   1.00
O403   O     0.92693   0.29275   0.72698   0.00000  Uiso   1.00
O404   O     0.57308   0.20724   0.27302   0.00000  Uiso   1.00
O405   O     0.79276   0.07307   0.72698   0.00000  Uiso   1.00
O406   O     0.70725   0.42692   0.27302   0.00000  Uiso   1.00
O407   O     0.57308   0.20724   0.72698   0.00000  Uiso   1.00
O408   O     0.92693   0.29275   0.27302   0.00000  Uiso   1.00
O409   O     0.95725   0.32307   0.77302   0.00000  Uiso   1.00
O410   O     0.54276   0.17692   0.22698   0.00000  Uiso   1.00
O411   O     0.67693   0.45724   0.77302   0.00000  Uiso   1.00
O412   O     0.82308   0.04275   0.22698   0.00000  Uiso   1.00
O413   O     0.54276   0.17692   0.77302   0.00000  Uiso   1.00
O414   O     0.95725   0.32307   0.22698   0.00000  Uiso   1.00
O415   O     0.82308   0.04275   0.77302   0.00000  Uiso   1.00
O416   O     0.67693   0.45724   0.22698   0.00000  Uiso   1.00
O417   O     0.95725   0.17692   0.22698   0.00000  Uiso   1.00
O418   O     0.54276   0.32307   0.77302   0.00000  Uiso   1.00
O419   O     0.67693   0.04275   0.22698   0.00000  Uiso   1.00
O420   O     0.82308   0.45724   0.77302   0.00000  Uiso   1.00
O421   O     0.54276   0.32307   0.22698   0.00000  Uiso   1.00
O422   O     0.95725   0.17692   0.77302   0.00000  Uiso   1.00
O423   O     0.82308   0.45724   0.22698   0.00000  Uiso   1.00
O424   O     0.67693   0.04275   0.77302   0.00000  Uiso   1.00
C425   C     0.52464   0.18777   0.47987   0.00000  Uiso   1.00
C426   C     0.97598   0.31246   0.52052   0.00000  Uiso   1.00
C427   C     0.81237   0.02434   0.47986   0.00000  Uiso   1.00
C428   C     0.68736   0.47638   0.52049   0.00000  Uiso   1.00
C429   C     0.97536   0.31224   0.47987   0.00000  Uiso   1.00
C430   C     0.52402   0.18754   0.52052   0.00000  Uiso   1.00
C431   C     0.68758   0.47577   0.47984   0.00000  Uiso   1.00
C432   C     0.81259   0.02372   0.52051   0.00000  Uiso   1.00
C433   C     0.72076   0.43980   0.97938   0.00000  Uiso   1.00
C434   C     0.77974   0.06003   0.02001   0.00000  Uiso   1.00
C435   C     0.56005   0.27971   0.97998   0.00000  Uiso   1.00
C436   C     0.93977   0.22081   0.02061   0.00000  Uiso   1.00
C437   C     0.77923   0.06020   0.97938   0.00000  Uiso   1.00
C438   C     0.72026   0.43997   0.02001   0.00000  Uiso   1.00
C439   C     0.93995   0.22030   0.97998   0.00000  Uiso   1.00
C440   C     0.56023   0.27920   0.02062   0.00000  Uiso   1.00
C441   C     0.75000   0.00000   0.35576   0.00000  Uiso   1.00
C442   C     0.75000  -0.00000   0.64432   0.00000  Uiso   1.00
C443   C     0.50000   0.25000   0.35576   0.00000  Uiso   1.00
C444   C     0.50000   0.25000   0.64432   0.00000  Uiso   1.00
C445   C     0.50000   0.25000   0.85577   0.00000  Uiso   1.00
C446   C     0.50000   0.25000   0.14432   0.00000  Uiso   1.00
C447   C     0.75000  -0.00000   0.85568   0.00000  Uiso   1.00
C448   C     0.75000  -0.00000   0.14423   0.00000  Uiso   1.00
C449   C     0.67993   0.07006   0.25001   0.00000  Uiso   1.00
C450   C     0.82007   0.42994   0.74999   0.00000  Uiso   1.00
C451   C     0.92993   0.17995   0.24998   0.00000  Uiso   1.00
C452   C     0.57007   0.32005   0.75002   0.00000  Uiso   1.00
C453   C     0.82007   0.42994   0.25001   0.00000  Uiso   1.00
C454   C     0.67993   0.07006   0.74999   0.00000  Uiso   1.00
C455   C     0.57007   0.32005   0.24998   0.00000  Uiso   1.00
C456   C     0.92993   0.17995   0.75002   0.00000  Uiso   1.00
C457   C     0.67994   0.42993   0.75001   0.00000  Uiso   1.00
C458   C     0.82006   0.07007   0.24999   0.00000  Uiso   1.00
C459   C     0.92994   0.32008   0.74998   0.00000  Uiso   1.00
C460   C     0.57005   0.17992   0.25002   0.00000  Uiso   1.00
C461   C     0.82006   0.07007   0.75001   0.00000  Uiso   1.00
C462   C     0.67994   0.42993   0.24999   0.00000  Uiso   1.00
C463   C     0.57006   0.17992   0.74998   0.00000  Uiso   1.00
C464   C     0.92995   0.32007   0.25002   0.00000  Uiso   1.00
C465   C     0.62258   0.40415   0.22394   0.00000  Uiso   1.00
C466   C     0.87747   0.09580   0.77600   0.00000  Uiso   1.00
C467   C     0.59537   0.12209   0.22464   0.00000  Uiso   1.00
C468   C     0.90468   0.37795   0.77530   0.00000  Uiso   1.00
C469   C     0.87741   0.09585   0.22393   0.00000  Uiso   1.00
C470   C     0.62253   0.40420   0.77600   0.00000  Uiso   1.00
C471   C     0.90464   0.37791   0.22464   0.00000  Uiso   1.00
C472   C     0.59532   0.12205   0.77530   0.00000  Uiso   1.00
C473   C     0.62205   0.09532   0.77530   0.00000  Uiso   1.00
C474   C     0.87791   0.40463   0.22463   0.00000  Uiso   1.00
C475   C     0.59580   0.37746   0.77600   0.00000  Uiso   1.00
C476   C     0.90415   0.12258   0.22393   0.00000  Uiso   1.00
C477   C     0.87795   0.40468   0.77530   0.00000  Uiso   1.00
C478   C     0.62209   0.09537   0.22463   0.00000  Uiso   1.00
C479   C     0.90420   0.12254   0.77600   0.00000  Uiso   1.00
C480   C     0.59585   0.37742   0.22393   0.00000  Uiso   1.00
C481   C     0.87245   0.15428   0.72414   0.00000  Uiso   1.00
C482   C     0.62750   0.34577   0.27593   0.00000  Uiso   1.00
C483   C     0.84539   0.37211   0.72459   0.00000  Uiso   1.00
C484   C     0.65456   0.12784   0.27548   0.00000  Uiso   1.00
C485   C     0.62755   0.34572   0.72414   0.00000  Uiso   1.00
C486   C     0.87250   0.15423   0.27594   0.00000  Uiso   1.00
C487   C     0.65461   0.12789   0.72459   0.00000  Uiso   1.00
C488   C     0.84544   0.37216   0.27548   0.00000  Uiso   1.00
C489   C     0.87217   0.34544   0.27549   0.00000  Uiso   1.00
C490   C     0.62788   0.15461   0.72458   0.00000  Uiso   1.00
C491   C     0.84578   0.12749   0.27595   0.00000  Uiso   1.00
C492   C     0.65427   0.37246   0.72413   0.00000  Uiso   1.00
C493   C     0.62783   0.15456   0.27549   0.00000  Uiso   1.00
C494   C     0.87212   0.34539   0.72458   0.00000  Uiso   1.00
C495   C     0.65422   0.37251   0.27595   0.00000  Uiso   1.00
C496   C     0.84573   0.12754   0.72413   0.00000  Uiso   1.00
H497   H     0.62029   0.42654   0.20356   0.00000  Uiso   1.00
H498   H     0.87981   0.07337   0.79631   0.00000  Uiso   1.00
H499   H     0.57263   0.11944   0.20474   0.00000  Uiso   1.00
H500   H     0.92745   0.38064   0.79514   0.00000  Uiso   1.00
H501   H     0.87971   0.07346   0.20356   0.00000  Uiso   1.00
H502   H     0.62019   0.42663   0.79631   0.00000  Uiso   1.00
H503   H     0.92737   0.38055   0.20474   0.00000  Uiso   1.00
H504   H     0.57255   0.11936   0.79513   0.00000  Uiso   1.00
H505   H     0.61936   0.07256   0.79514   0.00000  Uiso   1.00
H506   H     0.88056   0.42736   0.20474   0.00000  Uiso   1.00
H507   H     0.57337   0.37980   0.79632   0.00000  Uiso   1.00
H508   H     0.92654   0.12028   0.20356   0.00000  Uiso   1.00
H509   H     0.88064   0.42744   0.79514   0.00000  Uiso   1.00
H510   H     0.61944   0.07264   0.20474   0.00000  Uiso   1.00
H511   H     0.92663   0.12020   0.79632   0.00000  Uiso   1.00
H512   H     0.57346   0.37971   0.20356   0.00000  Uiso   1.00
H513   H     0.87010   0.17671   0.70383   0.00000  Uiso   1.00
H514   H     0.62981   0.32338   0.29630   0.00000  Uiso   1.00
H515   H     0.82262   0.36943   0.70475   0.00000  Uiso   1.00
H516   H     0.67729   0.13049   0.29537   0.00000  Uiso   1.00
H517   H     0.62990   0.32328   0.70383   0.00000  Uiso   1.00
H518   H     0.87019   0.17662   0.29630   0.00000  Uiso   1.00
H519   H     0.67738   0.13057   0.70475   0.00000  Uiso   1.00
H520   H     0.82271   0.36951   0.29537   0.00000  Uiso   1.00
H521   H     0.86953   0.32272   0.29540   0.00000  Uiso   1.00
H522   H     0.63056   0.17737   0.70474   0.00000  Uiso   1.00
H523   H     0.82339   0.12978   0.29632   0.00000  Uiso   1.00
H524   H     0.67671   0.37012   0.70381   0.00000  Uiso   1.00
H525   H     0.63047   0.17728   0.29540   0.00000  Uiso   1.00
H526   H     0.86944   0.32263   0.70474   0.00000  Uiso   1.00
H527   H     0.67661   0.37022   0.29632   0.00000  Uiso   1.00
H528   H     0.82329   0.12988   0.70381   0.00000  Uiso   1.00
C529   C     0.51375   0.21925   0.45899   0.00000  Uiso   1.00
C530   C     0.98919   0.28188   0.54133   0.00000  Uiso   1.00
C531   C     0.78081   0.01362   0.45898   0.00000  Uiso   1.00
C532   C     0.71803   0.48937   0.54133   0.00000  Uiso   1.00
C533   C     0.98626   0.28075   0.45899   0.00000  Uiso   1.00
C534   C     0.51081   0.21812   0.54133   0.00000  Uiso   1.00
C535   C     0.71916   0.48644   0.45898   0.00000  Uiso   1.00
C536   C     0.78193   0.01068   0.54133   0.00000  Uiso   1.00
C537   C     0.73657   0.46914   0.95863   0.00000  Uiso   1.00
C538   C     0.76611   0.02963   0.04096   0.00000  Uiso   1.00
C539   C     0.52964   0.26610   0.95904   0.00000  Uiso   1.00
C540   C     0.96913   0.23659   0.04137   0.00000  Uiso   1.00
C541   C     0.76343   0.03086   0.95863   0.00000  Uiso   1.00
C542   C     0.73389   0.47037   0.04096   0.00000  Uiso   1.00
C543   C     0.97036   0.23391   0.95904   0.00000  Uiso   1.00
C544   C     0.53087   0.26342   0.04137   0.00000  Uiso   1.00
C545   C     0.59817   0.34810   0.24995   0.00000  Uiso   1.00
C546   C     0.90184   0.15190   0.75005   0.00000  Uiso   1.00
C547   C     0.65184   0.09811   0.25004   0.00000  Uiso   1.00
C548   C     0.84816   0.40189   0.74996   0.00000  Uiso   1.00
C549   C     0.90184   0.15190   0.24995   0.00000  Uiso   1.00
C550   C     0.59816   0.34810   0.75006   0.00000  Uiso   1.00
C551   C     0.84816   0.40189   0.25004   0.00000  Uiso   1.00
C552   C     0.65184   0.09811   0.74996   0.00000  Uiso   1.00
C553   C     0.59810   0.15184   0.74995   0.00000  Uiso   1.00
C554   C     0.90190   0.34816   0.25005   0.00000  Uiso   1.00
C555   C     0.65189   0.40184   0.75004   0.00000  Uiso   1.00
C556   C     0.84811   0.09815   0.24996   0.00000  Uiso   1.00
C557   C     0.90190   0.34816   0.74995   0.00000  Uiso   1.00
C558   C     0.59810   0.15184   0.25005   0.00000  Uiso   1.00
C559   C     0.84811   0.09816   0.75004   0.00000  Uiso   1.00
C560   C     0.65189   0.40185   0.24996   0.00000  Uiso   1.00
C561   C     0.50000   0.25000   0.47957   0.00000  Uiso   1.00
C562   C     0.50000   0.25000   0.52073   0.00000  Uiso   1.00
C563   C     0.74998   0.00003   0.47957   0.00000  Uiso   1.00
C564   C     0.74998   0.00003   0.52073   0.00000  Uiso   1.00
C565   C     0.75000  -0.00000   0.97924   0.00000  Uiso   1.00
C566   C     0.75000  -0.00000   0.02039   0.00000  Uiso   1.00
C567   C     0.50000   0.25000   0.97961   0.00000  Uiso   1.00
C568   C     0.50000   0.25000   0.02076   0.00000  Uiso   1.00
N569   N     0.53441   0.15465   0.46026   0.00000  Uiso   1.00
O570   O     0.50913   0.13504   0.44391   0.00000  Uiso   1.00
O571   O     0.56712   0.14135   0.46390   0.00000  Uiso   1.00
N572   N     0.96080   0.34341   0.54023   0.00000  Uiso   1.00
O573   O     0.92913   0.34062   0.55700   0.00000  Uiso   1.00
O574   O     0.97585   0.37537   0.53662   0.00000  Uiso   1.00
N575   N     0.84555   0.03387   0.46024   0.00000  Uiso   1.00
O576   O     0.86492   0.00847   0.44381   0.00000  Uiso   1.00
O577   O     0.85914   0.06647   0.46392   0.00000  Uiso   1.00
N578   N     0.65625   0.46147   0.54018   0.00000  Uiso   1.00
O579   O     0.65868   0.42969   0.55678   0.00000  Uiso   1.00
O580   O     0.62446   0.47687   0.53664   0.00000  Uiso   1.00
N581   N     0.96561   0.34536   0.46027   0.00000  Uiso   1.00
O582   O     0.99089   0.36496   0.44391   0.00000  Uiso   1.00
O583   O     0.93290   0.35867   0.46391   0.00000  Uiso   1.00
N584   N     0.53919   0.15659   0.54023   0.00000  Uiso   1.00
O585   O     0.57087   0.15937   0.55699   0.00000  Uiso   1.00
O586   O     0.52414   0.12463   0.53661   0.00000  Uiso   1.00
N587   N     0.65437   0.46633   0.46022   0.00000  Uiso   1.00
O588   O     0.63512   0.49178   0.44370   0.00000  Uiso   1.00
O589   O     0.64066   0.43378   0.46393   0.00000  Uiso   1.00
N590   N     0.84365   0.03870   0.54021   0.00000  Uiso   1.00
O591   O     0.84112   0.07042   0.55691   0.00000  Uiso   1.00
O592   O     0.87550   0.02342   0.53662   0.00000  Uiso   1.00
N593   N     0.70274   0.41042   0.95960   0.00000  Uiso   1.00
O594   O     0.67148   0.41619   0.94282   0.00000  Uiso   1.00
O595   O     0.71470   0.37718   0.96316   0.00000  Uiso   1.00
N596   N     0.79255   0.09216   0.03949   0.00000  Uiso   1.00
O597   O     0.76914   0.11454   0.05490   0.00000  Uiso   1.00
O598   O     0.82649   0.10206   0.03622   0.00000  Uiso   1.00
N599   N     0.59220   0.29248   0.96051   0.00000  Uiso   1.00
O600   O     0.61454   0.26904   0.94509   0.00000  Uiso   1.00
O601   O     0.60214   0.32641   0.96379   0.00000  Uiso   1.00
N602   N     0.91035   0.20285   0.04037   0.00000  Uiso   1.00
O603   O     0.91602   0.17153   0.05706   0.00000  Uiso   1.00
O604   O     0.87715   0.21492   0.03685   0.00000  Uiso   1.00
N605   N     0.79723   0.08959   0.95961   0.00000  Uiso   1.00
O606   O     0.82851   0.08384   0.94285   0.00000  Uiso   1.00
O607   O     0.78525   0.12282   0.96316   0.00000  Uiso   1.00
N608   N     0.70745   0.40783   0.03948   0.00000  Uiso   1.00
O609   O     0.73087   0.38546   0.05490   0.00000  Uiso   1.00
O610   O     0.67351   0.39793   0.03621   0.00000  Uiso   1.00
N611   N     0.90780   0.20754   0.96050   0.00000  Uiso   1.00
O612   O     0.88546   0.23098   0.94507   0.00000  Uiso   1.00
O613   O     0.89785   0.17361   0.96378   0.00000  Uiso   1.00
N614   N     0.58964   0.29716   0.04038   0.00000  Uiso   1.00
O615   O     0.58396   0.32848   0.05708   0.00000  Uiso   1.00
O616   O     0.62284   0.28511   0.03686   0.00000  Uiso   1.00
N617   N     0.96296   0.30532   0.39636   0.00000  Uiso   1.00
O618   O     0.97899   0.32549   0.37033   0.00000  Uiso   1.00
O619   O     0.92758   0.30584   0.39907   0.00000  Uiso   1.00
N620   N     0.50874   0.18406   0.60378   0.00000  Uiso   1.00
O621   O     0.53388   0.17861   0.62982   0.00000  Uiso   1.00
O622   O     0.98238   0.16056   0.60012   0.00000  Uiso   1.00
N623   N     0.69453   0.46312   0.39638   0.00000  Uiso   1.00
O624   O     0.67451   0.47912   0.37022   0.00000  Uiso   1.00
O625   O     0.69375   0.42776   0.39934   0.00000  Uiso   1.00
N626   N     0.81596   0.00855   0.60380   0.00000  Uiso   1.00
O627   O     0.82150   0.03371   0.62979   0.00000  Uiso   1.00
O628   O     0.83932   0.48207   0.60026   0.00000  Uiso   1.00
N629   N     0.53705   0.19468   0.39636   0.00000  Uiso   1.00
O630   O     0.52102   0.17450   0.37034   0.00000  Uiso   1.00
O631   O     0.57243   0.19419   0.39905   0.00000  Uiso   1.00
N632   N     0.99126   0.31594   0.60378   0.00000  Uiso   1.00
O633   O     0.96612   0.32139   0.62983   0.00000  Uiso   1.00
O634   O     0.51762   0.33944   0.60012   0.00000  Uiso   1.00
N635   N     0.80547   0.03687   0.39636   0.00000  Uiso   1.00
O636   O     0.82553   0.02082   0.37028   0.00000  Uiso   1.00
O637   O     0.80619   0.07224   0.39920   0.00000  Uiso   1.00
N638   N     0.68404   0.49141   0.60383   0.00000  Uiso   1.00
O639   O     0.67852   0.46616   0.62973   0.00000  Uiso   1.00
O640   O     0.66072   0.01793   0.60044   0.00000  Uiso   1.00
N641   N     0.76369   0.06514   0.89633   0.00000  Uiso   1.00
O642   O     0.78936   0.06911   0.87058   0.00000  Uiso   1.00
O643   O     0.73924   0.09055   0.90038   0.00000  Uiso   1.00
N644   N     0.70970   0.44700   0.10372   0.00000  Uiso   1.00
O645   O     0.72492   0.42527   0.12883   0.00000  Uiso   1.00
O646   O     0.67433   0.44936   0.10243   0.00000  Uiso   1.00
N647   N     0.94699   0.20972   0.89628   0.00000  Uiso   1.00
O648   O     0.92527   0.22493   0.87115   0.00000  Uiso   1.00
O649   O     0.94934   0.17434   0.89759   0.00000  Uiso   1.00
N650   N     0.56513   0.26373   0.10368   0.00000  Uiso   1.00
O651   O     0.56909   0.28944   0.12938   0.00000  Uiso   1.00
O652   O     0.59053   0.23925   0.09972   0.00000  Uiso   1.00
N653   N     0.73632   0.43486   0.89634   0.00000  Uiso   1.00
O654   O     0.71067   0.43088   0.87056   0.00000  Uiso   1.00
O655   O     0.76076   0.40944   0.90041   0.00000  Uiso   1.00
N656   N     0.79029   0.05300   0.10373   0.00000  Uiso   1.00
O657   O     0.77507   0.07474   0.12883   0.00000  Uiso   1.00
O658   O     0.82567   0.05064   0.10245   0.00000  Uiso   1.00
N659   N     0.55301   0.29029   0.89628   0.00000  Uiso   1.00
O660   O     0.57473   0.27507   0.87116   0.00000  Uiso   1.00
O661   O     0.55066   0.32566   0.89758   0.00000  Uiso   1.00
N662   N     0.93487   0.23627   0.10368   0.00000  Uiso   1.00
O663   O     0.93091   0.21055   0.12938   0.00000  Uiso   1.00
O664   O     0.90948   0.26075   0.09973   0.00000  Uiso   1.00
Zn665  Zn    0.20660   0.50000   0.21735   0.00000  Uiso   1.00
Zn666  Zn    0.29341   0.50000   0.78265   0.00000  Uiso   1.00
Zn667  Zn    0.00000   0.70659   0.21735   0.00000  Uiso   1.00
Zn668  Zn    0.00000   0.79340   0.78265   0.00000  Uiso   1.00
Zn669  Zn    0.29341   0.50000   0.21735   0.00000  Uiso   1.00
Zn670  Zn    0.20660   0.50000   0.78265   0.00000  Uiso   1.00
Zn671  Zn    0.00000   0.79340   0.21735   0.00000  Uiso   1.00
Zn672  Zn    0.00000   0.70659   0.78265   0.00000  Uiso   1.00
Zn673  Zn    0.45660   0.75000   0.71735   0.00000  Uiso   1.00
Zn674  Zn    0.04341   0.75000   0.28265   0.00000  Uiso   1.00
Zn675  Zn    0.25000   0.95659   0.71735   0.00000  Uiso   1.00
Zn676  Zn    0.25000   0.54340   0.28265   0.00000  Uiso   1.00
Zn677  Zn    0.04341   0.75000   0.71735   0.00000  Uiso   1.00
Zn678  Zn    0.45660   0.75000   0.28265   0.00000  Uiso   1.00
Zn679  Zn    0.25000   0.54340   0.71735   0.00000  Uiso   1.00
Zn680  Zn    0.25000   0.95659   0.28265   0.00000  Uiso   1.00
C681   C     0.48345   0.77885   0.41804   0.00000  Uiso   1.00
C682   C     0.00753   0.71762   0.58227   0.00000  Uiso   1.00
C683   C     0.22106   0.98358   0.41804   0.00000  Uiso   1.00
C684   C     0.28241   0.50742   0.58227   0.00000  Uiso   1.00
C685   C     0.01656   0.72115   0.41804   0.00000  Uiso   1.00
C686   C     0.49247   0.78238   0.58227   0.00000  Uiso   1.00
C687   C     0.27892   0.51645   0.41804   0.00000  Uiso   1.00
C688   C     0.21758   0.99259   0.58227   0.00000  Uiso   1.00
C689   C     0.26013   0.53167   0.91772   0.00000  Uiso   1.00
C690   C     0.23150   0.97232   0.08193   0.00000  Uiso   1.00
C691   C     0.47232   0.73151   0.91807   0.00000  Uiso   1.00
C692   C     0.03167   0.76014   0.08228   0.00000  Uiso   1.00
C693   C     0.23987   0.96833   0.91772   0.00000  Uiso   1.00
C694   C     0.26849   0.52768   0.08193   0.00000  Uiso   1.00
C695   C     0.02768   0.76849   0.91807   0.00000  Uiso   1.00
C696   C     0.46833   0.73986   0.08228   0.00000  Uiso   1.00
C697   C     0.00000   0.75000   0.39809   0.00000  Uiso   1.00
C698   C    -0.00000   0.75000   0.60214   0.00000  Uiso   1.00
C699   C     0.25000   0.50001   0.39808   0.00000  Uiso   1.00
C700   C     0.25000   0.50000   0.60213   0.00000  Uiso   1.00
C701   C     0.25000   0.50000   0.89784   0.00000  Uiso   1.00
C702   C     0.25000   0.50000   0.10187   0.00000  Uiso   1.00
C703   C     0.00000   0.75000   0.89813   0.00000  Uiso   1.00
C704   C     0.00000   0.75000   0.10216   0.00000  Uiso   1.00
O705   O     0.25000   0.50000   0.25000   0.00000  Uiso   1.00
O706   O     0.25000   0.50000   0.75000   0.00000  Uiso   1.00
O707   O     0.00000   0.75000   0.25000   0.00000  Uiso   1.00
O708   O     0.00000   0.75000   0.75000   0.00000  Uiso   1.00
O709   O     0.25000   0.96963   0.33755   0.00000  Uiso   1.00
O710   O     0.25000   0.53036   0.66245   0.00000  Uiso   1.00
O711   O     0.03037   0.75000   0.33755   0.00000  Uiso   1.00
O712   O     0.46964   0.75000   0.66245   0.00000  Uiso   1.00
O713   O     0.25000   0.53036   0.33755   0.00000  Uiso   1.00
O714   O     0.25000   0.96963   0.66245   0.00000  Uiso   1.00
O715   O     0.46964   0.75000   0.33755   0.00000  Uiso   1.00
O716   O     0.03037   0.75000   0.66245   0.00000  Uiso   1.00
O717   O     0.00000   0.71963   0.83755   0.00000  Uiso   1.00
O718   O     0.00000   0.78036   0.16245   0.00000  Uiso   1.00
O719   O     0.28037   0.50000   0.83755   0.00000  Uiso   1.00
O720   O     0.21964   0.50000   0.16245   0.00000  Uiso   1.00
O721   O     0.00000   0.78036   0.83755   0.00000  Uiso   1.00
O722   O     0.00000   0.71963   0.16245   0.00000  Uiso   1.00
O723   O     0.21964   0.50000   0.83755   0.00000  Uiso   1.00
O724   O     0.28037   0.50000   0.16245   0.00000  Uiso   1.00
O725   O     0.20725   0.57307   0.27302   0.00000  Uiso   1.00
O726   O     0.29276   0.92692   0.72698   0.00000  Uiso   1.00
O727   O     0.42693   0.70724   0.27302   0.00000  Uiso   1.00
O728   O     0.07308   0.79275   0.72698   0.00000  Uiso   1.00
O729   O     0.29276   0.92692   0.27302   0.00000  Uiso   1.00
O730   O     0.20725   0.57307   0.72698   0.00000  Uiso   1.00
O731   O     0.07308   0.79275   0.27302   0.00000  Uiso   1.00
O732   O     0.42693   0.70724   0.72698   0.00000  Uiso   1.00
O733   O     0.20725   0.92692   0.72698   0.00000  Uiso   1.00
O734   O     0.29276   0.57307   0.27302   0.00000  Uiso   1.00
O735   O     0.42693   0.79275   0.72698   0.00000  Uiso   1.00
O736   O     0.07308   0.70724   0.27302   0.00000  Uiso   1.00
O737   O     0.29276   0.57307   0.72698   0.00000  Uiso   1.00
O738   O     0.20725   0.92692   0.27302   0.00000  Uiso   1.00
O739   O     0.07308   0.70724   0.72698   0.00000  Uiso   1.00
O740   O     0.42693   0.79275   0.27302   0.00000  Uiso   1.00
O741   O     0.45725   0.82307   0.77302   0.00000  Uiso   1.00
O742   O     0.04276   0.67692   0.22698   0.00000  Uiso   1.00
O743   O     0.17693   0.95724   0.77302   0.00000  Uiso   1.00
O744   O     0.32308   0.54275   0.22698   0.00000  Uiso   1.00
O745   O     0.04276   0.67692   0.77302   0.00000  Uiso   1.00
O746   O     0.45725   0.82307   0.22698   0.00000  Uiso   1.00
O747   O     0.32308   0.54275   0.77302   0.00000  Uiso   1.00
O748   O     0.17693   0.95724   0.22698   0.00000  Uiso   1.00
O749   O     0.45725   0.67692   0.22698   0.00000  Uiso   1.00
O750   O     0.04276   0.82307   0.77302   0.00000  Uiso   1.00
O751   O     0.17693   0.54275   0.22698   0.00000  Uiso   1.00
O752   O     0.32308   0.95724   0.77302   0.00000  Uiso   1.00
O753   O     0.04276   0.82307   0.22698   0.00000  Uiso   1.00
O754   O     0.45725   0.67692   0.77302   0.00000  Uiso   1.00
O755   O     0.32308   0.95724   0.22698   0.00000  Uiso   1.00
O756   O     0.17693   0.54275   0.77302   0.00000  Uiso   1.00
C757   C     0.02464   0.68777   0.47987   0.00000  Uiso   1.00
C758   C     0.47598   0.81246   0.52052   0.00000  Uiso   1.00
C759   C     0.31237   0.52434   0.47986   0.00000  Uiso   1.00
C760   C     0.18736   0.97638   0.52049   0.00000  Uiso   1.00
C761   C     0.47536   0.81224   0.47987   0.00000  Uiso   1.00
C762   C     0.02402   0.68754   0.52052   0.00000  Uiso   1.00
C763   C     0.18758   0.97577   0.47984   0.00000  Uiso   1.00
C764   C     0.31259   0.52372   0.52051   0.00000  Uiso   1.00
C765   C     0.22076   0.93980   0.97938   0.00000  Uiso   1.00
C766   C     0.27974   0.56003   0.02001   0.00000  Uiso   1.00
C767   C     0.06005   0.77971   0.97998   0.00000  Uiso   1.00
C768   C     0.43977   0.72081   0.02061   0.00000  Uiso   1.00
C769   C     0.27923   0.56020   0.97938   0.00000  Uiso   1.00
C770   C     0.22026   0.93997   0.02001   0.00000  Uiso   1.00
C771   C     0.43995   0.72030   0.97998   0.00000  Uiso   1.00
C772   C     0.06023   0.77920   0.02062   0.00000  Uiso   1.00
C773   C     0.25000   0.50000   0.35576   0.00000  Uiso   1.00
C774   C     0.25000   0.50000   0.64432   0.00000  Uiso   1.00
C775   C     0.00000   0.75000   0.35576   0.00000  Uiso   1.00
C776   C    -0.00000   0.75000   0.64432   0.00000  Uiso   1.00
C777   C     0.00000   0.75000   0.85577   0.00000  Uiso   1.00
C778   C     0.00000   0.75000   0.14432   0.00000  Uiso   1.00
C779   C     0.25000   0.50000   0.85568   0.00000  Uiso   1.00
C780   C     0.25000   0.50000   0.14423   0.00000  Uiso   1.00
C781   C     0.17993   0.57006   0.25001   0.00000  Uiso   1.00
C782   C     0.32007   0.92994   0.74999   0.00000  Uiso   1.00
C783   C     0.42993   0.67995   0.24998   0.00000  Uiso   1.00
C784   C     0.07007   0.82005   0.75002   0.00000  Uiso   1.00
C785   C     0.32007   0.92994   0.25001   0.00000  Uiso   1.00
C786   C     0.17993   0.57006   0.74999   0.00000  Uiso   1.00
C787   C     0.07007   0.82005   0.24998   0.00000  Uiso   1.00
C788   C     0.42993   0.67995   0.75002   0.00000  Uiso   1.00
C789   C     0.17994   0.92993   0.75001   0.00000  Uiso   1.00
C790   C     0.32006   0.57007   0.24999   0.00000  Uiso   1.00
C791   C     0.42994   0.82008   0.74998   0.00000  Uiso   1.00
C792   C     0.07005   0.67992   0.25002   0.00000  Uiso   1.00
C793   C     0.32006   0.57007   0.75001   0.00000  Uiso   1.00
C794   C     0.17994   0.92993   0.24999   0.00000  Uiso   1.00
C795   C     0.07006   0.67992   0.74998   0.00000  Uiso   1.00
C796   C     0.42995   0.82007   0.25002   0.00000  Uiso   1.00
C797   C     0.12258   0.90415   0.22394   0.00000  Uiso   1.00
C798   C     0.37747   0.59580   0.77600   0.00000  Uiso   1.00
C799   C     0.09537   0.62209   0.22464   0.00000  Uiso   1.00
C800   C     0.40468   0.87795   0.77530   0.00000  Uiso   1.00
C801   C     0.37741   0.59585   0.22393   0.00000  Uiso   1.00
C802   C     0.12253   0.90420   0.77600   0.00000  Uiso   1.00
C803   C     0.40464   0.87791   0.22464   0.00000  Uiso   1.00
C804   C     0.09532   0.62205   0.77530   0.00000  Uiso   1.00
C805   C     0.12205   0.59532   0.77530   0.00000  Uiso   1.00
C806   C     0.37791   0.90463   0.22463   0.00000  Uiso   1.00
C807   C     0.09580   0.87746   0.77600   0.00000  Uiso   1.00
C808   C     0.40415   0.62258   0.22393   0.00000  Uiso   1.00
C809   C     0.37795   0.90468   0.77530   0.00000  Uiso   1.00
C810   C     0.12209   0.59537   0.22463   0.00000  Uiso   1.00
C811   C     0.40420   0.62254   0.77600   0.00000  Uiso   1.00
C812   C     0.09585   0.87742   0.22393   0.00000  Uiso   1.00
C813   C     0.37245   0.65428   0.72414   0.00000  Uiso   1.00
C814   C     0.12750   0.84577   0.27593   0.00000  Uiso   1.00
C815   C     0.34539   0.87211   0.72459   0.00000  Uiso   1.00
C816   C     0.15456   0.62784   0.27548   0.00000  Uiso   1.00
C817   C     0.12755   0.84572   0.72414   0.00000  Uiso   1.00
C818   C     0.37250   0.65423   0.27594   0.00000  Uiso   1.00
C819   C     0.15461   0.62789   0.72459   0.00000  Uiso   1.00
C820   C     0.34544   0.87216   0.27548   0.00000  Uiso   1.00
C821   C     0.37217   0.84544   0.27549   0.00000  Uiso   1.00
C822   C     0.12788   0.65461   0.72458   0.00000  Uiso   1.00
C823   C     0.34578   0.62749   0.27595   0.00000  Uiso   1.00
C824   C     0.15427   0.87246   0.72413   0.00000  Uiso   1.00
C825   C     0.12783   0.65456   0.27549   0.00000  Uiso   1.00
C826   C     0.37212   0.84539   0.72458   0.00000  Uiso   1.00
C827   C     0.15422   0.87251   0.27595   0.00000  Uiso   1.00
C828   C     0.34573   0.62754   0.72413   0.00000  Uiso   1.00
H829   H     0.12029   0.92654   0.20356   0.00000  Uiso   1.00
H830   H     0.37981   0.57337   0.79631   0.00000  Uiso   1.00
H831   H     0.07263   0.61944   0.20474   0.00000  Uiso   1.00
H832   H     0.42745   0.88064   0.79514   0.00000  Uiso   1.00
H833   H     0.37971   0.57346   0.20356   0.00000  Uiso   1.00
H834   H     0.12019   0.92663   0.79631   0.00000  Uiso   1.00
H835   H     0.42737   0.88055   0.20474   0.00000  Uiso   1.00
H836   H     0.07255   0.61936   0.79513   0.00000  Uiso   1.00
H837   H     0.11936   0.57256   0.79514   0.00000  Uiso   1.00
H838   H     0.38056   0.92736   0.20474   0.00000  Uiso   1.00
H839   H     0.07337   0.87980   0.79632   0.00000  Uiso   1.00
H840   H     0.42654   0.62028   0.20356   0.00000  Uiso   1.00
H841   H     0.38064   0.92744   0.79514   0.00000  Uiso   1.00
H842   H     0.11944   0.57264   0.20474   0.00000  Uiso   1.00
H843   H     0.42663   0.62020   0.79632   0.00000  Uiso   1.00
H844   H     0.07346   0.87971   0.20356   0.00000  Uiso   1.00
H845   H     0.37010   0.67671   0.70383   0.00000  Uiso   1.00
H846   H     0.12981   0.82338   0.29630   0.00000  Uiso   1.00
H847   H     0.32262   0.86943   0.70475   0.00000  Uiso   1.00
H848   H     0.17729   0.63049   0.29537   0.00000  Uiso   1.00
H849   H     0.12990   0.82328   0.70383   0.00000  Uiso   1.00
H850   H     0.37019   0.67662   0.29630   0.00000  Uiso   1.00
H851   H     0.17738   0.63057   0.70475   0.00000  Uiso   1.00
H852   H     0.32271   0.86951   0.29537   0.00000  Uiso   1.00
H853   H     0.36953   0.82272   0.29540   0.00000  Uiso   1.00
H854   H     0.13056   0.67737   0.70474   0.00000  Uiso   1.00
H855   H     0.32339   0.62978   0.29632   0.00000  Uiso   1.00
H856   H     0.17671   0.87012   0.70381   0.00000  Uiso   1.00
H857   H     0.13047   0.67728   0.29540   0.00000  Uiso   1.00
H858   H     0.36944   0.82263   0.70474   0.00000  Uiso   1.00
H859   H     0.17661   0.87022   0.29632   0.00000  Uiso   1.00
H860   H     0.32329   0.62988   0.70381   0.00000  Uiso   1.00
C861   C     0.01375   0.71925   0.45899   0.00000  Uiso   1.00
C862   C     0.48919   0.78188   0.54133   0.00000  Uiso   1.00
C863   C     0.28081   0.51362   0.45898   0.00000  Uiso   1.00
C864   C     0.21803   0.98937   0.54133   0.00000  Uiso   1.00
C865   C     0.48626   0.78075   0.45899   0.00000  Uiso   1.00
C866   C     0.01081   0.71812   0.54133   0.00000  Uiso   1.00
C867   C     0.21916   0.98644   0.45898   0.00000  Uiso   1.00
C868   C     0.28193   0.51068   0.54133   0.00000  Uiso   1.00
C869   C     0.23657   0.96914   0.95863   0.00000  Uiso   1.00
C870   C     0.26611   0.52963   0.04096   0.00000  Uiso   1.00
C871   C     0.02964   0.76610   0.95904   0.00000  Uiso   1.00
C872   C     0.46913   0.73659   0.04137   0.00000  Uiso   1.00
C873   C     0.26343   0.53086   0.95863   0.00000  Uiso   1.00
C874   C     0.23389   0.97037   0.04096   0.00000  Uiso   1.00
C875   C     0.47036   0.73391   0.95904   0.00000  Uiso   1.00
C876   C     0.03087   0.76342   0.04137   0.00000  Uiso   1.00
C877   C     0.09817   0.84810   0.24995   0.00000  Uiso   1.00
C878   C     0.40184   0.65190   0.75005   0.00000  Uiso   1.00
C879   C     0.15184   0.59811   0.25004   0.00000  Uiso   1.00
C880   C     0.34816   0.90189   0.74996   0.00000  Uiso   1.00
C881   C     0.40184   0.65190   0.24995   0.00000  Uiso   1.00
C882   C     0.09816   0.84810   0.75006   0.00000  Uiso   1.00
C883   C     0.34816   0.90189   0.25004   0.00000  Uiso   1.00
C884   C     0.15184   0.59811   0.74996   0.00000  Uiso   1.00
C885   C     0.09810   0.65184   0.74995   0.00000  Uiso   1.00
C886   C     0.40190   0.84816   0.25005   0.00000  Uiso   1.00
C887   C     0.15189   0.90184   0.75004   0.00000  Uiso   1.00
C888   C     0.34811   0.59815   0.24996   0.00000  Uiso   1.00
C889   C     0.40190   0.84816   0.74995   0.00000  Uiso   1.00
C890   C     0.09810   0.65184   0.25005   0.00000  Uiso   1.00
C891   C     0.34811   0.59816   0.75004   0.00000  Uiso   1.00
C892   C     0.15189   0.90185   0.24996   0.00000  Uiso   1.00
C893   C     0.00000   0.75000   0.47957   0.00000  Uiso   1.00
C894   C     0.00000   0.75000   0.52073   0.00000  Uiso   1.00
C895   C     0.24998   0.50003   0.47957   0.00000  Uiso   1.00
C896   C     0.24998   0.50003   0.52073   0.00000  Uiso   1.00
C897   C     0.25000   0.50000   0.97924   0.00000  Uiso   1.00
C898   C     0.25000   0.50000   0.02039   0.00000  Uiso   1.00
C899   C    -0.00000   0.75000   0.97961   0.00000  Uiso   1.00
C900   C    -0.00000   0.75000   0.02076   0.00000  Uiso   1.00
N901   N     0.03441   0.65465   0.46026   0.00000  Uiso   1.00
O902   O     0.00913   0.63504   0.44391   0.00000  Uiso   1.00
O903   O     0.06712   0.64135   0.46390   0.00000  Uiso   1.00
N904   N     0.46080   0.84341   0.54023   0.00000  Uiso   1.00
O905   O     0.42913   0.84062   0.55700   0.00000  Uiso   1.00
O906   O     0.47585   0.87537   0.53662   0.00000  Uiso   1.00
N907   N     0.34555   0.53387   0.46024   0.00000  Uiso   1.00
O908   O     0.36492   0.50847   0.44381   0.00000  Uiso   1.00
O909   O     0.35914   0.56647   0.46392   0.00000  Uiso   1.00
N910   N     0.15625   0.96147   0.54018   0.00000  Uiso   1.00
O911   O     0.15868   0.92969   0.55678   0.00000  Uiso   1.00
O912   O     0.12446   0.97687   0.53664   0.00000  Uiso   1.00
N913   N     0.46561   0.84536   0.46027   0.00000  Uiso   1.00
O914   O     0.49089   0.86496   0.44391   0.00000  Uiso   1.00
O915   O     0.43290   0.85867   0.46391   0.00000  Uiso   1.00
N916   N     0.03919   0.65659   0.54023   0.00000  Uiso   1.00
O917   O     0.07087   0.65937   0.55699   0.00000  Uiso   1.00
O918   O     0.02414   0.62463   0.53661   0.00000  Uiso   1.00
N919   N     0.15437   0.96633   0.46022   0.00000  Uiso   1.00
O920   O     0.13512   0.99178   0.44370   0.00000  Uiso   1.00
O921   O     0.14066   0.93378   0.46393   0.00000  Uiso   1.00
N922   N     0.34365   0.53870   0.54021   0.00000  Uiso   1.00
O923   O     0.34112   0.57042   0.55691   0.00000  Uiso   1.00
O924   O     0.37550   0.52342   0.53662   0.00000  Uiso   1.00
N925   N     0.20274   0.91042   0.95960   0.00000  Uiso   1.00
O926   O     0.17148   0.91619   0.94282   0.00000  Uiso   1.00
O927   O     0.21470   0.87718   0.96316   0.00000  Uiso   1.00
N928   N     0.29255   0.59216   0.03949   0.00000  Uiso   1.00
O929   O     0.26914   0.61454   0.05490   0.00000  Uiso   1.00
O930   O     0.32649   0.60206   0.03622   0.00000  Uiso   1.00
N931   N     0.09220   0.79248   0.96051   0.00000  Uiso   1.00
O932   O     0.11454   0.76904   0.94509   0.00000  Uiso   1.00
O933   O     0.10214   0.82641   0.96379   0.00000  Uiso   1.00
N934   N     0.41035   0.70285   0.04037   0.00000  Uiso   1.00
O935   O     0.41602   0.67153   0.05706   0.00000  Uiso   1.00
O936   O     0.37715   0.71492   0.03685   0.00000  Uiso   1.00
N937   N     0.29723   0.58959   0.95961   0.00000  Uiso   1.00
O938   O     0.32851   0.58384   0.94285   0.00000  Uiso   1.00
O939   O     0.28525   0.62282   0.96316   0.00000  Uiso   1.00
N940   N     0.20745   0.90783   0.03948   0.00000  Uiso   1.00
O941   O     0.23087   0.88546   0.05490   0.00000  Uiso   1.00
O942   O     0.17351   0.89793   0.03621   0.00000  Uiso   1.00
N943   N     0.40780   0.70754   0.96050   0.00000  Uiso   1.00
O944   O     0.38546   0.73098   0.94507   0.00000  Uiso   1.00
O945   O     0.39785   0.67361   0.96378   0.00000  Uiso   1.00
N946   N     0.08964   0.79716   0.04038   0.00000  Uiso   1.00
O947   O     0.08396   0.82848   0.05708   0.00000  Uiso   1.00
O948   O     0.12284   0.78511   0.03686   0.00000  Uiso   1.00
N949   N     0.46296   0.80532   0.39636   0.00000  Uiso   1.00
O950   O     0.47899   0.82549   0.37033   0.00000  Uiso   1.00
O951   O     0.42758   0.80584   0.39907   0.00000  Uiso   1.00
N952   N     0.00874   0.68406   0.60378   0.00000  Uiso   1.00
O953   O     0.03388   0.67861   0.62982   0.00000  Uiso   1.00
O954   O     0.48238   0.66056   0.60012   0.00000  Uiso   1.00
N955   N     0.19453   0.96312   0.39638   0.00000  Uiso   1.00
O956   O     0.17451   0.97912   0.37022   0.00000  Uiso   1.00
O957   O     0.19375   0.92776   0.39934   0.00000  Uiso   1.00
N958   N     0.31596   0.50855   0.60380   0.00000  Uiso   1.00
O959   O     0.32150   0.53371   0.62979   0.00000  Uiso   1.00
O960   O     0.33932   0.98207   0.60026   0.00000  Uiso   1.00
N961   N     0.03705   0.69468   0.39636   0.00000  Uiso   1.00
O962   O     0.02102   0.67450   0.37034   0.00000  Uiso   1.00
O963   O     0.07243   0.69419   0.39905   0.00000  Uiso   1.00
N964   N     0.49126   0.81594   0.60378   0.00000  Uiso   1.00
O965   O     0.46612   0.82139   0.62983   0.00000  Uiso   1.00
O966   O     0.01762   0.83944   0.60012   0.00000  Uiso   1.00
N967   N     0.30547   0.53687   0.39636   0.00000  Uiso   1.00
O968   O     0.32553   0.52082   0.37028   0.00000  Uiso   1.00
O969   O     0.30619   0.57224   0.39920   0.00000  Uiso   1.00
N970   N     0.18404   0.99141   0.60383   0.00000  Uiso   1.00
O971   O     0.17852   0.96616   0.62973   0.00000  Uiso   1.00
O972   O     0.16072   0.51793   0.60044   0.00000  Uiso   1.00
N973   N     0.26369   0.56514   0.89633   0.00000  Uiso   1.00
O974   O     0.28936   0.56911   0.87058   0.00000  Uiso   1.00
O975   O     0.23924   0.59055   0.90038   0.00000  Uiso   1.00
N976   N     0.20970   0.94700   0.10372   0.00000  Uiso   1.00
O977   O     0.22492   0.92527   0.12883   0.00000  Uiso   1.00
O978   O     0.17433   0.94936   0.10243   0.00000  Uiso   1.00
N979   N     0.44699   0.70972   0.89628   0.00000  Uiso   1.00
O980   O     0.42527   0.72493   0.87115   0.00000  Uiso   1.00
O981   O     0.44934   0.67434   0.89759   0.00000  Uiso   1.00
N982   N     0.06513   0.76373   0.10368   0.00000  Uiso   1.00
O983   O     0.06909   0.78944   0.12938   0.00000  Uiso   1.00
O984   O     0.09053   0.73925   0.09972   0.00000  Uiso   1.00
N985   N     0.23632   0.93486   0.89634   0.00000  Uiso   1.00
O986   O     0.21067   0.93088   0.87056   0.00000  Uiso   1.00
O987   O     0.26076   0.90944   0.90041   0.00000  Uiso   1.00
N988   N     0.29029   0.55300   0.10373   0.00000  Uiso   1.00
O989   O     0.27507   0.57474   0.12883   0.00000  Uiso   1.00
O990   O     0.32567   0.55064   0.10245   0.00000  Uiso   1.00
N991   N     0.05301   0.79029   0.89628   0.00000  Uiso   1.00
O992   O     0.07473   0.77507   0.87116   0.00000  Uiso   1.00
O993   O     0.05066   0.82566   0.89758   0.00000  Uiso   1.00
N994   N     0.43487   0.73627   0.10368   0.00000  Uiso   1.00
O995   O     0.43091   0.71055   0.12938   0.00000  Uiso   1.00
O996   O     0.40948   0.76075   0.09973   0.00000  Uiso   1.00
Zn997  Zn    0.70660   0.50000   0.21735   0.00000  Uiso   1.00
Zn998  Zn    0.79341   0.50000   0.78265   0.00000  Uiso   1.00
Zn999  Zn    0.50000   0.70659   0.21735   0.00000  Uiso   1.00
Zn1000 Zn    0.50000   0.79340   0.78265   0.00000  Uiso   1.00
Zn1001 Zn    0.79341   0.50000   0.21735   0.00000  Uiso   1.00
Zn1002 Zn    0.70660   0.50000   0.78265   0.00000  Uiso   1.00
Zn1003 Zn    0.50000   0.79340   0.21735   0.00000  Uiso   1.00
Zn1004 Zn    0.50000   0.70659   0.78265   0.00000  Uiso   1.00
Zn1005 Zn    0.95660   0.75000   0.71735   0.00000  Uiso   1.00
Zn1006 Zn    0.54341   0.75000   0.28265   0.00000  Uiso   1.00
Zn1007 Zn    0.75000   0.95659   0.71735   0.00000  Uiso   1.00
Zn1008 Zn    0.75000   0.54340   0.28265   0.00000  Uiso   1.00
Zn1009 Zn    0.54341   0.75000   0.71735   0.00000  Uiso   1.00
Zn1010 Zn    0.95660   0.75000   0.28265   0.00000  Uiso   1.00
Zn1011 Zn    0.75000   0.54340   0.71735   0.00000  Uiso   1.00
Zn1012 Zn    0.75000   0.95659   0.28265   0.00000  Uiso   1.00
C1013  C     0.98345   0.77885   0.41804   0.00000  Uiso   1.00
C1014  C     0.50753   0.71762   0.58227   0.00000  Uiso   1.00
C1015  C     0.72106   0.98358   0.41804   0.00000  Uiso   1.00
C1016  C     0.78241   0.50742   0.58227   0.00000  Uiso   1.00
C1017  C     0.51656   0.72115   0.41804   0.00000  Uiso   1.00
C1018  C     0.99247   0.78238   0.58227   0.00000  Uiso   1.00
C1019  C     0.77892   0.51645   0.41804   0.00000  Uiso   1.00
C1020  C     0.71758   0.99259   0.58227   0.00000  Uiso   1.00
C1021  C     0.76013   0.53167   0.91772   0.00000  Uiso   1.00
C1022  C     0.73150   0.97232   0.08193   0.00000  Uiso   1.00
C1023  C     0.97232   0.73151   0.91807   0.00000  Uiso   1.00
C1024  C     0.53167   0.76014   0.08228   0.00000  Uiso   1.00
C1025  C     0.73987   0.96833   0.91772   0.00000  Uiso   1.00
C1026  C     0.76849   0.52768   0.08193   0.00000  Uiso   1.00
C1027  C     0.52768   0.76849   0.91807   0.00000  Uiso   1.00
C1028  C     0.96833   0.73986   0.08228   0.00000  Uiso   1.00
C1029  C     0.50000   0.75000   0.39809   0.00000  Uiso   1.00
C1030  C     0.50000   0.75000   0.60214   0.00000  Uiso   1.00
C1031  C     0.75000   0.50001   0.39808   0.00000  Uiso   1.00
C1032  C     0.75000   0.50000   0.60213   0.00000  Uiso   1.00
C1033  C     0.75000   0.50000   0.89784   0.00000  Uiso   1.00
C1034  C     0.75000   0.50000   0.10187   0.00000  Uiso   1.00
C1035  C     0.50000   0.75000   0.89813   0.00000  Uiso   1.00
C1036  C     0.50000   0.75000   0.10216   0.00000  Uiso   1.00
O1037  O     0.75000   0.50000   0.25000   0.00000  Uiso   1.00
O1038  O     0.75000   0.50000   0.75000   0.00000  Uiso   1.00
O1039  O     0.50000   0.75000   0.25000   0.00000  Uiso   1.00
O1040  O     0.50000   0.75000   0.75000   0.00000  Uiso   1.00
O1041  O     0.75000   0.96963   0.33755   0.00000  Uiso   1.00
O1042  O     0.75000   0.53036   0.66245   0.00000  Uiso   1.00
O1043  O     0.53037   0.75000   0.33755   0.00000  Uiso   1.00
O1044  O     0.96964   0.75000   0.66245   0.00000  Uiso   1.00
O1045  O     0.75000   0.53036   0.33755   0.00000  Uiso   1.00
O1046  O     0.75000   0.96963   0.66245   0.00000  Uiso   1.00
O1047  O     0.96964   0.75000   0.33755   0.00000  Uiso   1.00
O1048  O     0.53037   0.75000   0.66245   0.00000  Uiso   1.00
O1049  O     0.50000   0.71963   0.83755   0.00000  Uiso   1.00
O1050  O     0.50000   0.78036   0.16245   0.00000  Uiso   1.00
O1051  O     0.78037   0.50000   0.83755   0.00000  Uiso   1.00
O1052  O     0.71964   0.50000   0.16245   0.00000  Uiso   1.00
O1053  O     0.50000   0.78036   0.83755   0.00000  Uiso   1.00
O1054  O     0.50000   0.71963   0.16245   0.00000  Uiso   1.00
O1055  O     0.71964   0.50000   0.83755   0.00000  Uiso   1.00
O1056  O     0.78037   0.50000   0.16245   0.00000  Uiso   1.00
O1057  O     0.70725   0.57307   0.27302   0.00000  Uiso   1.00
O1058  O     0.79276   0.92692   0.72698   0.00000  Uiso   1.00
O1059  O     0.92693   0.70724   0.27302   0.00000  Uiso   1.00
O1060  O     0.57308   0.79275   0.72698   0.00000  Uiso   1.00
O1061  O     0.79276   0.92692   0.27302   0.00000  Uiso   1.00
O1062  O     0.70725   0.57307   0.72698   0.00000  Uiso   1.00
O1063  O     0.57308   0.79275   0.27302   0.00000  Uiso   1.00
O1064  O     0.92693   0.70724   0.72698   0.00000  Uiso   1.00
O1065  O     0.70725   0.92692   0.72698   0.00000  Uiso   1.00
O1066  O     0.79276   0.57307   0.27302   0.00000  Uiso   1.00
O1067  O     0.92693   0.79275   0.72698   0.00000  Uiso   1.00
O1068  O     0.57308   0.70724   0.27302   0.00000  Uiso   1.00
O1069  O     0.79276   0.57307   0.72698   0.00000  Uiso   1.00
O1070  O     0.70725   0.92692   0.27302   0.00000  Uiso   1.00
O1071  O     0.57308   0.70724   0.72698   0.00000  Uiso   1.00
O1072  O     0.92693   0.79275   0.27302   0.00000  Uiso   1.00
O1073  O     0.95725   0.82307   0.77302   0.00000  Uiso   1.00
O1074  O     0.54276   0.67692   0.22698   0.00000  Uiso   1.00
O1075  O     0.67693   0.95724   0.77302   0.00000  Uiso   1.00
O1076  O     0.82308   0.54275   0.22698   0.00000  Uiso   1.00
O1077  O     0.54276   0.67692   0.77302   0.00000  Uiso   1.00
O1078  O     0.95725   0.82307   0.22698   0.00000  Uiso   1.00
O1079  O     0.82308   0.54275   0.77302   0.00000  Uiso   1.00
O1080  O     0.67693   0.95724   0.22698   0.00000  Uiso   1.00
O1081  O     0.95725   0.67692   0.22698   0.00000  Uiso   1.00
O1082  O     0.54276   0.82307   0.77302   0.00000  Uiso   1.00
O1083  O     0.67693   0.54275   0.22698   0.00000  Uiso   1.00
O1084  O     0.82308   0.95724   0.77302   0.00000  Uiso   1.00
O1085  O     0.54276   0.82307   0.22698   0.00000  Uiso   1.00
O1086  O     0.95725   0.67692   0.77302   0.00000  Uiso   1.00
O1087  O     0.82308   0.95724   0.22698   0.00000  Uiso   1.00
O1088  O     0.67693   0.54275   0.77302   0.00000  Uiso   1.00
C1089  C     0.52464   0.68777   0.47987   0.00000  Uiso   1.00
C1090  C     0.97598   0.81246   0.52052   0.00000  Uiso   1.00
C1091  C     0.81237   0.52434   0.47986   0.00000  Uiso   1.00
C1092  C     0.68736   0.97638   0.52049   0.00000  Uiso   1.00
C1093  C     0.97536   0.81224   0.47987   0.00000  Uiso   1.00
C1094  C     0.52402   0.68754   0.52052   0.00000  Uiso   1.00
C1095  C     0.68758   0.97577   0.47984   0.00000  Uiso   1.00
C1096  C     0.81259   0.52372   0.52051   0.00000  Uiso   1.00
C1097  C     0.72076   0.93980   0.97938   0.00000  Uiso   1.00
C1098  C     0.77974   0.56003   0.02001   0.00000  Uiso   1.00
C1099  C     0.56005   0.77971   0.97998   0.00000  Uiso   1.00
C1100  C     0.93977   0.72081   0.02061   0.00000  Uiso   1.00
C1101  C     0.77923   0.56020   0.97938   0.00000  Uiso   1.00
C1102  C     0.72026   0.93997   0.02001   0.00000  Uiso   1.00
C1103  C     0.93995   0.72030   0.97998   0.00000  Uiso   1.00
C1104  C     0.56023   0.77920   0.02062   0.00000  Uiso   1.00
C1105  C     0.75000   0.50000   0.35576   0.00000  Uiso   1.00
C1106  C     0.75000   0.50000   0.64432   0.00000  Uiso   1.00
C1107  C     0.50000   0.75000   0.35576   0.00000  Uiso   1.00
C1108  C     0.50000   0.75000   0.64432   0.00000  Uiso   1.00
C1109  C     0.50000   0.75000   0.85577   0.00000  Uiso   1.00
C1110  C     0.50000   0.75000   0.14432   0.00000  Uiso   1.00
C1111  C     0.75000   0.50000   0.85568   0.00000  Uiso   1.00
C1112  C     0.75000   0.50000   0.14423   0.00000  Uiso   1.00
C1113  C     0.67993   0.57006   0.25001   0.00000  Uiso   1.00
C1114  C     0.82007   0.92994   0.74999   0.00000  Uiso   1.00
C1115  C     0.92993   0.67995   0.24998   0.00000  Uiso   1.00
C1116  C     0.57007   0.82005   0.75002   0.00000  Uiso   1.00
C1117  C     0.82007   0.92994   0.25001   0.00000  Uiso   1.00
C1118  C     0.67993   0.57006   0.74999   0.00000  Uiso   1.00
C1119  C     0.57007   0.82005   0.24998   0.00000  Uiso   1.00
C1120  C     0.92993   0.67995   0.75002   0.00000  Uiso   1.00
C1121  C     0.67994   0.92993   0.75001   0.00000  Uiso   1.00
C1122  C     0.82006   0.57007   0.24999   0.00000  Uiso   1.00
C1123  C     0.92994   0.82008   0.74998   0.00000  Uiso   1.00
C1124  C     0.57005   0.67992   0.25002   0.00000  Uiso   1.00
C1125  C     0.82006   0.57007   0.75001   0.00000  Uiso   1.00
C1126  C     0.67994   0.92993   0.24999   0.00000  Uiso   1.00
C1127  C     0.57006   0.67992   0.74998   0.00000  Uiso   1.00
C1128  C     0.92995   0.82007   0.25002   0.00000  Uiso   1.00
C1129  C     0.62258   0.90415   0.22394   0.00000  Uiso   1.00
C1130  C     0.87747   0.59580   0.77600   0.00000  Uiso   1.00
C1131  C     0.59537   0.62209   0.22464   0.00000  Uiso   1.00
C1132  C     0.90468   0.87795   0.77530   0.00000  Uiso   1.00
C1133  C     0.87741   0.59585   0.22393   0.00000  Uiso   1.00
C1134  C     0.62253   0.90420   0.77600   0.00000  Uiso   1.00
C1135  C     0.90464   0.87791   0.22464   0.00000  Uiso   1.00
C1136  C     0.59532   0.62205   0.77530   0.00000  Uiso   1.00
C1137  C     0.62205   0.59532   0.77530   0.00000  Uiso   1.00
C1138  C     0.87791   0.90463   0.22463   0.00000  Uiso   1.00
C1139  C     0.59580   0.87746   0.77600   0.00000  Uiso   1.00
C1140  C     0.90415   0.62258   0.22393   0.00000  Uiso   1.00
C1141  C     0.87795   0.90468   0.77530   0.00000  Uiso   1.00
C1142  C     0.62209   0.59537   0.22463   0.00000  Uiso   1.00
C1143  C     0.90420   0.62254   0.77600   0.00000  Uiso   1.00
C1144  C     0.59585   0.87742   0.22393   0.00000  Uiso   1.00
C1145  C     0.87245   0.65428   0.72414   0.00000  Uiso   1.00
C1146  C     0.62750   0.84577   0.27593   0.00000  Uiso   1.00
C1147  C     0.84539   0.87211   0.72459   0.00000  Uiso   1.00
C1148  C     0.65456   0.62784   0.27548   0.00000  Uiso   1.00
C1149  C     0.62755   0.84572   0.72414   0.00000  Uiso   1.00
C1150  C     0.87250   0.65423   0.27594   0.00000  Uiso   1.00
C1151  C     0.65461   0.62789   0.72459   0.00000  Uiso   1.00
C1152  C     0.84544   0.87216   0.27548   0.00000  Uiso   1.00
C1153  C     0.87217   0.84544   0.27549   0.00000  Uiso   1.00
C1154  C     0.62788   0.65461   0.72458   0.00000  Uiso   1.00
C1155  C     0.84578   0.62749   0.27595   0.00000  Uiso   1.00
C1156  C     0.65427   0.87246   0.72413   0.00000  Uiso   1.00
C1157  C     0.62783   0.65456   0.27549   0.00000  Uiso   1.00
C1158  C     0.87212   0.84539   0.72458   0.00000  Uiso   1.00
C1159  C     0.65422   0.87251   0.27595   0.00000  Uiso   1.00
C1160  C     0.84573   0.62754   0.72413   0.00000  Uiso   1.00
H1161  H     0.62029   0.92654   0.20356   0.00000  Uiso   1.00
H1162  H     0.87981   0.57337   0.79631   0.00000  Uiso   1.00
H1163  H     0.57263   0.61944   0.20474   0.00000  Uiso   1.00
H1164  H     0.92745   0.88064   0.79514   0.00000  Uiso   1.00
H1165  H     0.87971   0.57346   0.20356   0.00000  Uiso   1.00
H1166  H     0.62019   0.92663   0.79631   0.00000  Uiso   1.00
H1167  H     0.92737   0.88055   0.20474   0.00000  Uiso   1.00
H1168  H     0.57255   0.61936   0.79513   0.00000  Uiso   1.00
H1169  H     0.61936   0.57256   0.79514   0.00000  Uiso   1.00
H1170  H     0.88056   0.92736   0.20474   0.00000  Uiso   1.00
H1171  H     0.57337   0.87980   0.79632   0.00000  Uiso   1.00
H1172  H     0.92654   0.62028   0.20356   0.00000  Uiso   1.00
H1173  H     0.88064   0.92744   0.79514   0.00000  Uiso   1.00
H1174  H     0.61944   0.57264   0.20474   0.00000  Uiso   1.00
H1175  H     0.92663   0.62020   0.79632   0.00000  Uiso   1.00
H1176  H     0.57346   0.87971   0.20356   0.00000  Uiso   1.00
H1177  H     0.87010   0.67671   0.70383   0.00000  Uiso   1.00
H1178  H     0.62981   0.82338   0.29630   0.00000  Uiso   1.00
H1179  H     0.82262   0.86943   0.70475   0.00000  Uiso   1.00
H1180  H     0.67729   0.63049   0.29537   0.00000  Uiso   1.00
H1181  H     0.62990   0.82328   0.70383   0.00000  Uiso   1.00
H1182  H     0.87019   0.67662   0.29630   0.00000  Uiso   1.00
H1183  H     0.67738   0.63057   0.70475   0.00000  Uiso   1.00
H1184  H     0.82271   0.86951   0.29537   0.00000  Uiso   1.00
H1185  H     0.86953   0.82272   0.29540   0.00000  Uiso   1.00
H1186  H     0.63056   0.67737   0.70474   0.00000  Uiso   1.00
H1187  H     0.82339   0.62978   0.29632   0.00000  Uiso   1.00
H1188  H     0.67671   0.87012   0.70381   0.00000  Uiso   1.00
H1189  H     0.63047   0.67728   0.29540   0.00000  Uiso   1.00
H1190  H     0.86944   0.82263   0.70474   0.00000  Uiso   1.00
H1191  H     0.67661   0.87022   0.29632   0.00000  Uiso   1.00
H1192  H     0.82329   0.62988   0.70381   0.00000  Uiso   1.00
C1193  C     0.51375   0.71925   0.45899   0.00000  Uiso   1.00
C1194  C     0.98919   0.78188   0.54133   0.00000  Uiso   1.00
C1195  C     0.78081   0.51362   0.45898   0.00000  Uiso   1.00
C1196  C     0.71803   0.98937   0.54133   0.00000  Uiso   1.00
C1197  C     0.98626   0.78075   0.45899   0.00000  Uiso   1.00
C1198  C     0.51081   0.71812   0.54133   0.00000  Uiso   1.00
C1199  C     0.71916   0.98644   0.45898   0.00000  Uiso   1.00
C1200  C     0.78193   0.51068   0.54133   0.00000  Uiso   1.00
C1201  C     0.73657   0.96914   0.95863   0.00000  Uiso   1.00
C1202  C     0.76611   0.52963   0.04096   0.00000  Uiso   1.00
C1203  C     0.52964   0.76610   0.95904   0.00000  Uiso   1.00
C1204  C     0.96913   0.73659   0.04137   0.00000  Uiso   1.00
C1205  C     0.76343   0.53086   0.95863   0.00000  Uiso   1.00
C1206  C     0.73389   0.97037   0.04096   0.00000  Uiso   1.00
C1207  C     0.97036   0.73391   0.95904   0.00000  Uiso   1.00
C1208  C     0.53087   0.76342   0.04137   0.00000  Uiso   1.00
C1209  C     0.59817   0.84810   0.24995   0.00000  Uiso   1.00
C1210  C     0.90184   0.65190   0.75005   0.00000  Uiso   1.00
C1211  C     0.65184   0.59811   0.25004   0.00000  Uiso   1.00
C1212  C     0.84816   0.90189   0.74996   0.00000  Uiso   1.00
C1213  C     0.90184   0.65190   0.24995   0.00000  Uiso   1.00
C1214  C     0.59816   0.84810   0.75006   0.00000  Uiso   1.00
C1215  C     0.84816   0.90189   0.25004   0.00000  Uiso   1.00
C1216  C     0.65184   0.59811   0.74996   0.00000  Uiso   1.00
C1217  C     0.59810   0.65184   0.74995   0.00000  Uiso   1.00
C1218  C     0.90190   0.84816   0.25005   0.00000  Uiso   1.00
C1219  C     0.65189   0.90184   0.75004   0.00000  Uiso   1.00
C1220  C     0.84811   0.59815   0.24996   0.00000  Uiso   1.00
C1221  C     0.90190   0.84816   0.74995   0.00000  Uiso   1.00
C1222  C     0.59810   0.65184   0.25005   0.00000  Uiso   1.00
C1223  C     0.84811   0.59816   0.75004   0.00000  Uiso   1.00
C1224  C     0.65189   0.90185   0.24996   0.00000  Uiso   1.00
C1225  C     0.50000   0.75000   0.47957   0.00000  Uiso   1.00
C1226  C     0.50000   0.75000   0.52073   0.00000  Uiso   1.00
C1227  C     0.74998   0.50003   0.47957   0.00000  Uiso   1.00
C1228  C     0.74998   0.50003   0.52073   0.00000  Uiso   1.00
C1229  C     0.75000   0.50000   0.97924   0.00000  Uiso   1.00
C1230  C     0.75000   0.50000   0.02039   0.00000  Uiso   1.00
C1231  C     0.50000   0.75000   0.97961   0.00000  Uiso   1.00
C1232  C     0.50000   0.75000   0.02076   0.00000  Uiso   1.00
N1233  N     0.53441   0.65465   0.46026   0.00000  Uiso   1.00
O1234  O     0.50913   0.63504   0.44391   0.00000  Uiso   1.00
O1235  O     0.56712   0.64135   0.46390   0.00000  Uiso   1.00
N1236  N     0.96080   0.84341   0.54023   0.00000  Uiso   1.00
O1237  O     0.92913   0.84062   0.55700   0.00000  Uiso   1.00
O1238  O     0.97585   0.87537   0.53662   0.00000  Uiso   1.00
N1239  N     0.84555   0.53387   0.46024   0.00000  Uiso   1.00
O1240  O     0.86492   0.50847   0.44381   0.00000  Uiso   1.00
O1241  O     0.85914   0.56647   0.46392   0.00000  Uiso   1.00
N1242  N     0.65625   0.96147   0.54018   0.00000  Uiso   1.00
O1243  O     0.65868   0.92969   0.55678   0.00000  Uiso   1.00
O1244  O     0.62446   0.97687   0.53664   0.00000  Uiso   1.00
N1245  N     0.96561   0.84536   0.46027   0.00000  Uiso   1.00
O1246  O     0.99089   0.86496   0.44391   0.00000  Uiso   1.00
O1247  O     0.93290   0.85867   0.46391   0.00000  Uiso   1.00
N1248  N     0.53919   0.65659   0.54023   0.00000  Uiso   1.00
O1249  O     0.57087   0.65937   0.55699   0.00000  Uiso   1.00
O1250  O     0.52414   0.62463   0.53661   0.00000  Uiso   1.00
N1251  N     0.65437   0.96633   0.46022   0.00000  Uiso   1.00
O1252  O     0.63512   0.99178   0.44370   0.00000  Uiso   1.00
O1253  O     0.64066   0.93378   0.46393   0.00000  Uiso   1.00
N1254  N     0.84365   0.53870   0.54021   0.00000  Uiso   1.00
O1255  O     0.84112   0.57042   0.55691   0.00000  Uiso   1.00
O1256  O     0.87550   0.52342   0.53662   0.00000  Uiso   1.00
N1257  N     0.70274   0.91042   0.95960   0.00000  Uiso   1.00
O1258  O     0.67148   0.91619   0.94282   0.00000  Uiso   1.00
O1259  O     0.71470   0.87718   0.96316   0.00000  Uiso   1.00
N1260  N     0.79255   0.59216   0.03949   0.00000  Uiso   1.00
O1261  O     0.76914   0.61454   0.05490   0.00000  Uiso   1.00
O1262  O     0.82649   0.60206   0.03622   0.00000  Uiso   1.00
N1263  N     0.59220   0.79248   0.96051   0.00000  Uiso   1.00
O1264  O     0.61454   0.76904   0.94509   0.00000  Uiso   1.00
O1265  O     0.60214   0.82641   0.96379   0.00000  Uiso   1.00
N1266  N     0.91035   0.70285   0.04037   0.00000  Uiso   1.00
O1267  O     0.91602   0.67153   0.05706   0.00000  Uiso   1.00
O1268  O     0.87715   0.71492   0.03685   0.00000  Uiso   1.00
N1269  N     0.79723   0.58959   0.95961   0.00000  Uiso   1.00
O1270  O     0.82851   0.58384   0.94285   0.00000  Uiso   1.00
O1271  O     0.78525   0.62282   0.96316   0.00000  Uiso   1.00
N1272  N     0.70745   0.90783   0.03948   0.00000  Uiso   1.00
O1273  O     0.73087   0.88546   0.05490   0.00000  Uiso   1.00
O1274  O     0.67351   0.89793   0.03621   0.00000  Uiso   1.00
N1275  N     0.90780   0.70754   0.96050   0.00000  Uiso   1.00
O1276  O     0.88546   0.73098   0.94507   0.00000  Uiso   1.00
O1277  O     0.89785   0.67361   0.96378   0.00000  Uiso   1.00
N1278  N     0.58964   0.79716   0.04038   0.00000  Uiso   1.00
O1279  O     0.58396   0.82848   0.05708   0.00000  Uiso   1.00
O1280  O     0.62284   0.78511   0.03686   0.00000  Uiso   1.00
N1281  N     0.96296   0.80532   0.39636   0.00000  Uiso   1.00
O1282  O     0.97899   0.82549   0.37033   0.00000  Uiso   1.00
O1283  O     0.92758   0.80584   0.39907   0.00000  Uiso   1.00
N1284  N     0.50874   0.68406   0.60378   0.00000  Uiso   1.00
O1285  O     0.53388   0.67861   0.62982   0.00000  Uiso   1.00
O1286  O     0.98238   0.66056   0.60012   0.00000  Uiso   1.00
N1287  N     0.69453   0.96312   0.39638   0.00000  Uiso   1.00
O1288  O     0.67451   0.97912   0.37022   0.00000  Uiso   1.00
O1289  O     0.69375   0.92776   0.39934   0.00000  Uiso   1.00
N1290  N     0.81596   0.50855   0.60380   0.00000  Uiso   1.00
O1291  O     0.82150   0.53371   0.62979   0.00000  Uiso   1.00
O1292  O     0.83932   0.98207   0.60026   0.00000  Uiso   1.00
N1293  N     0.53705   0.69468   0.39636   0.00000  Uiso   1.00
O1294  O     0.52102   0.67450   0.37034   0.00000  Uiso   1.00
O1295  O     0.57243   0.69419   0.39905   0.00000  Uiso   1.00
N1296  N     0.99126   0.81594   0.60378   0.00000  Uiso   1.00
O1297  O     0.96612   0.82139   0.62983   0.00000  Uiso   1.00
O1298  O     0.51762   0.83944   0.60012   0.00000  Uiso   1.00
N1299  N     0.80547   0.53687   0.39636   0.00000  Uiso   1.00
O1300  O     0.82553   0.52082   0.37028   0.00000  Uiso   1.00
O1301  O     0.80619   0.57224   0.39920   0.00000  Uiso   1.00
N1302  N     0.68404   0.99141   0.60383   0.00000  Uiso   1.00
O1303  O     0.67852   0.96616   0.62973   0.00000  Uiso   1.00
O1304  O     0.66072   0.51793   0.60044   0.00000  Uiso   1.00
N1305  N     0.76369   0.56514   0.89633   0.00000  Uiso   1.00
O1306  O     0.78936   0.56911   0.87058   0.00000  Uiso   1.00
O1307  O     0.73924   0.59055   0.90038   0.00000  Uiso   1.00
N1308  N     0.70970   0.94700   0.10372   0.00000  Uiso   1.00
O1309  O     0.72492   0.92527   0.12883   0.00000  Uiso   1.00
O1310  O     0.67433   0.94936   0.10243   0.00000  Uiso   1.00
N1311  N     0.94699   0.70972   0.89628   0.00000  Uiso   1.00
O1312  O     0.92527   0.72493   0.87115   0.00000  Uiso   1.00
O1313  O     0.94934   0.67434   0.89759   0.00000  Uiso   1.00
N1314  N     0.56513   0.76373   0.10368   0.00000  Uiso   1.00
O1315  O     0.56909   0.78944   0.12938   0.00000  Uiso   1.00
O1316  O     0.59053   0.73925   0.09972   0.00000  Uiso   1.00
N1317  N     0.73632   0.93486   0.89634   0.00000  Uiso   1.00
O1318  O     0.71067   0.93088   0.87056   0.00000  Uiso   1.00
O1319  O     0.76076   0.90944   0.90041   0.00000  Uiso   1.00
N1320  N     0.79029   0.55300   0.10373   0.00000  Uiso   1.00
O1321  O     0.77507   0.57474   0.12883   0.00000  Uiso   1.00
O1322  O     0.82567   0.55064   0.10245   0.00000  Uiso   1.00
N1323  N     0.55301   0.79029   0.89628   0.00000  Uiso   1.00
O1324  O     0.57473   0.77507   0.87116   0.00000  Uiso   1.00
O1325  O     0.55066   0.82566   0.89758   0.00000  Uiso   1.00
N1326  N     0.93487   0.73627   0.10368   0.00000  Uiso   1.00
O1327  O     0.93091   0.71055   0.12938   0.00000  Uiso   1.00
O1328  O     0.90948   0.76075   0.09973   0.00000  Uiso   1.00
loop_
_geom_bond_atom_site_label_1
_geom_bond_atom_site_label_2
_geom_bond_distance
_geom_bond_site_symmetry_2
_ccdc_geom_bond_type
Zn1    O87     1.937   .     S
Zn1    O56     1.949   .     S
Zn1    O41     1.949   .     S
Zn1    O748    1.937   1_545 S
Zn2    O55     1.949   .     S
Zn2    O83     1.937   .     S
Zn2    O42     1.949   .     S
Zn2    O752    1.937   1_545 S
Zn3    O417    1.937   1_455 S
Zn3    O58     1.949   .     S
Zn3    O43     1.949   .     S
Zn3    O78     1.937   .     S
Zn4    O44     1.949   .     S
Zn4    O409    1.937   1_455 S
Zn4    O57     1.949   .     S
Zn4    O86     1.937   .     S
Zn5    O60     1.949   .     S
Zn5    O80     1.937   .     S
Zn5    O41     1.949   .     S
Zn5    O755    1.937   1_545 S
Zn6    O92     1.937   .     S
Zn6    O59     1.949   .     S
Zn6    O42     1.949   .     S
Zn6    O743    1.937   1_545 S
Zn7    O43     1.949   .     S
Zn7    O54     1.949   .     S
Zn7    O414    1.937   1_455 S
Zn7    O89     1.937   .     S
Zn8    O53     1.949   .     S
Zn8    O422    1.937   1_455 S
Zn8    O44     1.949   .     S
Zn8    O81     1.937   .     S
Zn9    O48     1.949   .     S
Zn9    O71     1.937   .     S
Zn9    O376    1.949   .     S
Zn9    O68     1.937   .     S
Zn10   O47     1.949   .     S
Zn10   O72     1.937   .     S
Zn10   O67     1.937   .     S
Zn10   O43     1.949   .     S
Zn11   O62     1.937   .     S
Zn11   O706    1.949   .     S
Zn11   O69     1.937   .     S
Zn11   O50     1.949   .     S
Zn12   O49     1.949   .     S
Zn12   O70     1.937   .     S
Zn12   O61     1.937   .     S
Zn12   O41     1.949   .     S
Zn13   O75     1.937   .     S
Zn13   O52     1.949   .     S
Zn13   O64     1.937   .     S
Zn13   O44     1.949   .     S
Zn14   O76     1.937   .     S
Zn14   O375    1.949   .     S
Zn14   O51     1.949   .     S
Zn14   O63     1.937   .     S
Zn15   O66     1.937   .     S
Zn15   O73     1.937   .     S
Zn15   O46     1.949   .     S
Zn15   O42     1.949   .     S
Zn16   O45     1.949   .     S
Zn16   O65     1.937   .     S
Zn16   O74     1.937   .     S
Zn16   O705    1.949   .     S
C17    C201    1.415   .     A
C17    N285    1.437   .     S
C17    C365    1.400   .     S
C18    N288    1.437   .     S
C18    C202    1.414   .     A
C18    C34     1.398   .     S
C19    C203    1.415   .     A
C19    N291    1.437   .     S
C19    C699    1.400   .     S
C20    N294    1.437   .     S
C20    C204    1.414   .     A
C20    C36     1.398   .     A
C21    C197    1.415   .     A
C21    C33     1.400   .     A
C21    N297    1.437   .     S
C22    C366    1.398   .     A
C22    N300    1.437   .     S
C22    C198    1.414   .     A
C23    C35     1.400   .     A
C23    C199    1.415   .     A
C23    N303    1.437   .     S
C24    C200    1.414   .     A
C24    N306    1.437   .     S
C24    C700    1.398   .     S
C25    N309    1.437   .     S
C25    C209    1.413   .     A
C25    C37     1.398   .     S
C26    C702    1.400   .     A
C26    C210    1.415   .     A
C26    N312    1.437   .     S
C27    N315    1.437   .     S
C27    C371    1.400   .     A
C27    C211    1.415   .     A
C28    C40     1.398   .     A
C28    C212    1.413   .     A
C28    N318    1.437   .     S
C29    N321    1.437   .     S
C29    C205    1.413   .     A
C29    C701    1.398   .     A
C30    N324    1.436   .     S
C30    C206    1.415   .     A
C30    C38     1.400   .     S
C31    C207    1.415   .     A
C31    N327    1.436   .     S
C31    C39     1.400   .     S
C32    C208    1.413   .     A
C32    N330    1.437   .     S
C32    C372    1.398   .     S
C33    C111    1.457   .     S
C33    C349    1.400   1_455 S
C34    C112    1.452   .     S
C34    C354    1.398   1_455 A
C35    C109    1.457   .     S
C35    C683    1.400   1_545 S
C36    C688    1.398   1_545 S
C36    C110    1.452   .     S
C37    C115    1.451   .     S
C37    C693    1.398   1_545 A
C38    C690    1.400   1_545 A
C38    C116    1.458   .     S
C39    C359    1.400   1_455 A
C39    C113    1.458   .     S
C40    C114    1.451   .     S
C40    C364    1.398   1_455 S
O41    Zn680   1.949   1_545 S
O42    Zn675   1.949   1_545 S
O43    Zn346   1.949   1_455 S
O44    Zn341   1.949   1_455 S
O45    C773    1.278   .     S
O46    C110    1.277   .     S
O47    C111    1.278   .     A
O48    C444    1.277   .     A
O49    C109    1.278   .     A
O50    C774    1.277   .     A
O51    C443    1.278   .     S
O52    C112    1.277   .     S
O53    C113    1.278   .     S
O54    C114    1.277   .     S
O55    C115    1.276   .     S
O56    C116    1.278   .     S
O57    C113    1.278   .     S
O58    C114    1.276   .     S
O59    C115    1.276   .     S
O60    C116    1.278   .     S
O61    C117    1.282   .     A
O62    C118    1.282   .     A
O63    C119    1.282   .     A
O64    C120    1.282   .     A
O65    C121    1.282   .     A
O66    C122    1.282   .     A
O67    C123    1.282   .     A
O68    C124    1.282   .     A
O69    C125    1.282   .     A
O70    C126    1.282   .     A
O71    C127    1.282   .     A
O72    C128    1.282   .     A
O73    C129    1.282   .     A
O74    C130    1.282   .     A
O75    C131    1.282   .     A
O76    C132    1.282   .     A
O77    C127    1.282   .     A
O77    Zn336   1.937   .     S
O78    C128    1.282   .     A
O79    C125    1.282   .     A
O79    Zn670   1.937   .     S
O80    C126    1.282   .     A
O81    C131    1.282   .     A
O82    C132    1.282   .     A
O82    Zn339   1.937   .     S
O83    C129    1.282   .     A
O84    C130    1.282   .     A
O84    Zn665   1.937   .     S
O85    Zn335   1.937   .     S
O85    C119    1.282   .     A
O86    C120    1.282   .     A
O87    C117    1.282   .     A
O88    C118    1.282   .     A
O88    Zn666   1.937   .     S
O89    C123    1.282   .     A
O90    C124    1.282   .     A
O90    Zn340   1.937   .     S
O91    C121    1.282   .     A
O91    Zn669   1.937   .     S
O92    C122    1.282   .     A
C93    N237    1.435   .     S
C93    C197    1.418   .     A
C93    C98     1.399   .     A
C94    C97     1.399   .     A
C94    N240    1.435   .     S
C94    C198    1.416   .     A
C95    C199    1.418   .     A
C95    C100    1.399   .     A
C95    N243    1.435   .     S
C96    C99     1.399   .     A
C96    C200    1.417   .     A
C96    N246    1.435   .     S
C97    N249    1.435   .     S
C97    C201    1.418   .     A
C98    N252    1.435   .     S
C98    C202    1.416   .     A
C99    C203    1.418   .     A
C99    N255    1.435   .     S
C100   N258    1.435   .     S
C100   C204    1.416   .     A
C101   N261    1.435   .     S
C101   C205    1.416   .     A
C101   C106    1.399   1_556 S
C102   C206    1.419   .     A
C102   N264    1.435   .     S
C102   C105    1.399   1_554 S
C103   N267    1.435   .     S
C103   C207    1.419   .     A
C103   C108    1.399   1_556 S
C104   N270    1.435   .     S
C104   C208    1.416   .     A
C104   C107    1.399   1_554 S
C105   N273    1.435   .     S
C105   C209    1.416   .     A
C105   C102    1.399   1_556 S
C106   C210    1.419   .     A
C106   N276    1.435   .     S
C106   C101    1.399   1_554 S
C107   C211    1.419   .     A
C107   N279    1.435   .     S
C107   C104    1.399   1_556 S
C108   C212    1.416   .     A
C108   N282    1.435   .     S
C108   C103    1.399   1_554 S
C109   O709    1.278   1_545 S
C110   O714    1.277   1_545 A
C111   O383    1.278   1_455 S
C112   O380    1.277   1_455 A
C117   C215    1.456   .     S
C118   C216    1.456   .     S
C119   C217    1.455   .     S
C120   C218    1.455   .     S
C121   C219    1.456   .     S
C122   C220    1.456   .     S
C123   C213    1.456   .     S
C124   C214    1.455   .     S
C125   C223    1.455   .     S
C126   C224    1.455   .     S
C127   C225    1.456   .     S
C128   C226    1.456   .     S
C129   C227    1.455   .     S
C130   C228    1.455   .     S
C131   C221    1.456   .     S
C132   C222    1.456   .     S
C133   H165    1.083   .     S
C133   C228    1.402   .     A
C133   C148    1.386   .     A
C134   C227    1.402   .     A
C134   C147    1.386   .     A
C134   H166    1.083   .     S
C135   C226    1.402   .     A
C135   C146    1.386   .     A
C135   H167    1.083   .     S
C136   C225    1.402   .     A
C136   C145    1.386   .     A
C136   H168    1.083   .     S
C137   C224    1.402   .     A
C137   C144    1.386   .     A
C137   H169    1.083   .     S
C138   C143    1.386   .     A
C138   C223    1.402   .     A
C138   H170    1.083   .     S
C139   C142    1.386   .     A
C139   H171    1.083   .     S
C139   C222    1.402   .     A
C140   C141    1.386   .     A
C140   C221    1.402   .     A
C140   H172    1.083   .     S
C141   C220    1.402   .     A
C141   H173    1.083   .     S
C142   C219    1.402   .     A
C142   H174    1.083   .     S
C143   H175    1.083   .     S
C143   C218    1.402   .     A
C144   C217    1.402   .     A
C144   H176    1.083   .     S
C145   C216    1.402   .     A
C145   H177    1.083   .     S
C146   H178    1.083   .     S
C146   C215    1.402   .     A
C147   C214    1.402   .     A
C147   H179    1.083   .     S
C148   H180    1.083   .     S
C148   C213    1.402   .     A
C149   C164    1.386   .     A
C149   H181    1.083   .     S
C149   C214    1.402   .     A
C150   C163    1.386   .     A
C150   H182    1.083   .     S
C150   C213    1.402   .     A
C151   H183    1.083   .     S
C151   C162    1.386   .     A
C151   C216    1.402   .     A
C152   C161    1.386   .     A
C152   H184    1.083   .     S
C152   C215    1.402   .     A
C153   C160    1.386   .     A
C153   C218    1.402   .     A
C153   H185    1.083   .     S
C154   H186    1.083   .     S
C154   C217    1.402   .     A
C154   C159    1.386   .     A
C155   C158    1.386   .     A
C155   C220    1.402   .     A
C155   H187    1.083   .     S
C156   H188    1.083   .     S
C156   C219    1.402   .     A
C156   C157    1.386   .     A
C157   H189    1.083   .     S
C157   C222    1.402   .     A
C158   H190    1.083   .     S
C158   C221    1.402   .     A
C159   H191    1.083   .     S
C159   C224    1.402   .     A
C160   H192    1.083   .     S
C160   C223    1.402   .     A
C161   H193    1.083   .     S
C161   C226    1.402   .     A
C162   H194    1.083   .     S
C162   C225    1.402   .     A
C163   H195    1.083   .     S
C163   C228    1.402   .     A
C164   H196    1.083   .     S
C164   C227    1.402   .     A
C197   C229    1.424   .     A
C198   C562    1.424   .     S
C199   C231    1.424   .     A
C200   C896    1.424   .     S
C201   C561    1.424   .     S
C202   C230    1.424   .     A
C203   C895    1.424   .     S
C204   C232    1.424   .     A
C205   C897    1.423   .     S
C206   C234    1.425   .     S
C207   C235    1.425   .     S
C208   C568    1.424   .     A
C209   C233    1.423   .     A
C210   C898    1.425   .     A
C211   C567    1.425   .     A
C212   C236    1.424   .     S
C229   C230    1.417   .     A
C229   C533    1.424   1_455 S
C230   C530    1.424   1_455 S
C231   C232    1.417   .     A
C231   C867    1.424   1_545 S
C232   C864    1.424   1_545 S
C233   C869    1.423   1_545 S
C233   C234    1.416   1_556 S
C234   C874    1.425   1_545 A
C234   C233    1.416   1_554 S
C235   C543    1.425   1_455 A
C235   C236    1.416   1_556 S
C236   C540    1.424   1_455 A
C236   C235    1.416   1_554 S
N237   O238    1.301   .     A
N237   O239    1.301   .     A
N240   O242    1.301   .     A
N240   O241    1.301   .     A
N243   O244    1.301   .     A
N243   O245    1.301   .     A
N246   O247    1.301   .     A
N246   O248    1.301   .     A
N249   O251    1.301   .     A
N249   O250    1.301   .     A
N252   O253    1.301   .     A
N252   O254    1.301   .     A
N255   O257    1.301   .     A
N255   O256    1.301   .     A
N258   O259    1.301   .     A
N258   O260    1.301   .     A
N261   O262    1.301   .     A
N261   O263    1.301   .     A
N264   O265    1.301   .     A
N264   O266    1.301   .     A
N267   O269    1.301   .     A
N267   O268    1.301   .     A
N270   O272    1.301   .     A
N270   O271    1.301   .     A
N273   O275    1.301   .     A
N273   O274    1.301   .     A
N276   O277    1.301   .     A
N276   O278    1.301   .     A
N279   O281    1.301   .     A
N279   O280    1.301   .     A
N282   O283    1.301   .     A
N282   O284    1.301   .     A
N285   O287    1.301   .     A
N285   O286    1.302   .     A
N288   O289    1.301   .     A
N288   O622    1.301   1_455 S
O290   N620    1.301   .     S
N291   O292    1.302   .     A
N291   O293    1.301   .     A
N294   O295    1.301   .     A
N294   O960    1.301   1_545 S
O296   N958    1.301   .     S
N297   O299    1.301   .     A
N297   O298    1.302   .     A
N300   O301    1.301   .     A
N300   O634    1.301   .     S
O302   N632    1.301   1_455 S
N303   O305    1.301   .     A
N303   O304    1.302   .     A
N306   O307    1.301   .     A
N306   O972    1.301   .     S
O308   N970    1.301   1_545 S
N309   O311    1.301   .     A
N309   O310    1.301   .     A
N312   O313    1.302   .     A
N312   O314    1.301   .     A
N315   O316    1.302   .     A
N315   O317    1.301   .     A
N318   O320    1.301   .     A
N318   O319    1.301   .     A
N321   O322    1.301   .     A
N321   O323    1.301   .     A
N324   O325    1.302   .     A
N324   O326    1.301   .     A
N327   O329    1.301   .     A
N327   O328    1.302   .     A
N330   O331    1.301   .     A
N330   O332    1.301   .     A
Zn333  O419    1.937   .     S
Zn333  O388    1.949   .     S
Zn333  O373    1.949   .     S
Zn333  O1080   1.937   1_545 S
Zn334  O387    1.949   .     S
Zn334  O415    1.937   .     S
Zn334  O374    1.949   .     S
Zn334  O1084   1.937   1_545 S
Zn335  O390    1.949   .     S
Zn335  O375    1.949   .     S
Zn335  O410    1.937   .     S
Zn336  O376    1.949   .     S
Zn336  O389    1.949   .     S
Zn336  O418    1.937   .     S
Zn337  O392    1.949   .     S
Zn337  O412    1.937   .     S
Zn337  O373    1.949   .     S
Zn337  O1087   1.937   1_545 S
Zn338  O424    1.937   .     S
Zn338  O391    1.949   .     S
Zn338  O374    1.949   .     S
Zn338  O1075   1.937   1_545 S
Zn339  O375    1.949   .     S
Zn339  O386    1.949   .     S
Zn339  O421    1.937   .     S
Zn340  O385    1.949   .     S
Zn340  O376    1.949   .     S
Zn340  O413    1.937   .     S
Zn341  O380    1.949   .     S
Zn341  O403    1.937   .     S
Zn341  O44     1.949   1_655 S
Zn341  O400    1.937   .     S
Zn342  O379    1.949   .     S
Zn342  O404    1.937   .     S
Zn342  O399    1.937   .     S
Zn342  O375    1.949   .     S
Zn343  O394    1.937   .     S
Zn343  O1038   1.949   .     S
Zn343  O401    1.937   .     S
Zn343  O382    1.949   .     S
Zn344  O381    1.949   .     S
Zn344  O402    1.937   .     S
Zn344  O393    1.937   .     S
Zn344  O373    1.949   .     S
Zn345  O407    1.937   .     S
Zn345  O384    1.949   .     S
Zn345  O396    1.937   .     S
Zn345  O376    1.949   .     S
Zn346  O408    1.937   .     S
Zn346  O43     1.949   1_655 S
Zn346  O383    1.949   .     S
Zn346  O395    1.937   .     S
Zn347  O398    1.937   .     S
Zn347  O405    1.937   .     S
Zn347  O378    1.949   .     S
Zn347  O374    1.949   .     S
Zn348  O377    1.949   .     S
Zn348  O397    1.937   .     S
Zn348  O406    1.937   .     S
Zn348  O1037   1.949   .     S
C349   C533    1.415   .     A
C349   N617    1.437   .     S
C349   C33     1.400   1_655 S
C350   N620    1.437   .     S
C350   C534    1.414   .     A
C350   C366    1.398   .     S
C351   C535    1.415   .     A
C351   N623    1.437   .     S
C351   C1031   1.400   .     S
C352   N626    1.437   .     S
C352   C536    1.414   .     A
C352   C368    1.398   .     A
C353   C529    1.415   .     A
C353   C365    1.400   .     A
C353   N629    1.437   .     S
C354   C34     1.398   1_655 A
C354   N632    1.437   .     S
C354   C530    1.414   .     A
C355   C367    1.400   .     A
C355   C531    1.415   .     A
C355   N635    1.437   .     S
C356   C532    1.414   .     A
C356   N638    1.437   .     S
C356   C1032   1.398   .     S
C357   N641    1.437   .     S
C357   C541    1.413   .     A
C357   C369    1.398   .     S
C358   C1034   1.400   .     A
C358   C542    1.415   .     A
C358   N644    1.437   .     S
C359   N647    1.437   .     S
C359   C39     1.400   1_655 A
C359   C543    1.415   .     A
C360   C372    1.398   .     A
C360   C544    1.413   .     A
C360   N650    1.437   .     S
C361   N653    1.437   .     S
C361   C537    1.413   .     A
C361   C1033   1.398   .     A
C362   N656    1.436   .     S
C362   C538    1.415   .     A
C362   C370    1.400   .     S
C363   C539    1.415   .     A
C363   N659    1.436   .     S
C363   C371    1.400   .     S
C364   C540    1.413   .     A
C364   N662    1.437   .     S
C364   C40     1.398   1_655 S
C365   C443    1.457   .     S
C366   C444    1.452   .     S
C367   C441    1.457   .     S
C367   C1015   1.400   1_545 S
C368   C1020   1.398   1_545 S
C368   C442    1.452   .     S
C369   C447    1.451   .     S
C369   C1025   1.398   1_545 A
C370   C1022   1.400   1_545 A
C370   C448    1.458   .     S
C371   C445    1.458   .     S
C372   C446    1.451   .     S
O373   Zn1012  1.949   1_545 S
O374   Zn1007  1.949   1_545 S
O377   C1105   1.278   .     S
O378   C442    1.277   .     S
O379   C443    1.278   .     A
O380   C112    1.277   1_655 A
O381   C441    1.278   .     A
O382   C1106   1.277   .     A
O383   C111    1.278   1_655 S
O384   C444    1.277   .     S
O385   C445    1.278   .     S
O386   C446    1.277   .     S
O387   C447    1.276   .     S
O388   C448    1.278   .     S
O389   C445    1.278   .     S
O390   C446    1.276   .     S
O391   C447    1.276   .     S
O392   C448    1.278   .     S
O393   C449    1.282   .     A
O394   C450    1.282   .     A
O395   C451    1.282   .     A
O396   C452    1.282   .     A
O397   C453    1.282   .     A
O398   C454    1.282   .     A
O399   C455    1.282   .     A
O400   C456    1.282   .     A
O401   C457    1.282   .     A
O402   C458    1.282   .     A
O403   C459    1.282   .     A
O404   C460    1.282   .     A
O405   C461    1.282   .     A
O406   C462    1.282   .     A
O407   C463    1.282   .     A
O408   C464    1.282   .     A
O409   C459    1.282   .     A
O409   Zn4     1.937   1_655 S
O410   C460    1.282   .     A
O411   C457    1.282   .     A
O411   Zn1002  1.937   .     S
O412   C458    1.282   .     A
O413   C463    1.282   .     A
O414   C464    1.282   .     A
O414   Zn7     1.937   1_655 S
O415   C461    1.282   .     A
O416   C462    1.282   .     A
O416   Zn997   1.937   .     S
O417   Zn3     1.937   1_655 S
O417   C451    1.282   .     A
O418   C452    1.282   .     A
O419   C449    1.282   .     A
O420   C450    1.282   .     A
O420   Zn998   1.937   .     S
O421   C455    1.282   .     A
O422   C456    1.282   .     A
O422   Zn8     1.937   1_655 S
O423   C453    1.282   .     A
O423   Zn1001  1.937   .     S
O424   C454    1.282   .     A
C425   N569    1.435   .     S
C425   C529    1.418   .     A
C425   C430    1.399   .     A
C426   C429    1.399   .     A
C426   N572    1.435   .     S
C426   C530    1.416   .     A
C427   C531    1.418   .     A
C427   C432    1.399   .     A
C427   N575    1.435   .     S
C428   C431    1.399   .     A
C428   C532    1.417   .     A
C428   N578    1.435   .     S
C429   N581    1.435   .     S
C429   C533    1.418   .     A
C430   N584    1.435   .     S
C430   C534    1.416   .     A
C431   C535    1.418   .     A
C431   N587    1.435   .     S
C432   N590    1.435   .     S
C432   C536    1.416   .     A
C433   N593    1.435   .     S
C433   C537    1.416   .     A
C433   C438    1.399   1_556 S
C434   C538    1.419   .     A
C434   N596    1.435   .     S
C434   C437    1.399   1_554 S
C435   N599    1.435   .     S
C435   C539    1.419   .     A
C435   C440    1.399   1_556 S
C436   N602    1.435   .     S
C436   C540    1.416   .     A
C436   C439    1.399   1_554 S
C437   N605    1.435   .     S
C437   C541    1.416   .     A
C437   C434    1.399   1_556 S
C438   C542    1.419   .     A
C438   N608    1.435   .     S
C438   C433    1.399   1_554 S
C439   C543    1.419   .     A
C439   N611    1.435   .     S
C439   C436    1.399   1_556 S
C440   C544    1.416   .     A
C440   N614    1.435   .     S
C440   C435    1.399   1_554 S
C441   O1041   1.278   1_545 S
C442   O1046   1.277   1_545 A
C449   C547    1.456   .     S
C450   C548    1.456   .     S
C451   C549    1.455   .     S
C452   C550    1.455   .     S
C453   C551    1.456   .     S
C454   C552    1.456   .     S
C455   C545    1.456   .     S
C456   C546    1.455   .     S
C457   C555    1.455   .     S
C458   C556    1.455   .     S
C459   C557    1.456   .     S
C460   C558    1.456   .     S
C461   C559    1.455   .     S
C462   C560    1.455   .     S
C463   C553    1.456   .     S
C464   C554    1.456   .     S
C465   H497    1.083   .     S
C465   C560    1.402   .     A
C465   C480    1.386   .     A
C466   C559    1.402   .     A
C466   C479    1.386   .     A
C466   H498    1.083   .     S
C467   C558    1.402   .     A
C467   C478    1.386   .     A
C467   H499    1.083   .     S
C468   C557    1.402   .     A
C468   C477    1.386   .     A
C468   H500    1.083   .     S
C469   C556    1.402   .     A
C469   C476    1.386   .     A
C469   H501    1.083   .     S
C470   C475    1.386   .     A
C470   C555    1.402   .     A
C470   H502    1.083   .     S
C471   C474    1.386   .     A
C471   H503    1.083   .     S
C471   C554    1.402   .     A
C472   C473    1.386   .     A
C472   C553    1.402   .     A
C472   H504    1.083   .     S
C473   C552    1.402   .     A
C473   H505    1.083   .     S
C474   C551    1.402   .     A
C474   H506    1.083   .     S
C475   H507    1.083   .     S
C475   C550    1.402   .     A
C476   C549    1.402   .     A
C476   H508    1.083   .     S
C477   C548    1.402   .     A
C477   H509    1.083   .     S
C478   H510    1.083   .     S
C478   C547    1.402   .     A
C479   C546    1.402   .     A
C479   H511    1.083   .     S
C480   H512    1.083   .     S
C480   C545    1.402   .     A
C481   C496    1.386   .     A
C481   H513    1.083   .     S
C481   C546    1.402   .     A
C482   C495    1.386   .     A
C482   H514    1.083   .     S
C482   C545    1.402   .     A
C483   H515    1.083   .     S
C483   C494    1.386   .     A
C483   C548    1.402   .     A
C484   C493    1.386   .     A
C484   H516    1.083   .     S
C484   C547    1.402   .     A
C485   C492    1.386   .     A
C485   C550    1.402   .     A
C485   H517    1.083   .     S
C486   H518    1.083   .     S
C486   C549    1.402   .     A
C486   C491    1.386   .     A
C487   C490    1.386   .     A
C487   C552    1.402   .     A
C487   H519    1.083   .     S
C488   H520    1.083   .     S
C488   C551    1.402   .     A
C488   C489    1.386   .     A
C489   H521    1.083   .     S
C489   C554    1.402   .     A
C490   H522    1.083   .     S
C490   C553    1.402   .     A
C491   H523    1.083   .     S
C491   C556    1.402   .     A
C492   H524    1.083   .     S
C492   C555    1.402   .     A
C493   H525    1.083   .     S
C493   C558    1.402   .     A
C494   H526    1.083   .     S
C494   C557    1.402   .     A
C495   H527    1.083   .     S
C495   C560    1.402   .     A
C496   H528    1.083   .     S
C496   C559    1.402   .     A
C529   C561    1.424   .     A
C530   C230    1.424   1_655 S
C531   C563    1.424   .     A
C532   C1228   1.424   .     S
C533   C229    1.424   1_655 S
C534   C562    1.424   .     A
C535   C1227   1.424   .     S
C536   C564    1.424   .     A
C537   C1229   1.423   .     S
C538   C566    1.425   .     S
C539   C567    1.425   .     S
C540   C236    1.424   1_655 A
C541   C565    1.423   .     A
C542   C1230   1.425   .     A
C543   C235    1.425   1_655 A
C544   C568    1.424   .     S
C561   C562    1.417   .     A
C563   C564    1.417   .     A
C563   C1199   1.424   1_545 S
C564   C1196   1.424   1_545 S
C565   C1201   1.423   1_545 S
C565   C566    1.416   1_556 S
C566   C1206   1.425   1_545 A
C566   C565    1.416   1_554 S
C567   C568    1.416   1_556 S
C568   C567    1.416   1_554 S
N569   O570    1.301   .     A
N569   O571    1.301   .     A
N572   O574    1.301   .     A
N572   O573    1.301   .     A
N575   O576    1.301   .     A
N575   O577    1.301   .     A
N578   O579    1.301   .     A
N578   O580    1.301   .     A
N581   O583    1.301   .     A
N581   O582    1.301   .     A
N584   O585    1.301   .     A
N584   O586    1.301   .     A
N587   O589    1.301   .     A
N587   O588    1.301   .     A
N590   O591    1.301   .     A
N590   O592    1.301   .     A
N593   O594    1.301   .     A
N593   O595    1.301   .     A
N596   O597    1.301   .     A
N596   O598    1.301   .     A
N599   O601    1.301   .     A
N599   O600    1.301   .     A
N602   O604    1.301   .     A
N602   O603    1.301   .     A
N605   O607    1.301   .     A
N605   O606    1.301   .     A
N608   O609    1.301   .     A
N608   O610    1.301   .     A
N611   O613    1.301   .     A
N611   O612    1.301   .     A
N614   O615    1.301   .     A
N614   O616    1.301   .     A
N617   O619    1.301   .     A
N617   O618    1.302   .     A
N620   O621    1.301   .     A
O622   N288    1.301   1_655 S
N623   O624    1.302   .     A
N623   O625    1.301   .     A
N626   O627    1.301   .     A
N626   O1292   1.301   1_545 S
O628   N1290   1.301   .     S
N629   O631    1.301   .     A
N629   O630    1.302   .     A
N632   O633    1.301   .     A
N632   O302    1.301   1_655 S
N635   O637    1.301   .     A
N635   O636    1.302   .     A
N638   O639    1.301   .     A
N638   O1304   1.301   .     S
O640   N1302   1.301   1_545 S
N641   O643    1.301   .     A
N641   O642    1.301   .     A
N644   O645    1.302   .     A
N644   O646    1.301   .     A
N647   O648    1.302   .     A
N647   O649    1.301   .     A
N650   O652    1.301   .     A
N650   O651    1.301   .     A
N653   O654    1.301   .     A
N653   O655    1.301   .     A
N656   O657    1.302   .     A
N656   O658    1.301   .     A
N659   O661    1.301   .     A
N659   O660    1.302   .     A
N662   O663    1.301   .     A
N662   O664    1.301   .     A
Zn665  O751    1.937   .     S
Zn665  O720    1.949   .     S
Zn665  O705    1.949   .     S
Zn666  O719    1.949   .     S
Zn666  O747    1.937   .     S
Zn666  O706    1.949   .     S
Zn667  O1081   1.937   1_455 S
Zn667  O722    1.949   .     S
Zn667  O707    1.949   .     S
Zn667  O742    1.937   .     S
Zn668  O708    1.949   .     S
Zn668  O1073   1.937   1_455 S
Zn668  O721    1.949   .     S
Zn668  O750    1.937   .     S
Zn669  O724    1.949   .     S
Zn669  O744    1.937   .     S
Zn669  O705    1.949   .     S
Zn670  O756    1.937   .     S
Zn670  O723    1.949   .     S
Zn670  O706    1.949   .     S
Zn671  O707    1.949   .     S
Zn671  O718    1.949   .     S
Zn671  O1078   1.937   1_455 S
Zn671  O753    1.937   .     S
Zn672  O717    1.949   .     S
Zn672  O1086   1.937   1_455 S
Zn672  O708    1.949   .     S
Zn672  O745    1.937   .     S
Zn673  O712    1.949   .     S
Zn673  O735    1.937   .     S
Zn673  O1040   1.949   .     S
Zn673  O732    1.937   .     S
Zn674  O711    1.949   .     S
Zn674  O736    1.937   .     S
Zn674  O731    1.937   .     S
Zn674  O707    1.949   .     S
Zn675  O726    1.937   .     S
Zn675  O42     1.949   1_565 S
Zn675  O733    1.937   .     S
Zn675  O714    1.949   .     S
Zn676  O713    1.949   .     S
Zn676  O734    1.937   .     S
Zn676  O725    1.937   .     S
Zn676  O705    1.949   .     S
Zn677  O739    1.937   .     S
Zn677  O716    1.949   .     S
Zn677  O728    1.937   .     S
Zn677  O708    1.949   .     S
Zn678  O740    1.937   .     S
Zn678  O1039   1.949   .     S
Zn678  O715    1.949   .     S
Zn678  O727    1.937   .     S
Zn679  O730    1.937   .     S
Zn679  O737    1.937   .     S
Zn679  O710    1.949   .     S
Zn679  O706    1.949   .     S
Zn680  O709    1.949   .     S
Zn680  O729    1.937   .     S
Zn680  O738    1.937   .     S
Zn680  O41     1.949   1_565 S
C681   C865    1.415   .     A
C681   N949    1.437   .     S
C681   C1029   1.400   .     S
C682   N952    1.437   .     S
C682   C866    1.414   .     A
C682   C698    1.398   .     S
C683   C867    1.415   .     A
C683   N955    1.437   .     S
C683   C35     1.400   1_565 S
C684   N958    1.437   .     S
C684   C868    1.414   .     A
C684   C700    1.398   .     A
C685   C861    1.415   .     A
C685   C697    1.400   .     A
C685   N961    1.437   .     S
C686   C1030   1.398   .     A
C686   N964    1.437   .     S
C686   C862    1.414   .     A
C687   C699    1.400   .     A
C687   C863    1.415   .     A
C687   N967    1.437   .     S
C688   C864    1.414   .     A
C688   N970    1.437   .     S
C688   C36     1.398   1_565 S
C689   N973    1.437   .     S
C689   C873    1.413   .     A
C689   C701    1.398   .     S
C690   C38     1.400   1_565 A
C690   C874    1.415   .     A
C690   N976    1.437   .     S
C691   N979    1.437   .     S
C691   C1035   1.400   .     A
C691   C875    1.415   .     A
C692   C704    1.398   .     A
C692   C876    1.413   .     A
C692   N982    1.437   .     S
C693   N985    1.437   .     S
C693   C869    1.413   .     A
C693   C37     1.398   1_565 A
C694   N988    1.436   .     S
C694   C870    1.415   .     A
C694   C702    1.400   .     S
C695   C871    1.415   .     A
C695   N991    1.436   .     S
C695   C703    1.400   .     S
C696   C872    1.413   .     A
C696   N994    1.437   .     S
C696   C1036   1.398   .     S
C697   C775    1.457   .     S
C697   C1013   1.400   1_455 S
C698   C776    1.452   .     S
C698   C1018   1.398   1_455 A
C699   C773    1.457   .     S
C700   C774    1.452   .     S
C701   C779    1.451   .     S
C702   C780    1.458   .     S
C703   C1023   1.400   1_455 A
C703   C777    1.458   .     S
C704   C778    1.451   .     S
C704   C1028   1.398   1_455 S
O707   Zn1010  1.949   1_455 S
O708   Zn1005  1.949   1_455 S
O709   C109    1.278   1_565 S
O710   C774    1.277   .     S
O711   C775    1.278   .     A
O712   C1108   1.277   .     A
O713   C773    1.278   .     A
O714   C110    1.277   1_565 A
O715   C1107   1.278   .     S
O716   C776    1.277   .     S
O717   C777    1.278   .     S
O718   C778    1.277   .     S
O719   C779    1.276   .     S
O720   C780    1.278   .     S
O721   C777    1.278   .     S
O722   C778    1.276   .     S
O723   C779    1.276   .     S
O724   C780    1.278   .     S
O725   C781    1.282   .     A
O726   C782    1.282   .     A
O727   C783    1.282   .     A
O728   C784    1.282   .     A
O729   C785    1.282   .     A
O730   C786    1.282   .     A
O731   C787    1.282   .     A
O732   C788    1.282   .     A
O733   C789    1.282   .     A
O734   C790    1.282   .     A
O735   C791    1.282   .     A
O736   C792    1.282   .     A
O737   C793    1.282   .     A
O738   C794    1.282   .     A
O739   C795    1.282   .     A
O740   C796    1.282   .     A
O741   C791    1.282   .     A
O741   Zn1000  1.937   .     S
O742   C792    1.282   .     A
O743   C789    1.282   .     A
O743   Zn6     1.937   1_565 S
O744   C790    1.282   .     A
O745   C795    1.282   .     A
O746   C796    1.282   .     A
O746   Zn1003  1.937   .     S
O747   C793    1.282   .     A
O748   C794    1.282   .     A
O748   Zn1     1.937   1_565 S
O749   Zn999   1.937   .     S
O749   C783    1.282   .     A
O750   C784    1.282   .     A
O751   C781    1.282   .     A
O752   C782    1.282   .     A
O752   Zn2     1.937   1_565 S
O753   C787    1.282   .     A
O754   C788    1.282   .     A
O754   Zn1004  1.937   .     S
O755   C785    1.282   .     A
O755   Zn5     1.937   1_565 S
O756   C786    1.282   .     A
C757   N901    1.435   .     S
C757   C861    1.418   .     A
C757   C762    1.399   .     A
C758   C761    1.399   .     A
C758   N904    1.435   .     S
C758   C862    1.416   .     A
C759   C863    1.418   .     A
C759   C764    1.399   .     A
C759   N907    1.435   .     S
C760   C763    1.399   .     A
C760   C864    1.417   .     A
C760   N910    1.435   .     S
C761   N913    1.435   .     S
C761   C865    1.418   .     A
C762   N916    1.435   .     S
C762   C866    1.416   .     A
C763   C867    1.418   .     A
C763   N919    1.435   .     S
C764   N922    1.435   .     S
C764   C868    1.416   .     A
C765   N925    1.435   .     S
C765   C869    1.416   .     A
C765   C770    1.399   1_556 S
C766   C870    1.419   .     A
C766   N928    1.435   .     S
C766   C769    1.399   1_554 S
C767   N931    1.435   .     S
C767   C871    1.419   .     A
C767   C772    1.399   1_556 S
C768   N934    1.435   .     S
C768   C872    1.416   .     A
C768   C771    1.399   1_554 S
C769   N937    1.435   .     S
C769   C873    1.416   .     A
C769   C766    1.399   1_556 S
C770   C874    1.419   .     A
C770   N940    1.435   .     S
C770   C765    1.399   1_554 S
C771   C875    1.419   .     A
C771   N943    1.435   .     S
C771   C768    1.399   1_556 S
C772   C876    1.416   .     A
C772   N946    1.435   .     S
C772   C767    1.399   1_554 S
C775   O1047   1.278   1_455 S
C776   O1044   1.277   1_455 A
C781   C879    1.456   .     S
C782   C880    1.456   .     S
C783   C881    1.455   .     S
C784   C882    1.455   .     S
C785   C883    1.456   .     S
C786   C884    1.456   .     S
C787   C877    1.456   .     S
C788   C878    1.455   .     S
C789   C887    1.455   .     S
C790   C888    1.455   .     S
C791   C889    1.456   .     S
C792   C890    1.456   .     S
C793   C891    1.455   .     S
C794   C892    1.455   .     S
C795   C885    1.456   .     S
C796   C886    1.456   .     S
C797   H829    1.083   .     S
C797   C892    1.402   .     A
C797   C812    1.386   .     A
C798   C891    1.402   .     A
C798   C811    1.386   .     A
C798   H830    1.083   .     S
C799   C890    1.402   .     A
C799   C810    1.386   .     A
C799   H831    1.083   .     S
C800   C889    1.402   .     A
C800   C809    1.386   .     A
C800   H832    1.083   .     S
C801   C888    1.402   .     A
C801   C808    1.386   .     A
C801   H833    1.083   .     S
C802   C807    1.386   .     A
C802   C887    1.402   .     A
C802   H834    1.083   .     S
C803   C806    1.386   .     A
C803   H835    1.083   .     S
C803   C886    1.402   .     A
C804   C805    1.386   .     A
C804   C885    1.402   .     A
C804   H836    1.083   .     S
C805   C884    1.402   .     A
C805   H837    1.083   .     S
C806   C883    1.402   .     A
C806   H838    1.083   .     S
C807   H839    1.083   .     S
C807   C882    1.402   .     A
C808   C881    1.402   .     A
C808   H840    1.083   .     S
C809   C880    1.402   .     A
C809   H841    1.083   .     S
C810   H842    1.083   .     S
C810   C879    1.402   .     A
C811   C878    1.402   .     A
C811   H843    1.083   .     S
C812   H844    1.083   .     S
C812   C877    1.402   .     A
C813   C828    1.386   .     A
C813   H845    1.083   .     S
C813   C878    1.402   .     A
C814   C827    1.386   .     A
C814   H846    1.083   .     S
C814   C877    1.402   .     A
C815   H847    1.083   .     S
C815   C826    1.386   .     A
C815   C880    1.402   .     A
C816   C825    1.386   .     A
C816   H848    1.083   .     S
C816   C879    1.402   .     A
C817   C824    1.386   .     A
C817   C882    1.402   .     A
C817   H849    1.083   .     S
C818   H850    1.083   .     S
C818   C881    1.402   .     A
C818   C823    1.386   .     A
C819   C822    1.386   .     A
C819   C884    1.402   .     A
C819   H851    1.083   .     S
C820   H852    1.083   .     S
C820   C883    1.402   .     A
C820   C821    1.386   .     A
C821   H853    1.083   .     S
C821   C886    1.402   .     A
C822   H854    1.083   .     S
C822   C885    1.402   .     A
C823   H855    1.083   .     S
C823   C888    1.402   .     A
C824   H856    1.083   .     S
C824   C887    1.402   .     A
C825   H857    1.083   .     S
C825   C890    1.402   .     A
C826   H858    1.083   .     S
C826   C889    1.402   .     A
C827   H859    1.083   .     S
C827   C892    1.402   .     A
C828   H860    1.083   .     S
C828   C891    1.402   .     A
C861   C893    1.424   .     A
C862   C1226   1.424   .     S
C863   C895    1.424   .     A
C864   C232    1.424   1_565 S
C865   C1225   1.424   .     S
C866   C894    1.424   .     A
C867   C231    1.424   1_565 S
C868   C896    1.424   .     A
C869   C233    1.423   1_565 S
C870   C898    1.425   .     S
C871   C899    1.425   .     S
C872   C1232   1.424   .     A
C873   C897    1.423   .     A
C874   C234    1.425   1_565 A
C875   C1231   1.425   .     A
C876   C900    1.424   .     S
C893   C894    1.417   .     A
C893   C1197   1.424   1_455 S
C894   C1194   1.424   1_455 S
C895   C896    1.417   .     A
C897   C898    1.416   1_556 S
C898   C897    1.416   1_554 S
C899   C1207   1.425   1_455 A
C899   C900    1.416   1_556 S
C900   C1204   1.424   1_455 A
C900   C899    1.416   1_554 S
N901   O902    1.301   .     A
N901   O903    1.301   .     A
N904   O906    1.301   .     A
N904   O905    1.301   .     A
N907   O908    1.301   .     A
N907   O909    1.301   .     A
N910   O911    1.301   .     A
N910   O912    1.301   .     A
N913   O915    1.301   .     A
N913   O914    1.301   .     A
N916   O917    1.301   .     A
N916   O918    1.301   .     A
N919   O921    1.301   .     A
N919   O920    1.301   .     A
N922   O923    1.301   .     A
N922   O924    1.301   .     A
N925   O926    1.301   .     A
N925   O927    1.301   .     A
N928   O929    1.301   .     A
N928   O930    1.301   .     A
N931   O933    1.301   .     A
N931   O932    1.301   .     A
N934   O936    1.301   .     A
N934   O935    1.301   .     A
N937   O939    1.301   .     A
N937   O938    1.301   .     A
N940   O941    1.301   .     A
N940   O942    1.301   .     A
N943   O945    1.301   .     A
N943   O944    1.301   .     A
N946   O947    1.301   .     A
N946   O948    1.301   .     A
N949   O951    1.301   .     A
N949   O950    1.302   .     A
N952   O953    1.301   .     A
N952   O1286   1.301   1_455 S
O954   N1284   1.301   .     S
N955   O956    1.302   .     A
N955   O957    1.301   .     A
N958   O959    1.301   .     A
O960   N294    1.301   1_565 S
N961   O963    1.301   .     A
N961   O962    1.302   .     A
N964   O965    1.301   .     A
N964   O1298   1.301   .     S
O966   N1296   1.301   1_455 S
N967   O969    1.301   .     A
N967   O968    1.302   .     A
N970   O971    1.301   .     A
N970   O308    1.301   1_565 S
N973   O975    1.301   .     A
N973   O974    1.301   .     A
N976   O977    1.302   .     A
N976   O978    1.301   .     A
N979   O980    1.302   .     A
N979   O981    1.301   .     A
N982   O984    1.301   .     A
N982   O983    1.301   .     A
N985   O986    1.301   .     A
N985   O987    1.301   .     A
N988   O989    1.302   .     A
N988   O990    1.301   .     A
N991   O993    1.301   .     A
N991   O992    1.302   .     A
N994   O995    1.301   .     A
N994   O996    1.301   .     A
Zn997  O1083   1.937   .     S
Zn997  O1052   1.949   .     S
Zn997  O1037   1.949   .     S
Zn998  O1051   1.949   .     S
Zn998  O1079   1.937   .     S
Zn998  O1038   1.949   .     S
Zn999  O1054   1.949   .     S
Zn999  O1039   1.949   .     S
Zn999  O1074   1.937   .     S
Zn1000 O1040   1.949   .     S
Zn1000 O1053   1.949   .     S
Zn1000 O1082   1.937   .     S
Zn1001 O1056   1.949   .     S
Zn1001 O1076   1.937   .     S
Zn1001 O1037   1.949   .     S
Zn1002 O1088   1.937   .     S
Zn1002 O1055   1.949   .     S
Zn1002 O1038   1.949   .     S
Zn1003 O1039   1.949   .     S
Zn1003 O1050   1.949   .     S
Zn1003 O1085   1.937   .     S
Zn1004 O1049   1.949   .     S
Zn1004 O1040   1.949   .     S
Zn1004 O1077   1.937   .     S
Zn1005 O1044   1.949   .     S
Zn1005 O1067   1.937   .     S
Zn1005 O708    1.949   1_655 S
Zn1005 O1064   1.937   .     S
Zn1006 O1043   1.949   .     S
Zn1006 O1068   1.937   .     S
Zn1006 O1063   1.937   .     S
Zn1006 O1039   1.949   .     S
Zn1007 O1058   1.937   .     S
Zn1007 O374    1.949   1_565 S
Zn1007 O1065   1.937   .     S
Zn1007 O1046   1.949   .     S
Zn1008 O1045   1.949   .     S
Zn1008 O1066   1.937   .     S
Zn1008 O1057   1.937   .     S
Zn1008 O1037   1.949   .     S
Zn1009 O1071   1.937   .     S
Zn1009 O1048   1.949   .     S
Zn1009 O1060   1.937   .     S
Zn1009 O1040   1.949   .     S
Zn1010 O1072   1.937   .     S
Zn1010 O707    1.949   1_655 S
Zn1010 O1047   1.949   .     S
Zn1010 O1059   1.937   .     S
Zn1011 O1062   1.937   .     S
Zn1011 O1069   1.937   .     S
Zn1011 O1042   1.949   .     S
Zn1011 O1038   1.949   .     S
Zn1012 O1041   1.949   .     S
Zn1012 O1061   1.937   .     S
Zn1012 O1070   1.937   .     S
Zn1012 O373    1.949   1_565 S
C1013  C1197   1.415   .     A
C1013  N1281   1.437   .     S
C1013  C697    1.400   1_655 S
C1014  N1284   1.437   .     S
C1014  C1198   1.414   .     A
C1014  C1030   1.398   .     S
C1015  C1199   1.415   .     A
C1015  N1287   1.437   .     S
C1015  C367    1.400   1_565 S
C1016  N1290   1.437   .     S
C1016  C1200   1.414   .     A
C1016  C1032   1.398   .     A
C1017  C1193   1.415   .     A
C1017  C1029   1.400   .     A
C1017  N1293   1.437   .     S
C1018  C698    1.398   1_655 A
C1018  N1296   1.437   .     S
C1018  C1194   1.414   .     A
C1019  C1031   1.400   .     A
C1019  C1195   1.415   .     A
C1019  N1299   1.437   .     S
C1020  C1196   1.414   .     A
C1020  N1302   1.437   .     S
C1020  C368    1.398   1_565 S
C1021  N1305   1.437   .     S
C1021  C1205   1.413   .     A
C1021  C1033   1.398   .     S
C1022  C370    1.400   1_565 A
C1022  C1206   1.415   .     A
C1022  N1308   1.437   .     S
C1023  N1311   1.437   .     S
C1023  C703    1.400   1_655 A
C1023  C1207   1.415   .     A
C1024  C1036   1.398   .     A
C1024  C1208   1.413   .     A
C1024  N1314   1.437   .     S
C1025  N1317   1.437   .     S
C1025  C1201   1.413   .     A
C1025  C369    1.398   1_565 A
C1026  N1320   1.436   .     S
C1026  C1202   1.415   .     A
C1026  C1034   1.400   .     S
C1027  C1203   1.415   .     A
C1027  N1323   1.436   .     S
C1027  C1035   1.400   .     S
C1028  C1204   1.413   .     A
C1028  N1326   1.437   .     S
C1028  C704    1.398   1_655 S
C1029  C1107   1.457   .     S
C1030  C1108   1.452   .     S
C1031  C1105   1.457   .     S
C1032  C1106   1.452   .     S
C1033  C1111   1.451   .     S
C1034  C1112   1.458   .     S
C1035  C1109   1.458   .     S
C1036  C1110   1.451   .     S
O1041  C441    1.278   1_565 S
O1042  C1106   1.277   .     S
O1043  C1107   1.278   .     A
O1044  C776    1.277   1_655 A
O1045  C1105   1.278   .     A
O1046  C442    1.277   1_565 A
O1047  C775    1.278   1_655 S
O1048  C1108   1.277   .     S
O1049  C1109   1.278   .     S
O1050  C1110   1.277   .     S
O1051  C1111   1.276   .     S
O1052  C1112   1.278   .     S
O1053  C1109   1.278   .     S
O1054  C1110   1.276   .     S
O1055  C1111   1.276   .     S
O1056  C1112   1.278   .     S
O1057  C1113   1.282   .     A
O1058  C1114   1.282   .     A
O1059  C1115   1.282   .     A
O1060  C1116   1.282   .     A
O1061  C1117   1.282   .     A
O1062  C1118   1.282   .     A
O1063  C1119   1.282   .     A
O1064  C1120   1.282   .     A
O1065  C1121   1.282   .     A
O1066  C1122   1.282   .     A
O1067  C1123   1.282   .     A
O1068  C1124   1.282   .     A
O1069  C1125   1.282   .     A
O1070  C1126   1.282   .     A
O1071  C1127   1.282   .     A
O1072  C1128   1.282   .     A
O1073  C1123   1.282   .     A
O1073  Zn668   1.937   1_655 S
O1074  C1124   1.282   .     A
O1075  C1121   1.282   .     A
O1075  Zn338   1.937   1_565 S
O1076  C1122   1.282   .     A
O1077  C1127   1.282   .     A
O1078  C1128   1.282   .     A
O1078  Zn671   1.937   1_655 S
O1079  C1125   1.282   .     A
O1080  C1126   1.282   .     A
O1080  Zn333   1.937   1_565 S
O1081  Zn667   1.937   1_655 S
O1081  C1115   1.282   .     A
O1082  C1116   1.282   .     A
O1083  C1113   1.282   .     A
O1084  C1114   1.282   .     A
O1084  Zn334   1.937   1_565 S
O1085  C1119   1.282   .     A
O1086  C1120   1.282   .     A
O1086  Zn672   1.937   1_655 S
O1087  C1117   1.282   .     A
O1087  Zn337   1.937   1_565 S
O1088  C1118   1.282   .     A
C1089  N1233   1.435   .     S
C1089  C1193   1.418   .     A
C1089  C1094   1.399   .     A
C1090  C1093   1.399   .     A
C1090  N1236   1.435   .     S
C1090  C1194   1.416   .     A
C1091  C1195   1.418   .     A
C1091  C1096   1.399   .     A
C1091  N1239   1.435   .     S
C1092  C1095   1.399   .     A
C1092  C1196   1.417   .     A
C1092  N1242   1.435   .     S
C1093  N1245   1.435   .     S
C1093  C1197   1.418   .     A
C1094  N1248   1.435   .     S
C1094  C1198   1.416   .     A
C1095  C1199   1.418   .     A
C1095  N1251   1.435   .     S
C1096  N1254   1.435   .     S
C1096  C1200   1.416   .     A
C1097  N1257   1.435   .     S
C1097  C1201   1.416   .     A
C1097  C1102   1.399   1_556 S
C1098  C1202   1.419   .     A
C1098  N1260   1.435   .     S
C1098  C1101   1.399   1_554 S
C1099  N1263   1.435   .     S
C1099  C1203   1.419   .     A
C1099  C1104   1.399   1_556 S
C1100  N1266   1.435   .     S
C1100  C1204   1.416   .     A
C1100  C1103   1.399   1_554 S
C1101  N1269   1.435   .     S
C1101  C1205   1.416   .     A
C1101  C1098   1.399   1_556 S
C1102  C1206   1.419   .     A
C1102  N1272   1.435   .     S
C1102  C1097   1.399   1_554 S
C1103  C1207   1.419   .     A
C1103  N1275   1.435   .     S
C1103  C1100   1.399   1_556 S
C1104  C1208   1.416   .     A
C1104  N1278   1.435   .     S
C1104  C1099   1.399   1_554 S
C1113  C1211   1.456   .     S
C1114  C1212   1.456   .     S
C1115  C1213   1.455   .     S
C1116  C1214   1.455   .     S
C1117  C1215   1.456   .     S
C1118  C1216   1.456   .     S
C1119  C1209   1.456   .     S
C1120  C1210   1.455   .     S
C1121  C1219   1.455   .     S
C1122  C1220   1.455   .     S
C1123  C1221   1.456   .     S
C1124  C1222   1.456   .     S
C1125  C1223   1.455   .     S
C1126  C1224   1.455   .     S
C1127  C1217   1.456   .     S
C1128  C1218   1.456   .     S
C1129  H1161   1.083   .     S
C1129  C1224   1.402   .     A
C1129  C1144   1.386   .     A
C1130  C1223   1.402   .     A
C1130  C1143   1.386   .     A
C1130  H1162   1.083   .     S
C1131  C1222   1.402   .     A
C1131  C1142   1.386   .     A
C1131  H1163   1.083   .     S
C1132  C1221   1.402   .     A
C1132  C1141   1.386   .     A
C1132  H1164   1.083   .     S
C1133  C1220   1.402   .     A
C1133  C1140   1.386   .     A
C1133  H1165   1.083   .     S
C1134  C1139   1.386   .     A
C1134  C1219   1.402   .     A
C1134  H1166   1.083   .     S
C1135  C1138   1.386   .     A
C1135  H1167   1.083   .     S
C1135  C1218   1.402   .     A
C1136  C1137   1.386   .     A
C1136  C1217   1.402   .     A
C1136  H1168   1.083   .     S
C1137  C1216   1.402   .     A
C1137  H1169   1.083   .     S
C1138  C1215   1.402   .     A
C1138  H1170   1.083   .     S
C1139  H1171   1.083   .     S
C1139  C1214   1.402   .     A
C1140  C1213   1.402   .     A
C1140  H1172   1.083   .     S
C1141  C1212   1.402   .     A
C1141  H1173   1.083   .     S
C1142  H1174   1.083   .     S
C1142  C1211   1.402   .     A
C1143  C1210   1.402   .     A
C1143  H1175   1.083   .     S
C1144  H1176   1.083   .     S
C1144  C1209   1.402   .     A
C1145  C1160   1.386   .     A
C1145  H1177   1.083   .     S
C1145  C1210   1.402   .     A
C1146  C1159   1.386   .     A
C1146  H1178   1.083   .     S
C1146  C1209   1.402   .     A
C1147  H1179   1.083   .     S
C1147  C1158   1.386   .     A
C1147  C1212   1.402   .     A
C1148  C1157   1.386   .     A
C1148  H1180   1.083   .     S
C1148  C1211   1.402   .     A
C1149  C1156   1.386   .     A
C1149  C1214   1.402   .     A
C1149  H1181   1.083   .     S
C1150  H1182   1.083   .     S
C1150  C1213   1.402   .     A
C1150  C1155   1.386   .     A
C1151  C1154   1.386   .     A
C1151  C1216   1.402   .     A
C1151  H1183   1.083   .     S
C1152  H1184   1.083   .     S
C1152  C1215   1.402   .     A
C1152  C1153   1.386   .     A
C1153  H1185   1.083   .     S
C1153  C1218   1.402   .     A
C1154  H1186   1.083   .     S
C1154  C1217   1.402   .     A
C1155  H1187   1.083   .     S
C1155  C1220   1.402   .     A
C1156  H1188   1.083   .     S
C1156  C1219   1.402   .     A
C1157  H1189   1.083   .     S
C1157  C1222   1.402   .     A
C1158  H1190   1.083   .     S
C1158  C1221   1.402   .     A
C1159  H1191   1.083   .     S
C1159  C1224   1.402   .     A
C1160  H1192   1.083   .     S
C1160  C1223   1.402   .     A
C1193  C1225   1.424   .     A
C1194  C894    1.424   1_655 S
C1195  C1227   1.424   .     A
C1196  C564    1.424   1_565 S
C1197  C893    1.424   1_655 S
C1198  C1226   1.424   .     A
C1199  C563    1.424   1_565 S
C1200  C1228   1.424   .     A
C1201  C565    1.423   1_565 S
C1202  C1230   1.425   .     S
C1203  C1231   1.425   .     S
C1204  C900    1.424   1_655 A
C1205  C1229   1.423   .     A
C1206  C566    1.425   1_565 A
C1207  C899    1.425   1_655 A
C1208  C1232   1.424   .     S
C1225  C1226   1.417   .     A
C1227  C1228   1.417   .     A
C1229  C1230   1.416   1_556 S
C1230  C1229   1.416   1_554 S
C1231  C1232   1.416   1_556 S
C1232  C1231   1.416   1_554 S
N1233  O1234   1.301   .     A
N1233  O1235   1.301   .     A
N1236  O1238   1.301   .     A
N1236  O1237   1.301   .     A
N1239  O1240   1.301   .     A
N1239  O1241   1.301   .     A
N1242  O1243   1.301   .     A
N1242  O1244   1.301   .     A
N1245  O1247   1.301   .     A
N1245  O1246   1.301   .     A
N1248  O1249   1.301   .     A
N1248  O1250   1.301   .     A
N1251  O1253   1.301   .     A
N1251  O1252   1.301   .     A
N1254  O1255   1.301   .     A
N1254  O1256   1.301   .     A
N1257  O1258   1.301   .     A
N1257  O1259   1.301   .     A
N1260  O1261   1.301   .     A
N1260  O1262   1.301   .     A
N1263  O1265   1.301   .     A
N1263  O1264   1.301   .     A
N1266  O1268   1.301   .     A
N1266  O1267   1.301   .     A
N1269  O1271   1.301   .     A
N1269  O1270   1.301   .     A
N1272  O1273   1.301   .     A
N1272  O1274   1.301   .     A
N1275  O1277   1.301   .     A
N1275  O1276   1.301   .     A
N1278  O1279   1.301   .     A
N1278  O1280   1.301   .     A
N1281  O1283   1.301   .     A
N1281  O1282   1.302   .     A
N1284  O1285   1.301   .     A
O1286  N952    1.301   1_655 S
N1287  O1288   1.302   .     A
N1287  O1289   1.301   .     A
N1290  O1291   1.301   .     A
O1292  N626    1.301   1_565 S
N1293  O1295   1.301   .     A
N1293  O1294   1.302   .     A
N1296  O1297   1.301   .     A
N1296  O966    1.301   1_655 S
N1299  O1301   1.301   .     A
N1299  O1300   1.302   .     A
N1302  O1303   1.301   .     A
N1302  O640    1.301   1_565 S
N1305  O1307   1.301   .     A
N1305  O1306   1.301   .     A
N1308  O1309   1.302   .     A
N1308  O1310   1.301   .     A
N1311  O1312   1.302   .     A
N1311  O1313   1.301   .     A
N1314  O1316   1.301   .     A
N1314  O1315   1.301   .     A
N1317  O1318   1.301   .     A
N1317  O1319   1.301   .     A
N1320  O1321   1.302   .     A
N1320  O1322   1.301   .     A
N1323  O1325   1.301   .     A
N1323  O1324   1.302   .     A
N1326  O1327   1.301   .     A
N1326  O1328   1.301   .     A
