data_str_m1_o10_o18_pcu_sym.53
_audit_creation_date              2020-01-03
_audit_creation_method            'Materials Studio'
_symmetry_space_group_name_H-M    'P1'
_symmetry_Int_Tables_number       1
_symmetry_cell_setting            triclinic
loop_
_symmetry_equiv_pos_as_xyz
  x,y,z
_cell_length_a                    32.5999
_cell_length_b                    32.4714
_cell_length_c                    35.6573
_cell_angle_alpha                 98.1362
_cell_angle_beta                  73.1579
_cell_angle_gamma                 98.5263
loop_
_atom_site_label
_atom_site_type_symbol
_atom_site_fract_x
_atom_site_fract_y
_atom_site_fract_z
_atom_site_U_iso_or_equiv
_atom_site_adp_type
_atom_site_occupancy
Zn1    Zn    0.19244   0.14090   0.28277   0.00000  Uiso   1.00
Zn2    Zn    0.13459   0.12378   0.22257   0.00000  Uiso   1.00
Zn3    Zn    0.21166   0.19664   0.21188   0.00000  Uiso   1.00
Zn4    Zn    0.12798   0.20535   0.28277   0.00000  Uiso   1.00
O5     O     0.16667   0.16667   0.25000   0.00000  Uiso   1.00
O6     O     0.06990   0.18960   0.27820   0.00000  Uiso   1.00
O7     O     0.25440   0.15277   0.26767   0.00000  Uiso   1.00
O8     O     0.13800   0.06903   0.23607   0.00000  Uiso   1.00
O9     O     0.20437   0.25527   0.21805   0.00000  Uiso   1.00
O10    O     0.15693   0.12393   0.16625   0.00000  Uiso   1.00
O11    O     0.12687   0.20646   0.33749   0.00000  Uiso   1.00
O12    O     0.21088   0.17493   0.15877   0.00000  Uiso   1.00
O13    O     0.17198   0.16135   0.33749   0.00000  Uiso   1.00
O14    O     0.17849   0.08101   0.27820   0.00000  Uiso   1.00
O15    O     0.14581   0.26136   0.26767   0.00000  Uiso   1.00
O16    O     0.07452   0.13251   0.23607   0.00000  Uiso   1.00
O17    O     0.26785   0.19179   0.21805   0.00000  Uiso   1.00
C18    C     0.05268   0.16004   0.25851   0.00000  Uiso   1.00
C19    C     0.28100   0.17342   0.24136   0.00000  Uiso   1.00
C20    C     0.15584   0.05611   0.25897   0.00000  Uiso   1.00
C21    C     0.17689   0.27768   0.24140   0.00000  Uiso   1.00
C22    C     0.18808   0.14537   0.14404   0.00000  Uiso   1.00
C23    C     0.14540   0.18758   0.35614   0.00000  Uiso   1.00
C24    C     0.13099   0.19016   0.39926   0.00000  Uiso   1.00
C25    C     0.19649   0.13699   0.10146   0.00000  Uiso   1.00
C26    C     0.07211   0.19285   0.45935   0.00000  Uiso   1.00
C27    C     0.08841   0.19686   0.41909   0.00000  Uiso   1.00
C28    C     0.15847   0.18134   0.42009   0.00000  Uiso   1.00
C29    C     0.14081   0.16937   0.45874   0.00000  Uiso   1.00
C30    C     0.09788   0.17782   0.47921   0.00000  Uiso   1.00
C31    C     0.16480   0.15043   0.47805   0.00000  Uiso   1.00
C32    C     0.15077   0.15147   0.01963   0.00000  Uiso   1.00
C33    C     0.10751   0.15778   0.03868   0.00000  Uiso   1.00
C34    C     0.08125   0.16958   0.01860   0.00000  Uiso   1.00
C35    C     0.19971   0.12704   0.45762   0.00000  Uiso   1.00
C36    C     0.22431   0.11295   0.47827   0.00000  Uiso   1.00
C37    C     0.21568   0.12148   0.01921   0.00000  Uiso   1.00
C38    C     0.17892   0.14211   0.04046   0.00000  Uiso   1.00
C39    C     0.24191   0.10811   0.03958   0.00000  Uiso   1.00
C40    C     0.23079   0.11455   0.08062   0.00000  Uiso   1.00
C41    C     0.17191   0.15308   0.08167   0.00000  Uiso   1.00
H42    H     0.04790   0.17235   0.03447   0.00000  Uiso   1.00
H43    H     0.25031   0.10368   0.09639   0.00000  Uiso   1.00
H44    H     0.24971   0.09427   0.46161   0.00000  Uiso   1.00
H45    H     0.06773   0.20537   0.40318   0.00000  Uiso   1.00
H46    H     0.09262   0.15128   0.06881   0.00000  Uiso   1.00
C47    C     0.32660   0.17680   0.23944   0.00000  Uiso   1.00
H48    H     0.01595   0.19721   0.21930   0.00000  Uiso   1.00
C49    C     0.00702   0.15636   0.26297   0.00000  Uiso   1.00
C50    C     0.18098   0.32224   0.23829   0.00000  Uiso   1.00
H51    H     0.20822   0.00298   0.21645   0.00000  Uiso   1.00
C52    C     0.15148   0.01205   0.26210   0.00000  Uiso   1.00
H53    H     0.12381   0.33209   0.28397   0.00000  Uiso   1.00
N54    N     0.28006   0.08833   0.01925   0.00000  Uiso   1.00
O55    O     0.28903   0.05694   0.03331   0.00000  Uiso   1.00
O56    O     0.30960   0.10628   0.49146   0.00000  Uiso   1.00
O57    O     0.31318   0.12636   0.28559   0.00000  Uiso   1.00
C58    C     0.31397   0.13460   0.32549   0.00000  Uiso   1.00
H59    H     0.28002   0.13102   0.34403   0.00000  Uiso   1.00
H60    H     0.32755   0.16718   0.33365   0.00000  Uiso   1.00
C61    C     0.00501   0.10267   0.33543   0.00000  Uiso   1.00
H62    H     0.32365   0.07049   0.32815   0.00000  Uiso   1.00
H63    H     0.03925   0.10604   0.31761   0.00000  Uiso   1.00
C64    C     0.00342   0.10872   0.37903   0.00000  Uiso   1.00
H65    H     0.01842   0.14053   0.38688   0.00000  Uiso   1.00
H66    H     0.02143   0.08527   0.38535   0.00000  Uiso   1.00
H67    H     0.30283   0.10449   0.39742   0.00000  Uiso   1.00
N68    N     0.14508   0.18520   0.10228   0.00000  Uiso   1.00
O69    O     0.15078   0.22125   0.08845   0.00000  Uiso   1.00
O70    O     0.11566   0.17903   0.13518   0.00000  Uiso   1.00
N71    N     0.02929   0.20345   0.47920   0.00000  Uiso   1.00
O72    O     0.33231   0.19461   0.46132   0.00000  Uiso   1.00
O73    O     0.02260   0.22865   0.01162   0.00000  Uiso   1.00
O74    O     0.20253   0.18543   0.40220   0.00000  Uiso   1.00
C75    C     0.22255   0.22253   0.41856   0.00000  Uiso   1.00
H76    H     0.25650   0.21755   0.41512   0.00000  Uiso   1.00
H77    H     0.20778   0.22991   0.45079   0.00000  Uiso   1.00
C78    C     0.22266   0.25965   0.39632   0.00000  Uiso   1.00
H79    H     0.23809   0.25204   0.36438   0.00000  Uiso   1.00
H80    H     0.18895   0.26560   0.40008   0.00000  Uiso   1.00
C81    C     0.24702   0.29931   0.41148   0.00000  Uiso   1.00
H82    H     0.23136   0.30810   0.44313   0.00000  Uiso   1.00
H83    H     0.24677   0.32546   0.39460   0.00000  Uiso   1.00
H84    H     0.28105   0.29442   0.40770   0.00000  Uiso   1.00
O85    O     0.20859   0.11448   0.41768   0.00000  Uiso   1.00
C86    C     0.18247   0.07683   0.41154   0.00000  Uiso   1.00
H87    H     0.14819   0.08289   0.41835   0.00000  Uiso   1.00
H88    H     0.18493   0.05291   0.43017   0.00000  Uiso   1.00
C89    C     0.19779   0.05937   0.36836   0.00000  Uiso   1.00
H90    H     0.19627   0.08300   0.34924   0.00000  Uiso   1.00
H91    H     0.23190   0.05299   0.36154   0.00000  Uiso   1.00
C92    C     0.17021   0.01902   0.35935   0.00000  Uiso   1.00
H93    H     0.16985   0.32882   0.37923   0.00000  Uiso   1.00
H94    H     0.18387   0.00584   0.32850   0.00000  Uiso   1.00
H95    H     0.13664   0.02540   0.36306   0.00000  Uiso   1.00
Zn96   Zn    0.52577   0.14090   0.28277   0.00000  Uiso   1.00
Zn97   Zn    0.46792   0.12378   0.22257   0.00000  Uiso   1.00
Zn98   Zn    0.54500   0.19664   0.21188   0.00000  Uiso   1.00
Zn99   Zn    0.46131   0.20535   0.28277   0.00000  Uiso   1.00
O100   O     0.50000   0.16667   0.25000   0.00000  Uiso   1.00
O101   O     0.40323   0.18960   0.27820   0.00000  Uiso   1.00
O102   O     0.58773   0.15277   0.26767   0.00000  Uiso   1.00
O103   O     0.47133   0.06903   0.23607   0.00000  Uiso   1.00
O104   O     0.53771   0.25527   0.21805   0.00000  Uiso   1.00
O105   O     0.49027   0.12393   0.16625   0.00000  Uiso   1.00
O106   O     0.46020   0.20646   0.33749   0.00000  Uiso   1.00
O107   O     0.54421   0.17493   0.15877   0.00000  Uiso   1.00
O108   O     0.50532   0.16135   0.33749   0.00000  Uiso   1.00
O109   O     0.51182   0.08101   0.27820   0.00000  Uiso   1.00
O110   O     0.47914   0.26136   0.26767   0.00000  Uiso   1.00
O111   O     0.40785   0.13251   0.23607   0.00000  Uiso   1.00
O112   O     0.60119   0.19179   0.21805   0.00000  Uiso   1.00
C113   C     0.38601   0.16004   0.25851   0.00000  Uiso   1.00
C114   C     0.61433   0.17342   0.24136   0.00000  Uiso   1.00
C115   C     0.48918   0.05611   0.25897   0.00000  Uiso   1.00
C116   C     0.51022   0.27768   0.24140   0.00000  Uiso   1.00
C117   C     0.52141   0.14537   0.14404   0.00000  Uiso   1.00
C118   C     0.47873   0.18758   0.35614   0.00000  Uiso   1.00
C119   C     0.46432   0.19016   0.39926   0.00000  Uiso   1.00
C120   C     0.52982   0.13699   0.10146   0.00000  Uiso   1.00
C121   C     0.40544   0.19285   0.45935   0.00000  Uiso   1.00
C122   C     0.42174   0.19686   0.41909   0.00000  Uiso   1.00
C123   C     0.49181   0.18134   0.42009   0.00000  Uiso   1.00
C124   C     0.47415   0.16937   0.45874   0.00000  Uiso   1.00
C125   C     0.43121   0.17782   0.47921   0.00000  Uiso   1.00
C126   C     0.49814   0.15043   0.47805   0.00000  Uiso   1.00
C127   C     0.48410   0.15147   0.01963   0.00000  Uiso   1.00
C128   C     0.44084   0.15778   0.03868   0.00000  Uiso   1.00
C129   C     0.41458   0.16958   0.01860   0.00000  Uiso   1.00
C130   C     0.53305   0.12704   0.45762   0.00000  Uiso   1.00
C131   C     0.55764   0.11295   0.47827   0.00000  Uiso   1.00
C132   C     0.54902   0.12148   0.01921   0.00000  Uiso   1.00
C133   C     0.51225   0.14211   0.04046   0.00000  Uiso   1.00
C134   C     0.57525   0.10811   0.03958   0.00000  Uiso   1.00
C135   C     0.56413   0.11455   0.08062   0.00000  Uiso   1.00
C136   C     0.50524   0.15308   0.08167   0.00000  Uiso   1.00
H137   H     0.38123   0.17235   0.03447   0.00000  Uiso   1.00
H138   H     0.58364   0.10368   0.09639   0.00000  Uiso   1.00
H139   H     0.58304   0.09427   0.46161   0.00000  Uiso   1.00
H140   H     0.40107   0.20537   0.40318   0.00000  Uiso   1.00
H141   H     0.42595   0.15128   0.06881   0.00000  Uiso   1.00
C142   C     0.65993   0.17680   0.23944   0.00000  Uiso   1.00
H143   H     0.34928   0.19721   0.21930   0.00000  Uiso   1.00
C144   C     0.34035   0.15636   0.26297   0.00000  Uiso   1.00
C145   C     0.51431   0.32224   0.23829   0.00000  Uiso   1.00
H146   H     0.54155   0.00298   0.21645   0.00000  Uiso   1.00
C147   C     0.48481   0.01205   0.26210   0.00000  Uiso   1.00
H148   H     0.45714   0.33209   0.28397   0.00000  Uiso   1.00
N149   N     0.61339   0.08833   0.01925   0.00000  Uiso   1.00
O150   O     0.62236   0.05694   0.03331   0.00000  Uiso   1.00
O151   O     0.64294   0.10628   0.49146   0.00000  Uiso   1.00
O152   O     0.64652   0.12636   0.28559   0.00000  Uiso   1.00
C153   C     0.64730   0.13460   0.32549   0.00000  Uiso   1.00
H154   H     0.61335   0.13102   0.34403   0.00000  Uiso   1.00
H155   H     0.66089   0.16718   0.33365   0.00000  Uiso   1.00
C156   C     0.33835   0.10267   0.33543   0.00000  Uiso   1.00
H157   H     0.65698   0.07049   0.32815   0.00000  Uiso   1.00
H158   H     0.37258   0.10604   0.31761   0.00000  Uiso   1.00
C159   C     0.33676   0.10872   0.37903   0.00000  Uiso   1.00
H160   H     0.35175   0.14053   0.38688   0.00000  Uiso   1.00
H161   H     0.35476   0.08527   0.38535   0.00000  Uiso   1.00
H162   H     0.63617   0.10449   0.39742   0.00000  Uiso   1.00
N163   N     0.47841   0.18520   0.10228   0.00000  Uiso   1.00
O164   O     0.48411   0.22125   0.08845   0.00000  Uiso   1.00
O165   O     0.44900   0.17903   0.13518   0.00000  Uiso   1.00
N166   N     0.36262   0.20345   0.47920   0.00000  Uiso   1.00
O167   O     0.66565   0.19461   0.46132   0.00000  Uiso   1.00
O168   O     0.35593   0.22865   0.01162   0.00000  Uiso   1.00
O169   O     0.53586   0.18543   0.40220   0.00000  Uiso   1.00
C170   C     0.55588   0.22253   0.41856   0.00000  Uiso   1.00
H171   H     0.58983   0.21755   0.41512   0.00000  Uiso   1.00
H172   H     0.54111   0.22991   0.45079   0.00000  Uiso   1.00
C173   C     0.55599   0.25965   0.39632   0.00000  Uiso   1.00
H174   H     0.57142   0.25204   0.36438   0.00000  Uiso   1.00
H175   H     0.52229   0.26560   0.40008   0.00000  Uiso   1.00
C176   C     0.58035   0.29931   0.41148   0.00000  Uiso   1.00
H177   H     0.56470   0.30810   0.44313   0.00000  Uiso   1.00
H178   H     0.58010   0.32546   0.39460   0.00000  Uiso   1.00
H179   H     0.61438   0.29442   0.40770   0.00000  Uiso   1.00
O180   O     0.54192   0.11448   0.41768   0.00000  Uiso   1.00
C181   C     0.51580   0.07683   0.41154   0.00000  Uiso   1.00
H182   H     0.48153   0.08289   0.41835   0.00000  Uiso   1.00
H183   H     0.51826   0.05291   0.43017   0.00000  Uiso   1.00
C184   C     0.53113   0.05937   0.36836   0.00000  Uiso   1.00
H185   H     0.52960   0.08300   0.34924   0.00000  Uiso   1.00
H186   H     0.56524   0.05299   0.36154   0.00000  Uiso   1.00
C187   C     0.50354   0.01902   0.35935   0.00000  Uiso   1.00
H188   H     0.50318   0.32882   0.37923   0.00000  Uiso   1.00
H189   H     0.51720   0.00584   0.32850   0.00000  Uiso   1.00
H190   H     0.46997   0.02540   0.36306   0.00000  Uiso   1.00
Zn191  Zn    0.85910   0.14090   0.28277   0.00000  Uiso   1.00
Zn192  Zn    0.80125   0.12378   0.22257   0.00000  Uiso   1.00
Zn193  Zn    0.87833   0.19664   0.21188   0.00000  Uiso   1.00
Zn194  Zn    0.79465   0.20535   0.28277   0.00000  Uiso   1.00
O195   O     0.83333   0.16667   0.25000   0.00000  Uiso   1.00
O196   O     0.73656   0.18960   0.27820   0.00000  Uiso   1.00
O197   O     0.92106   0.15277   0.26767   0.00000  Uiso   1.00
O198   O     0.80467   0.06903   0.23607   0.00000  Uiso   1.00
O199   O     0.87104   0.25527   0.21805   0.00000  Uiso   1.00
O200   O     0.82360   0.12393   0.16625   0.00000  Uiso   1.00
O201   O     0.79354   0.20646   0.33749   0.00000  Uiso   1.00
O202   O     0.87755   0.17493   0.15877   0.00000  Uiso   1.00
O203   O     0.83865   0.16135   0.33749   0.00000  Uiso   1.00
O204   O     0.84515   0.08101   0.27820   0.00000  Uiso   1.00
O205   O     0.81247   0.26136   0.26767   0.00000  Uiso   1.00
O206   O     0.74119   0.13251   0.23607   0.00000  Uiso   1.00
O207   O     0.93452   0.19179   0.21805   0.00000  Uiso   1.00
C208   C     0.71935   0.16004   0.25851   0.00000  Uiso   1.00
C209   C     0.94767   0.17342   0.24136   0.00000  Uiso   1.00
C210   C     0.82251   0.05611   0.25897   0.00000  Uiso   1.00
C211   C     0.84355   0.27768   0.24140   0.00000  Uiso   1.00
C212   C     0.85474   0.14537   0.14404   0.00000  Uiso   1.00
C213   C     0.81206   0.18758   0.35614   0.00000  Uiso   1.00
C214   C     0.79766   0.19016   0.39926   0.00000  Uiso   1.00
C215   C     0.86315   0.13699   0.10146   0.00000  Uiso   1.00
C216   C     0.73877   0.19285   0.45935   0.00000  Uiso   1.00
C217   C     0.75508   0.19686   0.41909   0.00000  Uiso   1.00
C218   C     0.82514   0.18134   0.42009   0.00000  Uiso   1.00
C219   C     0.80748   0.16937   0.45874   0.00000  Uiso   1.00
C220   C     0.76454   0.17782   0.47921   0.00000  Uiso   1.00
C221   C     0.83147   0.15043   0.47805   0.00000  Uiso   1.00
C222   C     0.81743   0.15147   0.01963   0.00000  Uiso   1.00
C223   C     0.77417   0.15778   0.03868   0.00000  Uiso   1.00
C224   C     0.74792   0.16958   0.01860   0.00000  Uiso   1.00
C225   C     0.86638   0.12704   0.45762   0.00000  Uiso   1.00
C226   C     0.89098   0.11295   0.47827   0.00000  Uiso   1.00
C227   C     0.88235   0.12148   0.01921   0.00000  Uiso   1.00
C228   C     0.84559   0.14211   0.04046   0.00000  Uiso   1.00
C229   C     0.90858   0.10811   0.03958   0.00000  Uiso   1.00
C230   C     0.89746   0.11455   0.08062   0.00000  Uiso   1.00
C231   C     0.83858   0.15308   0.08167   0.00000  Uiso   1.00
H232   H     0.71456   0.17235   0.03447   0.00000  Uiso   1.00
H233   H     0.91698   0.10368   0.09639   0.00000  Uiso   1.00
H234   H     0.91638   0.09427   0.46161   0.00000  Uiso   1.00
H235   H     0.73440   0.20537   0.40318   0.00000  Uiso   1.00
H236   H     0.75929   0.15128   0.06881   0.00000  Uiso   1.00
C237   C     0.99326   0.17680   0.23944   0.00000  Uiso   1.00
H238   H     0.68261   0.19721   0.21930   0.00000  Uiso   1.00
C239   C     0.67369   0.15636   0.26297   0.00000  Uiso   1.00
C240   C     0.84764   0.32224   0.23829   0.00000  Uiso   1.00
H241   H     0.87488   0.00298   0.21645   0.00000  Uiso   1.00
C242   C     0.81814   0.01205   0.26210   0.00000  Uiso   1.00
H243   H     0.79047   0.33209   0.28397   0.00000  Uiso   1.00
N244   N     0.94672   0.08833   0.01925   0.00000  Uiso   1.00
O245   O     0.95570   0.05694   0.03331   0.00000  Uiso   1.00
O246   O     0.97627   0.10628   0.49146   0.00000  Uiso   1.00
O247   O     0.97985   0.12636   0.28559   0.00000  Uiso   1.00
C248   C     0.98064   0.13460   0.32549   0.00000  Uiso   1.00
H249   H     0.94668   0.13102   0.34403   0.00000  Uiso   1.00
H250   H     0.99422   0.16718   0.33365   0.00000  Uiso   1.00
C251   C     0.67168   0.10267   0.33543   0.00000  Uiso   1.00
H252   H     0.99031   0.07049   0.32815   0.00000  Uiso   1.00
H253   H     0.70592   0.10604   0.31761   0.00000  Uiso   1.00
C254   C     0.67009   0.10872   0.37903   0.00000  Uiso   1.00
H255   H     0.68509   0.14053   0.38688   0.00000  Uiso   1.00
H256   H     0.68810   0.08527   0.38535   0.00000  Uiso   1.00
H257   H     0.96950   0.10449   0.39742   0.00000  Uiso   1.00
N258   N     0.81174   0.18520   0.10228   0.00000  Uiso   1.00
O259   O     0.81744   0.22125   0.08845   0.00000  Uiso   1.00
O260   O     0.78233   0.17903   0.13518   0.00000  Uiso   1.00
N261   N     0.69596   0.20345   0.47920   0.00000  Uiso   1.00
O262   O     0.99898   0.19461   0.46132   0.00000  Uiso   1.00
O263   O     0.68926   0.22865   0.01162   0.00000  Uiso   1.00
O264   O     0.86920   0.18543   0.40220   0.00000  Uiso   1.00
C265   C     0.88921   0.22253   0.41856   0.00000  Uiso   1.00
H266   H     0.92316   0.21755   0.41512   0.00000  Uiso   1.00
H267   H     0.87445   0.22991   0.45079   0.00000  Uiso   1.00
C268   C     0.88933   0.25965   0.39632   0.00000  Uiso   1.00
H269   H     0.90476   0.25204   0.36438   0.00000  Uiso   1.00
H270   H     0.85562   0.26560   0.40008   0.00000  Uiso   1.00
C271   C     0.91368   0.29931   0.41148   0.00000  Uiso   1.00
H272   H     0.89803   0.30810   0.44313   0.00000  Uiso   1.00
H273   H     0.91343   0.32546   0.39460   0.00000  Uiso   1.00
H274   H     0.94772   0.29442   0.40770   0.00000  Uiso   1.00
O275   O     0.87526   0.11448   0.41768   0.00000  Uiso   1.00
C276   C     0.84914   0.07683   0.41154   0.00000  Uiso   1.00
H277   H     0.81486   0.08289   0.41835   0.00000  Uiso   1.00
H278   H     0.85160   0.05291   0.43017   0.00000  Uiso   1.00
C279   C     0.86446   0.05937   0.36836   0.00000  Uiso   1.00
H280   H     0.86294   0.08300   0.34924   0.00000  Uiso   1.00
H281   H     0.89857   0.05299   0.36154   0.00000  Uiso   1.00
C282   C     0.83688   0.01902   0.35935   0.00000  Uiso   1.00
H283   H     0.83651   0.32882   0.37923   0.00000  Uiso   1.00
H284   H     0.85053   0.00584   0.32850   0.00000  Uiso   1.00
H285   H     0.80330   0.02540   0.36306   0.00000  Uiso   1.00
Zn286  Zn    0.19244   0.47423   0.28277   0.00000  Uiso   1.00
Zn287  Zn    0.13459   0.45711   0.22257   0.00000  Uiso   1.00
Zn288  Zn    0.21166   0.52997   0.21188   0.00000  Uiso   1.00
Zn289  Zn    0.12798   0.53868   0.28277   0.00000  Uiso   1.00
O290   O     0.16667   0.50000   0.25000   0.00000  Uiso   1.00
O291   O     0.06990   0.52293   0.27820   0.00000  Uiso   1.00
O292   O     0.25440   0.48610   0.26767   0.00000  Uiso   1.00
O293   O     0.13800   0.40236   0.23607   0.00000  Uiso   1.00
O294   O     0.20437   0.58860   0.21805   0.00000  Uiso   1.00
O295   O     0.15693   0.45726   0.16625   0.00000  Uiso   1.00
O296   O     0.12687   0.53979   0.33749   0.00000  Uiso   1.00
O297   O     0.21088   0.50826   0.15877   0.00000  Uiso   1.00
O298   O     0.17198   0.49468   0.33749   0.00000  Uiso   1.00
O299   O     0.17849   0.41434   0.27820   0.00000  Uiso   1.00
O300   O     0.14581   0.59469   0.26767   0.00000  Uiso   1.00
O301   O     0.07452   0.46584   0.23607   0.00000  Uiso   1.00
O302   O     0.26785   0.52512   0.21805   0.00000  Uiso   1.00
C303   C     0.05268   0.49338   0.25851   0.00000  Uiso   1.00
C304   C     0.28100   0.50676   0.24136   0.00000  Uiso   1.00
C305   C     0.15584   0.38945   0.25897   0.00000  Uiso   1.00
C306   C     0.17689   0.61102   0.24140   0.00000  Uiso   1.00
C307   C     0.18808   0.47870   0.14404   0.00000  Uiso   1.00
C308   C     0.14540   0.52092   0.35614   0.00000  Uiso   1.00
C309   C     0.13099   0.52350   0.39926   0.00000  Uiso   1.00
C310   C     0.19649   0.47033   0.10146   0.00000  Uiso   1.00
C311   C     0.07211   0.52618   0.45935   0.00000  Uiso   1.00
C312   C     0.08841   0.53019   0.41909   0.00000  Uiso   1.00
C313   C     0.15847   0.51467   0.42009   0.00000  Uiso   1.00
C314   C     0.14081   0.50270   0.45874   0.00000  Uiso   1.00
C315   C     0.09788   0.51116   0.47921   0.00000  Uiso   1.00
C316   C     0.16480   0.48376   0.47805   0.00000  Uiso   1.00
C317   C     0.15077   0.48480   0.01963   0.00000  Uiso   1.00
C318   C     0.10751   0.49111   0.03868   0.00000  Uiso   1.00
C319   C     0.08125   0.50291   0.01860   0.00000  Uiso   1.00
C320   C     0.19971   0.46038   0.45762   0.00000  Uiso   1.00
C321   C     0.22431   0.44629   0.47827   0.00000  Uiso   1.00
C322   C     0.21568   0.45482   0.01921   0.00000  Uiso   1.00
C323   C     0.17892   0.47544   0.04046   0.00000  Uiso   1.00
C324   C     0.24191   0.44144   0.03958   0.00000  Uiso   1.00
C325   C     0.23079   0.44788   0.08062   0.00000  Uiso   1.00
C326   C     0.17191   0.48641   0.08167   0.00000  Uiso   1.00
H327   H     0.04790   0.50569   0.03447   0.00000  Uiso   1.00
H328   H     0.25031   0.43701   0.09639   0.00000  Uiso   1.00
H329   H     0.24971   0.42761   0.46161   0.00000  Uiso   1.00
H330   H     0.06773   0.53871   0.40318   0.00000  Uiso   1.00
H331   H     0.09262   0.48461   0.06881   0.00000  Uiso   1.00
C332   C     0.32660   0.51013   0.23944   0.00000  Uiso   1.00
H333   H     0.01595   0.53055   0.21930   0.00000  Uiso   1.00
C334   C     0.00702   0.48969   0.26297   0.00000  Uiso   1.00
C335   C     0.18098   0.65557   0.23829   0.00000  Uiso   1.00
H336   H     0.20822   0.33631   0.21645   0.00000  Uiso   1.00
C337   C     0.15148   0.34539   0.26210   0.00000  Uiso   1.00
H338   H     0.12381   0.66542   0.28397   0.00000  Uiso   1.00
N339   N     0.28006   0.42166   0.01925   0.00000  Uiso   1.00
O340   O     0.28903   0.39027   0.03331   0.00000  Uiso   1.00
O341   O     0.30960   0.43961   0.49146   0.00000  Uiso   1.00
O342   O     0.31318   0.45969   0.28559   0.00000  Uiso   1.00
C343   C     0.31397   0.46793   0.32549   0.00000  Uiso   1.00
H344   H     0.28002   0.46435   0.34403   0.00000  Uiso   1.00
H345   H     0.32755   0.50051   0.33365   0.00000  Uiso   1.00
C346   C     0.00501   0.43600   0.33543   0.00000  Uiso   1.00
H347   H     0.32365   0.40382   0.32815   0.00000  Uiso   1.00
H348   H     0.03925   0.43938   0.31761   0.00000  Uiso   1.00
C349   C     0.00342   0.44205   0.37903   0.00000  Uiso   1.00
H350   H     0.01842   0.47386   0.38688   0.00000  Uiso   1.00
H351   H     0.02143   0.41860   0.38535   0.00000  Uiso   1.00
H352   H     0.30283   0.43782   0.39742   0.00000  Uiso   1.00
N353   N     0.14508   0.51853   0.10228   0.00000  Uiso   1.00
O354   O     0.15078   0.55459   0.08845   0.00000  Uiso   1.00
O355   O     0.11566   0.51236   0.13518   0.00000  Uiso   1.00
N356   N     0.02929   0.53678   0.47920   0.00000  Uiso   1.00
O357   O     0.33231   0.52794   0.46132   0.00000  Uiso   1.00
O358   O     0.02260   0.56198   0.01162   0.00000  Uiso   1.00
O359   O     0.20253   0.51876   0.40220   0.00000  Uiso   1.00
C360   C     0.22255   0.55586   0.41856   0.00000  Uiso   1.00
H361   H     0.25650   0.55088   0.41512   0.00000  Uiso   1.00
H362   H     0.20778   0.56324   0.45079   0.00000  Uiso   1.00
C363   C     0.22266   0.59298   0.39632   0.00000  Uiso   1.00
H364   H     0.23809   0.58538   0.36438   0.00000  Uiso   1.00
H365   H     0.18895   0.59893   0.40008   0.00000  Uiso   1.00
C366   C     0.24702   0.63264   0.41148   0.00000  Uiso   1.00
H367   H     0.23136   0.64143   0.44313   0.00000  Uiso   1.00
H368   H     0.24677   0.65879   0.39460   0.00000  Uiso   1.00
H369   H     0.28105   0.62775   0.40770   0.00000  Uiso   1.00
O370   O     0.20859   0.44781   0.41768   0.00000  Uiso   1.00
C371   C     0.18247   0.41016   0.41154   0.00000  Uiso   1.00
H372   H     0.14819   0.41622   0.41835   0.00000  Uiso   1.00
H373   H     0.18493   0.38624   0.43017   0.00000  Uiso   1.00
C374   C     0.19779   0.39271   0.36836   0.00000  Uiso   1.00
H375   H     0.19627   0.41633   0.34924   0.00000  Uiso   1.00
H376   H     0.23190   0.38632   0.36154   0.00000  Uiso   1.00
C377   C     0.17021   0.35235   0.35935   0.00000  Uiso   1.00
H378   H     0.16985   0.66216   0.37923   0.00000  Uiso   1.00
H379   H     0.18387   0.33918   0.32850   0.00000  Uiso   1.00
H380   H     0.13664   0.35873   0.36306   0.00000  Uiso   1.00
Zn381  Zn    0.52577   0.47423   0.28277   0.00000  Uiso   1.00
Zn382  Zn    0.46792   0.45711   0.22257   0.00000  Uiso   1.00
Zn383  Zn    0.54500   0.52997   0.21188   0.00000  Uiso   1.00
Zn384  Zn    0.46131   0.53868   0.28277   0.00000  Uiso   1.00
O385   O     0.50000   0.50000   0.25000   0.00000  Uiso   1.00
O386   O     0.40323   0.52293   0.27820   0.00000  Uiso   1.00
O387   O     0.58773   0.48610   0.26767   0.00000  Uiso   1.00
O388   O     0.47133   0.40236   0.23607   0.00000  Uiso   1.00
O389   O     0.53771   0.58860   0.21805   0.00000  Uiso   1.00
O390   O     0.49027   0.45726   0.16625   0.00000  Uiso   1.00
O391   O     0.46020   0.53979   0.33749   0.00000  Uiso   1.00
O392   O     0.54421   0.50826   0.15877   0.00000  Uiso   1.00
O393   O     0.50532   0.49468   0.33749   0.00000  Uiso   1.00
O394   O     0.51182   0.41434   0.27820   0.00000  Uiso   1.00
O395   O     0.47914   0.59469   0.26767   0.00000  Uiso   1.00
O396   O     0.40785   0.46584   0.23607   0.00000  Uiso   1.00
O397   O     0.60119   0.52512   0.21805   0.00000  Uiso   1.00
C398   C     0.38601   0.49338   0.25851   0.00000  Uiso   1.00
C399   C     0.61433   0.50676   0.24136   0.00000  Uiso   1.00
C400   C     0.48918   0.38945   0.25897   0.00000  Uiso   1.00
C401   C     0.51022   0.61102   0.24140   0.00000  Uiso   1.00
C402   C     0.52141   0.47870   0.14404   0.00000  Uiso   1.00
C403   C     0.47873   0.52092   0.35614   0.00000  Uiso   1.00
C404   C     0.46432   0.52350   0.39926   0.00000  Uiso   1.00
C405   C     0.52982   0.47033   0.10146   0.00000  Uiso   1.00
C406   C     0.40544   0.52618   0.45935   0.00000  Uiso   1.00
C407   C     0.42174   0.53019   0.41909   0.00000  Uiso   1.00
C408   C     0.49181   0.51467   0.42009   0.00000  Uiso   1.00
C409   C     0.47415   0.50270   0.45874   0.00000  Uiso   1.00
C410   C     0.43121   0.51116   0.47921   0.00000  Uiso   1.00
C411   C     0.49814   0.48376   0.47805   0.00000  Uiso   1.00
C412   C     0.48410   0.48480   0.01963   0.00000  Uiso   1.00
C413   C     0.44084   0.49111   0.03868   0.00000  Uiso   1.00
C414   C     0.41458   0.50291   0.01860   0.00000  Uiso   1.00
C415   C     0.53305   0.46038   0.45762   0.00000  Uiso   1.00
C416   C     0.55764   0.44629   0.47827   0.00000  Uiso   1.00
C417   C     0.54902   0.45482   0.01921   0.00000  Uiso   1.00
C418   C     0.51225   0.47544   0.04046   0.00000  Uiso   1.00
C419   C     0.57525   0.44144   0.03958   0.00000  Uiso   1.00
C420   C     0.56413   0.44788   0.08062   0.00000  Uiso   1.00
C421   C     0.50524   0.48641   0.08167   0.00000  Uiso   1.00
H422   H     0.38123   0.50569   0.03447   0.00000  Uiso   1.00
H423   H     0.58364   0.43701   0.09639   0.00000  Uiso   1.00
H424   H     0.58304   0.42761   0.46161   0.00000  Uiso   1.00
H425   H     0.40107   0.53871   0.40318   0.00000  Uiso   1.00
H426   H     0.42595   0.48461   0.06881   0.00000  Uiso   1.00
C427   C     0.65993   0.51013   0.23944   0.00000  Uiso   1.00
H428   H     0.34928   0.53055   0.21930   0.00000  Uiso   1.00
C429   C     0.34035   0.48969   0.26297   0.00000  Uiso   1.00
C430   C     0.51431   0.65557   0.23829   0.00000  Uiso   1.00
H431   H     0.54155   0.33631   0.21645   0.00000  Uiso   1.00
C432   C     0.48481   0.34539   0.26210   0.00000  Uiso   1.00
H433   H     0.45714   0.66542   0.28397   0.00000  Uiso   1.00
N434   N     0.61339   0.42166   0.01925   0.00000  Uiso   1.00
O435   O     0.62236   0.39027   0.03331   0.00000  Uiso   1.00
O436   O     0.64294   0.43961   0.49146   0.00000  Uiso   1.00
O437   O     0.64652   0.45969   0.28559   0.00000  Uiso   1.00
C438   C     0.64730   0.46793   0.32549   0.00000  Uiso   1.00
H439   H     0.61335   0.46435   0.34403   0.00000  Uiso   1.00
H440   H     0.66089   0.50051   0.33365   0.00000  Uiso   1.00
C441   C     0.33835   0.43600   0.33543   0.00000  Uiso   1.00
H442   H     0.65698   0.40382   0.32815   0.00000  Uiso   1.00
H443   H     0.37258   0.43938   0.31761   0.00000  Uiso   1.00
C444   C     0.33676   0.44205   0.37903   0.00000  Uiso   1.00
H445   H     0.35175   0.47386   0.38688   0.00000  Uiso   1.00
H446   H     0.35476   0.41860   0.38535   0.00000  Uiso   1.00
H447   H     0.63617   0.43782   0.39742   0.00000  Uiso   1.00
N448   N     0.47841   0.51853   0.10228   0.00000  Uiso   1.00
O449   O     0.48411   0.55459   0.08845   0.00000  Uiso   1.00
O450   O     0.44900   0.51236   0.13518   0.00000  Uiso   1.00
N451   N     0.36262   0.53678   0.47920   0.00000  Uiso   1.00
O452   O     0.66565   0.52794   0.46132   0.00000  Uiso   1.00
O453   O     0.35593   0.56198   0.01162   0.00000  Uiso   1.00
O454   O     0.53586   0.51876   0.40220   0.00000  Uiso   1.00
C455   C     0.55588   0.55586   0.41856   0.00000  Uiso   1.00
H456   H     0.58983   0.55088   0.41512   0.00000  Uiso   1.00
H457   H     0.54111   0.56324   0.45079   0.00000  Uiso   1.00
C458   C     0.55599   0.59298   0.39632   0.00000  Uiso   1.00
H459   H     0.57142   0.58538   0.36438   0.00000  Uiso   1.00
H460   H     0.52229   0.59893   0.40008   0.00000  Uiso   1.00
C461   C     0.58035   0.63264   0.41148   0.00000  Uiso   1.00
H462   H     0.56470   0.64143   0.44313   0.00000  Uiso   1.00
H463   H     0.58010   0.65879   0.39460   0.00000  Uiso   1.00
H464   H     0.61438   0.62775   0.40770   0.00000  Uiso   1.00
O465   O     0.54192   0.44781   0.41768   0.00000  Uiso   1.00
C466   C     0.51580   0.41016   0.41154   0.00000  Uiso   1.00
H467   H     0.48153   0.41622   0.41835   0.00000  Uiso   1.00
H468   H     0.51826   0.38624   0.43017   0.00000  Uiso   1.00
C469   C     0.53113   0.39271   0.36836   0.00000  Uiso   1.00
H470   H     0.52960   0.41633   0.34924   0.00000  Uiso   1.00
H471   H     0.56524   0.38632   0.36154   0.00000  Uiso   1.00
C472   C     0.50354   0.35235   0.35935   0.00000  Uiso   1.00
H473   H     0.50318   0.66216   0.37923   0.00000  Uiso   1.00
H474   H     0.51720   0.33918   0.32850   0.00000  Uiso   1.00
H475   H     0.46997   0.35873   0.36306   0.00000  Uiso   1.00
Zn476  Zn    0.85910   0.47423   0.28277   0.00000  Uiso   1.00
Zn477  Zn    0.80125   0.45711   0.22257   0.00000  Uiso   1.00
Zn478  Zn    0.87833   0.52997   0.21188   0.00000  Uiso   1.00
Zn479  Zn    0.79465   0.53868   0.28277   0.00000  Uiso   1.00
O480   O     0.83333   0.50000   0.25000   0.00000  Uiso   1.00
O481   O     0.73656   0.52293   0.27820   0.00000  Uiso   1.00
O482   O     0.92106   0.48610   0.26767   0.00000  Uiso   1.00
O483   O     0.80467   0.40236   0.23607   0.00000  Uiso   1.00
O484   O     0.87104   0.58860   0.21805   0.00000  Uiso   1.00
O485   O     0.82360   0.45726   0.16625   0.00000  Uiso   1.00
O486   O     0.79354   0.53979   0.33749   0.00000  Uiso   1.00
O487   O     0.87755   0.50826   0.15877   0.00000  Uiso   1.00
O488   O     0.83865   0.49468   0.33749   0.00000  Uiso   1.00
O489   O     0.84515   0.41434   0.27820   0.00000  Uiso   1.00
O490   O     0.81247   0.59469   0.26767   0.00000  Uiso   1.00
O491   O     0.74119   0.46584   0.23607   0.00000  Uiso   1.00
O492   O     0.93452   0.52512   0.21805   0.00000  Uiso   1.00
C493   C     0.71935   0.49338   0.25851   0.00000  Uiso   1.00
C494   C     0.94767   0.50676   0.24136   0.00000  Uiso   1.00
C495   C     0.82251   0.38945   0.25897   0.00000  Uiso   1.00
C496   C     0.84355   0.61102   0.24140   0.00000  Uiso   1.00
C497   C     0.85474   0.47870   0.14404   0.00000  Uiso   1.00
C498   C     0.81206   0.52092   0.35614   0.00000  Uiso   1.00
C499   C     0.79766   0.52350   0.39926   0.00000  Uiso   1.00
C500   C     0.86315   0.47033   0.10146   0.00000  Uiso   1.00
C501   C     0.73877   0.52618   0.45935   0.00000  Uiso   1.00
C502   C     0.75508   0.53019   0.41909   0.00000  Uiso   1.00
C503   C     0.82514   0.51467   0.42009   0.00000  Uiso   1.00
C504   C     0.80748   0.50270   0.45874   0.00000  Uiso   1.00
C505   C     0.76454   0.51116   0.47921   0.00000  Uiso   1.00
C506   C     0.83147   0.48376   0.47805   0.00000  Uiso   1.00
C507   C     0.81743   0.48480   0.01963   0.00000  Uiso   1.00
C508   C     0.77417   0.49111   0.03868   0.00000  Uiso   1.00
C509   C     0.74792   0.50291   0.01860   0.00000  Uiso   1.00
C510   C     0.86638   0.46038   0.45762   0.00000  Uiso   1.00
C511   C     0.89098   0.44629   0.47827   0.00000  Uiso   1.00
C512   C     0.88235   0.45482   0.01921   0.00000  Uiso   1.00
C513   C     0.84559   0.47544   0.04046   0.00000  Uiso   1.00
C514   C     0.90858   0.44144   0.03958   0.00000  Uiso   1.00
C515   C     0.89746   0.44788   0.08062   0.00000  Uiso   1.00
C516   C     0.83858   0.48641   0.08167   0.00000  Uiso   1.00
H517   H     0.71456   0.50569   0.03447   0.00000  Uiso   1.00
H518   H     0.91698   0.43701   0.09639   0.00000  Uiso   1.00
H519   H     0.91638   0.42761   0.46161   0.00000  Uiso   1.00
H520   H     0.73440   0.53871   0.40318   0.00000  Uiso   1.00
H521   H     0.75929   0.48461   0.06881   0.00000  Uiso   1.00
C522   C     0.99326   0.51013   0.23944   0.00000  Uiso   1.00
H523   H     0.68261   0.53055   0.21930   0.00000  Uiso   1.00
C524   C     0.67369   0.48969   0.26297   0.00000  Uiso   1.00
C525   C     0.84764   0.65557   0.23829   0.00000  Uiso   1.00
H526   H     0.87488   0.33631   0.21645   0.00000  Uiso   1.00
C527   C     0.81814   0.34539   0.26210   0.00000  Uiso   1.00
H528   H     0.79047   0.66542   0.28397   0.00000  Uiso   1.00
N529   N     0.94672   0.42166   0.01925   0.00000  Uiso   1.00
O530   O     0.95570   0.39027   0.03331   0.00000  Uiso   1.00
O531   O     0.97627   0.43961   0.49146   0.00000  Uiso   1.00
O532   O     0.97985   0.45969   0.28559   0.00000  Uiso   1.00
C533   C     0.98064   0.46793   0.32549   0.00000  Uiso   1.00
H534   H     0.94668   0.46435   0.34403   0.00000  Uiso   1.00
H535   H     0.99422   0.50051   0.33365   0.00000  Uiso   1.00
C536   C     0.67168   0.43600   0.33543   0.00000  Uiso   1.00
H537   H     0.99031   0.40382   0.32815   0.00000  Uiso   1.00
H538   H     0.70592   0.43938   0.31761   0.00000  Uiso   1.00
C539   C     0.67009   0.44205   0.37903   0.00000  Uiso   1.00
H540   H     0.68509   0.47386   0.38688   0.00000  Uiso   1.00
H541   H     0.68810   0.41860   0.38535   0.00000  Uiso   1.00
H542   H     0.96950   0.43782   0.39742   0.00000  Uiso   1.00
N543   N     0.81174   0.51853   0.10228   0.00000  Uiso   1.00
O544   O     0.81744   0.55459   0.08845   0.00000  Uiso   1.00
O545   O     0.78233   0.51236   0.13518   0.00000  Uiso   1.00
N546   N     0.69596   0.53678   0.47920   0.00000  Uiso   1.00
O547   O     0.99898   0.52794   0.46132   0.00000  Uiso   1.00
O548   O     0.68926   0.56198   0.01162   0.00000  Uiso   1.00
O549   O     0.86920   0.51876   0.40220   0.00000  Uiso   1.00
C550   C     0.88921   0.55586   0.41856   0.00000  Uiso   1.00
H551   H     0.92316   0.55088   0.41512   0.00000  Uiso   1.00
H552   H     0.87445   0.56324   0.45079   0.00000  Uiso   1.00
C553   C     0.88933   0.59298   0.39632   0.00000  Uiso   1.00
H554   H     0.90476   0.58538   0.36438   0.00000  Uiso   1.00
H555   H     0.85562   0.59893   0.40008   0.00000  Uiso   1.00
C556   C     0.91368   0.63264   0.41148   0.00000  Uiso   1.00
H557   H     0.89803   0.64143   0.44313   0.00000  Uiso   1.00
H558   H     0.91343   0.65879   0.39460   0.00000  Uiso   1.00
H559   H     0.94772   0.62775   0.40770   0.00000  Uiso   1.00
O560   O     0.87526   0.44781   0.41768   0.00000  Uiso   1.00
C561   C     0.84914   0.41016   0.41154   0.00000  Uiso   1.00
H562   H     0.81486   0.41622   0.41835   0.00000  Uiso   1.00
H563   H     0.85160   0.38624   0.43017   0.00000  Uiso   1.00
C564   C     0.86446   0.39271   0.36836   0.00000  Uiso   1.00
H565   H     0.86294   0.41633   0.34924   0.00000  Uiso   1.00
H566   H     0.89857   0.38632   0.36154   0.00000  Uiso   1.00
C567   C     0.83688   0.35235   0.35935   0.00000  Uiso   1.00
H568   H     0.83651   0.66216   0.37923   0.00000  Uiso   1.00
H569   H     0.85053   0.33918   0.32850   0.00000  Uiso   1.00
H570   H     0.80330   0.35873   0.36306   0.00000  Uiso   1.00
Zn571  Zn    0.19244   0.80756   0.28277   0.00000  Uiso   1.00
Zn572  Zn    0.13459   0.79044   0.22257   0.00000  Uiso   1.00
Zn573  Zn    0.21166   0.86331   0.21188   0.00000  Uiso   1.00
Zn574  Zn    0.12798   0.87202   0.28277   0.00000  Uiso   1.00
O575   O     0.16667   0.83333   0.25000   0.00000  Uiso   1.00
O576   O     0.06990   0.85627   0.27820   0.00000  Uiso   1.00
O577   O     0.25440   0.81944   0.26767   0.00000  Uiso   1.00
O578   O     0.13800   0.73570   0.23607   0.00000  Uiso   1.00
O579   O     0.20437   0.92193   0.21805   0.00000  Uiso   1.00
O580   O     0.15693   0.79060   0.16625   0.00000  Uiso   1.00
O581   O     0.12687   0.87313   0.33749   0.00000  Uiso   1.00
O582   O     0.21088   0.84159   0.15877   0.00000  Uiso   1.00
O583   O     0.17198   0.82802   0.33749   0.00000  Uiso   1.00
O584   O     0.17849   0.74768   0.27820   0.00000  Uiso   1.00
O585   O     0.14581   0.92803   0.26767   0.00000  Uiso   1.00
O586   O     0.07452   0.79917   0.23607   0.00000  Uiso   1.00
O587   O     0.26785   0.85845   0.21805   0.00000  Uiso   1.00
C588   C     0.05268   0.82671   0.25851   0.00000  Uiso   1.00
C589   C     0.28100   0.84009   0.24136   0.00000  Uiso   1.00
C590   C     0.15584   0.72278   0.25897   0.00000  Uiso   1.00
C591   C     0.17689   0.94435   0.24140   0.00000  Uiso   1.00
C592   C     0.18808   0.81204   0.14404   0.00000  Uiso   1.00
C593   C     0.14540   0.85425   0.35614   0.00000  Uiso   1.00
C594   C     0.13099   0.85683   0.39926   0.00000  Uiso   1.00
C595   C     0.19649   0.80366   0.10146   0.00000  Uiso   1.00
C596   C     0.07211   0.85951   0.45935   0.00000  Uiso   1.00
C597   C     0.08841   0.86352   0.41909   0.00000  Uiso   1.00
C598   C     0.15847   0.84800   0.42009   0.00000  Uiso   1.00
C599   C     0.14081   0.83603   0.45874   0.00000  Uiso   1.00
C600   C     0.09788   0.84449   0.47921   0.00000  Uiso   1.00
C601   C     0.16480   0.81709   0.47805   0.00000  Uiso   1.00
C602   C     0.15077   0.81813   0.01963   0.00000  Uiso   1.00
C603   C     0.10751   0.82444   0.03868   0.00000  Uiso   1.00
C604   C     0.08125   0.83624   0.01860   0.00000  Uiso   1.00
C605   C     0.19971   0.79371   0.45762   0.00000  Uiso   1.00
C606   C     0.22431   0.77962   0.47827   0.00000  Uiso   1.00
C607   C     0.21568   0.78815   0.01921   0.00000  Uiso   1.00
C608   C     0.17892   0.80878   0.04046   0.00000  Uiso   1.00
C609   C     0.24191   0.77478   0.03958   0.00000  Uiso   1.00
C610   C     0.23079   0.78122   0.08062   0.00000  Uiso   1.00
C611   C     0.17191   0.81975   0.08167   0.00000  Uiso   1.00
H612   H     0.04790   0.83902   0.03447   0.00000  Uiso   1.00
H613   H     0.25031   0.77035   0.09639   0.00000  Uiso   1.00
H614   H     0.24971   0.76094   0.46161   0.00000  Uiso   1.00
H615   H     0.06773   0.87204   0.40318   0.00000  Uiso   1.00
H616   H     0.09262   0.81795   0.06881   0.00000  Uiso   1.00
C617   C     0.32660   0.84347   0.23944   0.00000  Uiso   1.00
H618   H     0.01595   0.86388   0.21930   0.00000  Uiso   1.00
C619   C     0.00702   0.82302   0.26297   0.00000  Uiso   1.00
C620   C     0.18098   0.98890   0.23829   0.00000  Uiso   1.00
H621   H     0.20822   0.66965   0.21645   0.00000  Uiso   1.00
C622   C     0.15148   0.67872   0.26210   0.00000  Uiso   1.00
H623   H     0.12381   0.99875   0.28397   0.00000  Uiso   1.00
N624   N     0.28006   0.75500   0.01925   0.00000  Uiso   1.00
O625   O     0.28903   0.72361   0.03331   0.00000  Uiso   1.00
O626   O     0.30960   0.77295   0.49146   0.00000  Uiso   1.00
O627   O     0.31318   0.79302   0.28559   0.00000  Uiso   1.00
C628   C     0.31397   0.80127   0.32549   0.00000  Uiso   1.00
H629   H     0.28002   0.79769   0.34403   0.00000  Uiso   1.00
H630   H     0.32755   0.83385   0.33365   0.00000  Uiso   1.00
C631   C     0.00501   0.76934   0.33543   0.00000  Uiso   1.00
H632   H     0.32365   0.73716   0.32815   0.00000  Uiso   1.00
H633   H     0.03925   0.77271   0.31761   0.00000  Uiso   1.00
C634   C     0.00342   0.77538   0.37903   0.00000  Uiso   1.00
H635   H     0.01842   0.80720   0.38688   0.00000  Uiso   1.00
H636   H     0.02143   0.75194   0.38535   0.00000  Uiso   1.00
H637   H     0.30283   0.77115   0.39742   0.00000  Uiso   1.00
N638   N     0.14508   0.85187   0.10228   0.00000  Uiso   1.00
O639   O     0.15078   0.88792   0.08845   0.00000  Uiso   1.00
O640   O     0.11566   0.84569   0.13518   0.00000  Uiso   1.00
N641   N     0.02929   0.87012   0.47920   0.00000  Uiso   1.00
O642   O     0.33231   0.86128   0.46132   0.00000  Uiso   1.00
O643   O     0.02260   0.89532   0.01162   0.00000  Uiso   1.00
O644   O     0.20253   0.85210   0.40220   0.00000  Uiso   1.00
C645   C     0.22255   0.88919   0.41856   0.00000  Uiso   1.00
H646   H     0.25650   0.88421   0.41512   0.00000  Uiso   1.00
H647   H     0.20778   0.89658   0.45079   0.00000  Uiso   1.00
C648   C     0.22266   0.92631   0.39632   0.00000  Uiso   1.00
H649   H     0.23809   0.91871   0.36438   0.00000  Uiso   1.00
H650   H     0.18895   0.93226   0.40008   0.00000  Uiso   1.00
C651   C     0.24702   0.96597   0.41148   0.00000  Uiso   1.00
H652   H     0.23136   0.97476   0.44313   0.00000  Uiso   1.00
H653   H     0.24677   0.99212   0.39460   0.00000  Uiso   1.00
H654   H     0.28105   0.96109   0.40770   0.00000  Uiso   1.00
O655   O     0.20859   0.78115   0.41768   0.00000  Uiso   1.00
C656   C     0.18247   0.74349   0.41154   0.00000  Uiso   1.00
H657   H     0.14819   0.74955   0.41835   0.00000  Uiso   1.00
H658   H     0.18493   0.71957   0.43017   0.00000  Uiso   1.00
C659   C     0.19779   0.72604   0.36836   0.00000  Uiso   1.00
H660   H     0.19627   0.74966   0.34924   0.00000  Uiso   1.00
H661   H     0.23190   0.71965   0.36154   0.00000  Uiso   1.00
C662   C     0.17021   0.68568   0.35935   0.00000  Uiso   1.00
H663   H     0.16985   0.99549   0.37923   0.00000  Uiso   1.00
H664   H     0.18387   0.67251   0.32850   0.00000  Uiso   1.00
H665   H     0.13664   0.69207   0.36306   0.00000  Uiso   1.00
Zn666  Zn    0.52577   0.80756   0.28277   0.00000  Uiso   1.00
Zn667  Zn    0.46792   0.79044   0.22257   0.00000  Uiso   1.00
Zn668  Zn    0.54500   0.86331   0.21188   0.00000  Uiso   1.00
Zn669  Zn    0.46131   0.87202   0.28277   0.00000  Uiso   1.00
O670   O     0.50000   0.83333   0.25000   0.00000  Uiso   1.00
O671   O     0.40323   0.85627   0.27820   0.00000  Uiso   1.00
O672   O     0.58773   0.81944   0.26767   0.00000  Uiso   1.00
O673   O     0.47133   0.73570   0.23607   0.00000  Uiso   1.00
O674   O     0.53771   0.92193   0.21805   0.00000  Uiso   1.00
O675   O     0.49027   0.79060   0.16625   0.00000  Uiso   1.00
O676   O     0.46020   0.87313   0.33749   0.00000  Uiso   1.00
O677   O     0.54421   0.84159   0.15877   0.00000  Uiso   1.00
O678   O     0.50532   0.82802   0.33749   0.00000  Uiso   1.00
O679   O     0.51182   0.74768   0.27820   0.00000  Uiso   1.00
O680   O     0.47914   0.92803   0.26767   0.00000  Uiso   1.00
O681   O     0.40785   0.79917   0.23607   0.00000  Uiso   1.00
O682   O     0.60119   0.85845   0.21805   0.00000  Uiso   1.00
C683   C     0.38601   0.82671   0.25851   0.00000  Uiso   1.00
C684   C     0.61433   0.84009   0.24136   0.00000  Uiso   1.00
C685   C     0.48918   0.72278   0.25897   0.00000  Uiso   1.00
C686   C     0.51022   0.94435   0.24140   0.00000  Uiso   1.00
C687   C     0.52141   0.81204   0.14404   0.00000  Uiso   1.00
C688   C     0.47873   0.85425   0.35614   0.00000  Uiso   1.00
C689   C     0.46432   0.85683   0.39926   0.00000  Uiso   1.00
C690   C     0.52982   0.80366   0.10146   0.00000  Uiso   1.00
C691   C     0.40544   0.85951   0.45935   0.00000  Uiso   1.00
C692   C     0.42174   0.86352   0.41909   0.00000  Uiso   1.00
C693   C     0.49181   0.84800   0.42009   0.00000  Uiso   1.00
C694   C     0.47415   0.83603   0.45874   0.00000  Uiso   1.00
C695   C     0.43121   0.84449   0.47921   0.00000  Uiso   1.00
C696   C     0.49814   0.81709   0.47805   0.00000  Uiso   1.00
C697   C     0.48410   0.81813   0.01963   0.00000  Uiso   1.00
C698   C     0.44084   0.82444   0.03868   0.00000  Uiso   1.00
C699   C     0.41458   0.83624   0.01860   0.00000  Uiso   1.00
C700   C     0.53305   0.79371   0.45762   0.00000  Uiso   1.00
C701   C     0.55764   0.77962   0.47827   0.00000  Uiso   1.00
C702   C     0.54902   0.78815   0.01921   0.00000  Uiso   1.00
C703   C     0.51225   0.80878   0.04046   0.00000  Uiso   1.00
C704   C     0.57525   0.77478   0.03958   0.00000  Uiso   1.00
C705   C     0.56413   0.78122   0.08062   0.00000  Uiso   1.00
C706   C     0.50524   0.81975   0.08167   0.00000  Uiso   1.00
H707   H     0.38123   0.83902   0.03447   0.00000  Uiso   1.00
H708   H     0.58364   0.77035   0.09639   0.00000  Uiso   1.00
H709   H     0.58304   0.76094   0.46161   0.00000  Uiso   1.00
H710   H     0.40107   0.87204   0.40318   0.00000  Uiso   1.00
H711   H     0.42595   0.81795   0.06881   0.00000  Uiso   1.00
C712   C     0.65993   0.84347   0.23944   0.00000  Uiso   1.00
H713   H     0.34928   0.86388   0.21930   0.00000  Uiso   1.00
C714   C     0.34035   0.82302   0.26297   0.00000  Uiso   1.00
C715   C     0.51431   0.98890   0.23829   0.00000  Uiso   1.00
H716   H     0.54155   0.66965   0.21645   0.00000  Uiso   1.00
C717   C     0.48481   0.67872   0.26210   0.00000  Uiso   1.00
H718   H     0.45714   0.99875   0.28397   0.00000  Uiso   1.00
N719   N     0.61339   0.75500   0.01925   0.00000  Uiso   1.00
O720   O     0.62236   0.72361   0.03331   0.00000  Uiso   1.00
O721   O     0.64294   0.77295   0.49146   0.00000  Uiso   1.00
O722   O     0.64652   0.79302   0.28559   0.00000  Uiso   1.00
C723   C     0.64730   0.80127   0.32549   0.00000  Uiso   1.00
H724   H     0.61335   0.79769   0.34403   0.00000  Uiso   1.00
H725   H     0.66089   0.83385   0.33365   0.00000  Uiso   1.00
C726   C     0.33835   0.76934   0.33543   0.00000  Uiso   1.00
H727   H     0.65698   0.73716   0.32815   0.00000  Uiso   1.00
H728   H     0.37258   0.77271   0.31761   0.00000  Uiso   1.00
C729   C     0.33676   0.77538   0.37903   0.00000  Uiso   1.00
H730   H     0.35175   0.80720   0.38688   0.00000  Uiso   1.00
H731   H     0.35476   0.75194   0.38535   0.00000  Uiso   1.00
H732   H     0.63617   0.77115   0.39742   0.00000  Uiso   1.00
N733   N     0.47841   0.85187   0.10228   0.00000  Uiso   1.00
O734   O     0.48411   0.88792   0.08845   0.00000  Uiso   1.00
O735   O     0.44900   0.84569   0.13518   0.00000  Uiso   1.00
N736   N     0.36262   0.87012   0.47920   0.00000  Uiso   1.00
O737   O     0.66565   0.86128   0.46132   0.00000  Uiso   1.00
O738   O     0.35593   0.89532   0.01162   0.00000  Uiso   1.00
O739   O     0.53586   0.85210   0.40220   0.00000  Uiso   1.00
C740   C     0.55588   0.88919   0.41856   0.00000  Uiso   1.00
H741   H     0.58983   0.88421   0.41512   0.00000  Uiso   1.00
H742   H     0.54111   0.89658   0.45079   0.00000  Uiso   1.00
C743   C     0.55599   0.92631   0.39632   0.00000  Uiso   1.00
H744   H     0.57142   0.91871   0.36438   0.00000  Uiso   1.00
H745   H     0.52229   0.93226   0.40008   0.00000  Uiso   1.00
C746   C     0.58035   0.96597   0.41148   0.00000  Uiso   1.00
H747   H     0.56470   0.97476   0.44313   0.00000  Uiso   1.00
H748   H     0.58010   0.99212   0.39460   0.00000  Uiso   1.00
H749   H     0.61438   0.96109   0.40770   0.00000  Uiso   1.00
O750   O     0.54192   0.78115   0.41768   0.00000  Uiso   1.00
C751   C     0.51580   0.74349   0.41154   0.00000  Uiso   1.00
H752   H     0.48153   0.74955   0.41835   0.00000  Uiso   1.00
H753   H     0.51826   0.71957   0.43017   0.00000  Uiso   1.00
C754   C     0.53113   0.72604   0.36836   0.00000  Uiso   1.00
H755   H     0.52960   0.74966   0.34924   0.00000  Uiso   1.00
H756   H     0.56524   0.71965   0.36154   0.00000  Uiso   1.00
C757   C     0.50354   0.68568   0.35935   0.00000  Uiso   1.00
H758   H     0.50318   0.99549   0.37923   0.00000  Uiso   1.00
H759   H     0.51720   0.67251   0.32850   0.00000  Uiso   1.00
H760   H     0.46997   0.69207   0.36306   0.00000  Uiso   1.00
Zn761  Zn    0.85910   0.80756   0.28277   0.00000  Uiso   1.00
Zn762  Zn    0.80125   0.79044   0.22257   0.00000  Uiso   1.00
Zn763  Zn    0.87833   0.86331   0.21188   0.00000  Uiso   1.00
Zn764  Zn    0.79465   0.87202   0.28277   0.00000  Uiso   1.00
O765   O     0.83333   0.83333   0.25000   0.00000  Uiso   1.00
O766   O     0.73656   0.85627   0.27820   0.00000  Uiso   1.00
O767   O     0.92106   0.81944   0.26767   0.00000  Uiso   1.00
O768   O     0.80467   0.73570   0.23607   0.00000  Uiso   1.00
O769   O     0.87104   0.92193   0.21805   0.00000  Uiso   1.00
O770   O     0.82360   0.79060   0.16625   0.00000  Uiso   1.00
O771   O     0.79354   0.87313   0.33749   0.00000  Uiso   1.00
O772   O     0.87755   0.84159   0.15877   0.00000  Uiso   1.00
O773   O     0.83865   0.82802   0.33749   0.00000  Uiso   1.00
O774   O     0.84515   0.74768   0.27820   0.00000  Uiso   1.00
O775   O     0.81247   0.92803   0.26767   0.00000  Uiso   1.00
O776   O     0.74119   0.79917   0.23607   0.00000  Uiso   1.00
O777   O     0.93452   0.85845   0.21805   0.00000  Uiso   1.00
C778   C     0.71935   0.82671   0.25851   0.00000  Uiso   1.00
C779   C     0.94767   0.84009   0.24136   0.00000  Uiso   1.00
C780   C     0.82251   0.72278   0.25897   0.00000  Uiso   1.00
C781   C     0.84355   0.94435   0.24140   0.00000  Uiso   1.00
C782   C     0.85474   0.81204   0.14404   0.00000  Uiso   1.00
C783   C     0.81206   0.85425   0.35614   0.00000  Uiso   1.00
C784   C     0.79766   0.85683   0.39926   0.00000  Uiso   1.00
C785   C     0.86315   0.80366   0.10146   0.00000  Uiso   1.00
C786   C     0.73877   0.85951   0.45935   0.00000  Uiso   1.00
C787   C     0.75508   0.86352   0.41909   0.00000  Uiso   1.00
C788   C     0.82514   0.84800   0.42009   0.00000  Uiso   1.00
C789   C     0.80748   0.83603   0.45874   0.00000  Uiso   1.00
C790   C     0.76454   0.84449   0.47921   0.00000  Uiso   1.00
C791   C     0.83147   0.81709   0.47805   0.00000  Uiso   1.00
C792   C     0.81743   0.81813   0.01963   0.00000  Uiso   1.00
C793   C     0.77417   0.82444   0.03868   0.00000  Uiso   1.00
C794   C     0.74792   0.83624   0.01860   0.00000  Uiso   1.00
C795   C     0.86638   0.79371   0.45762   0.00000  Uiso   1.00
C796   C     0.89098   0.77962   0.47827   0.00000  Uiso   1.00
C797   C     0.88235   0.78815   0.01921   0.00000  Uiso   1.00
C798   C     0.84559   0.80878   0.04046   0.00000  Uiso   1.00
C799   C     0.90858   0.77478   0.03958   0.00000  Uiso   1.00
C800   C     0.89746   0.78122   0.08062   0.00000  Uiso   1.00
C801   C     0.83858   0.81975   0.08167   0.00000  Uiso   1.00
H802   H     0.71456   0.83902   0.03447   0.00000  Uiso   1.00
H803   H     0.91698   0.77035   0.09639   0.00000  Uiso   1.00
H804   H     0.91638   0.76094   0.46161   0.00000  Uiso   1.00
H805   H     0.73440   0.87204   0.40318   0.00000  Uiso   1.00
H806   H     0.75929   0.81795   0.06881   0.00000  Uiso   1.00
C807   C     0.99326   0.84347   0.23944   0.00000  Uiso   1.00
H808   H     0.68261   0.86388   0.21930   0.00000  Uiso   1.00
C809   C     0.67369   0.82302   0.26297   0.00000  Uiso   1.00
C810   C     0.84764   0.98890   0.23829   0.00000  Uiso   1.00
H811   H     0.87488   0.66965   0.21645   0.00000  Uiso   1.00
C812   C     0.81814   0.67872   0.26210   0.00000  Uiso   1.00
H813   H     0.79047   0.99875   0.28397   0.00000  Uiso   1.00
N814   N     0.94672   0.75500   0.01925   0.00000  Uiso   1.00
O815   O     0.95570   0.72361   0.03331   0.00000  Uiso   1.00
O816   O     0.97627   0.77295   0.49146   0.00000  Uiso   1.00
O817   O     0.97985   0.79302   0.28559   0.00000  Uiso   1.00
C818   C     0.98064   0.80127   0.32549   0.00000  Uiso   1.00
H819   H     0.94668   0.79769   0.34403   0.00000  Uiso   1.00
H820   H     0.99422   0.83385   0.33365   0.00000  Uiso   1.00
C821   C     0.67168   0.76934   0.33543   0.00000  Uiso   1.00
H822   H     0.99031   0.73716   0.32815   0.00000  Uiso   1.00
H823   H     0.70592   0.77271   0.31761   0.00000  Uiso   1.00
C824   C     0.67009   0.77538   0.37903   0.00000  Uiso   1.00
H825   H     0.68509   0.80720   0.38688   0.00000  Uiso   1.00
H826   H     0.68810   0.75194   0.38535   0.00000  Uiso   1.00
H827   H     0.96950   0.77115   0.39742   0.00000  Uiso   1.00
N828   N     0.81174   0.85187   0.10228   0.00000  Uiso   1.00
O829   O     0.81744   0.88792   0.08845   0.00000  Uiso   1.00
O830   O     0.78233   0.84569   0.13518   0.00000  Uiso   1.00
N831   N     0.69596   0.87012   0.47920   0.00000  Uiso   1.00
O832   O     0.99898   0.86128   0.46132   0.00000  Uiso   1.00
O833   O     0.68926   0.89532   0.01162   0.00000  Uiso   1.00
O834   O     0.86920   0.85210   0.40220   0.00000  Uiso   1.00
C835   C     0.88921   0.88919   0.41856   0.00000  Uiso   1.00
H836   H     0.92316   0.88421   0.41512   0.00000  Uiso   1.00
H837   H     0.87445   0.89658   0.45079   0.00000  Uiso   1.00
C838   C     0.88933   0.92631   0.39632   0.00000  Uiso   1.00
H839   H     0.90476   0.91871   0.36438   0.00000  Uiso   1.00
H840   H     0.85562   0.93226   0.40008   0.00000  Uiso   1.00
C841   C     0.91368   0.96597   0.41148   0.00000  Uiso   1.00
H842   H     0.89803   0.97476   0.44313   0.00000  Uiso   1.00
H843   H     0.91343   0.99212   0.39460   0.00000  Uiso   1.00
H844   H     0.94772   0.96109   0.40770   0.00000  Uiso   1.00
O845   O     0.87526   0.78115   0.41768   0.00000  Uiso   1.00
C846   C     0.84914   0.74349   0.41154   0.00000  Uiso   1.00
H847   H     0.81486   0.74955   0.41835   0.00000  Uiso   1.00
H848   H     0.85160   0.71957   0.43017   0.00000  Uiso   1.00
C849   C     0.86446   0.72604   0.36836   0.00000  Uiso   1.00
H850   H     0.86294   0.74966   0.34924   0.00000  Uiso   1.00
H851   H     0.89857   0.71965   0.36154   0.00000  Uiso   1.00
C852   C     0.83688   0.68568   0.35935   0.00000  Uiso   1.00
H853   H     0.83651   0.99549   0.37923   0.00000  Uiso   1.00
H854   H     0.85053   0.67251   0.32850   0.00000  Uiso   1.00
H855   H     0.80330   0.69207   0.36306   0.00000  Uiso   1.00
Zn856  Zn    0.19244   0.14090   0.78277   0.00000  Uiso   1.00
Zn857  Zn    0.13459   0.12378   0.72257   0.00000  Uiso   1.00
Zn858  Zn    0.21166   0.19664   0.71188   0.00000  Uiso   1.00
Zn859  Zn    0.12798   0.20535   0.78277   0.00000  Uiso   1.00
O860   O     0.16667   0.16667   0.75000   0.00000  Uiso   1.00
O861   O     0.06990   0.18960   0.77820   0.00000  Uiso   1.00
O862   O     0.25440   0.15277   0.76767   0.00000  Uiso   1.00
O863   O     0.13800   0.06903   0.73607   0.00000  Uiso   1.00
O864   O     0.20437   0.25527   0.71805   0.00000  Uiso   1.00
O865   O     0.15693   0.12393   0.66625   0.00000  Uiso   1.00
O866   O     0.12687   0.20646   0.83749   0.00000  Uiso   1.00
O867   O     0.21088   0.17493   0.65877   0.00000  Uiso   1.00
O868   O     0.17198   0.16135   0.83749   0.00000  Uiso   1.00
O869   O     0.17849   0.08101   0.77820   0.00000  Uiso   1.00
O870   O     0.14581   0.26136   0.76767   0.00000  Uiso   1.00
O871   O     0.07452   0.13251   0.73607   0.00000  Uiso   1.00
O872   O     0.26785   0.19179   0.71805   0.00000  Uiso   1.00
C873   C     0.05268   0.16004   0.75851   0.00000  Uiso   1.00
C874   C     0.28100   0.17342   0.74136   0.00000  Uiso   1.00
C875   C     0.15584   0.05611   0.75897   0.00000  Uiso   1.00
C876   C     0.17689   0.27768   0.74140   0.00000  Uiso   1.00
C877   C     0.18808   0.14537   0.64404   0.00000  Uiso   1.00
C878   C     0.14540   0.18758   0.85614   0.00000  Uiso   1.00
C879   C     0.13099   0.19016   0.89926   0.00000  Uiso   1.00
C880   C     0.19649   0.13699   0.60146   0.00000  Uiso   1.00
C881   C     0.07211   0.19285   0.95935   0.00000  Uiso   1.00
C882   C     0.08841   0.19686   0.91909   0.00000  Uiso   1.00
C883   C     0.15847   0.18134   0.92009   0.00000  Uiso   1.00
C884   C     0.14081   0.16937   0.95874   0.00000  Uiso   1.00
C885   C     0.09788   0.17782   0.97921   0.00000  Uiso   1.00
C886   C     0.16480   0.15043   0.97805   0.00000  Uiso   1.00
C887   C     0.15077   0.15147   0.51963   0.00000  Uiso   1.00
C888   C     0.10751   0.15778   0.53868   0.00000  Uiso   1.00
C889   C     0.08125   0.16958   0.51860   0.00000  Uiso   1.00
C890   C     0.19971   0.12704   0.95762   0.00000  Uiso   1.00
C891   C     0.22431   0.11295   0.97827   0.00000  Uiso   1.00
C892   C     0.21568   0.12148   0.51921   0.00000  Uiso   1.00
C893   C     0.17892   0.14211   0.54046   0.00000  Uiso   1.00
C894   C     0.24191   0.10811   0.53958   0.00000  Uiso   1.00
C895   C     0.23079   0.11455   0.58062   0.00000  Uiso   1.00
C896   C     0.17191   0.15308   0.58167   0.00000  Uiso   1.00
H897   H     0.04790   0.17235   0.53447   0.00000  Uiso   1.00
H898   H     0.25031   0.10368   0.59639   0.00000  Uiso   1.00
H899   H     0.24971   0.09427   0.96161   0.00000  Uiso   1.00
H900   H     0.06773   0.20537   0.90318   0.00000  Uiso   1.00
H901   H     0.09262   0.15128   0.56881   0.00000  Uiso   1.00
C902   C     0.32660   0.17680   0.73944   0.00000  Uiso   1.00
H903   H     0.01595   0.19721   0.71930   0.00000  Uiso   1.00
C904   C     0.00702   0.15636   0.76297   0.00000  Uiso   1.00
C905   C     0.18098   0.32224   0.73829   0.00000  Uiso   1.00
H906   H     0.20822   0.00298   0.71645   0.00000  Uiso   1.00
C907   C     0.15148   0.01205   0.76210   0.00000  Uiso   1.00
H908   H     0.12381   0.33209   0.78397   0.00000  Uiso   1.00
N909   N     0.28006   0.08833   0.51925   0.00000  Uiso   1.00
O910   O     0.28903   0.05694   0.53331   0.00000  Uiso   1.00
O911   O     0.30960   0.10628   0.99146   0.00000  Uiso   1.00
O912   O     0.31318   0.12636   0.78559   0.00000  Uiso   1.00
C913   C     0.31397   0.13460   0.82549   0.00000  Uiso   1.00
H914   H     0.28002   0.13102   0.84403   0.00000  Uiso   1.00
H915   H     0.32755   0.16718   0.83365   0.00000  Uiso   1.00
C916   C     0.00501   0.10267   0.83543   0.00000  Uiso   1.00
H917   H     0.32365   0.07049   0.82815   0.00000  Uiso   1.00
H918   H     0.03925   0.10604   0.81761   0.00000  Uiso   1.00
C919   C     0.00342   0.10872   0.87903   0.00000  Uiso   1.00
H920   H     0.01842   0.14053   0.88688   0.00000  Uiso   1.00
H921   H     0.02143   0.08527   0.88535   0.00000  Uiso   1.00
H922   H     0.30283   0.10449   0.89742   0.00000  Uiso   1.00
N923   N     0.14508   0.18520   0.60228   0.00000  Uiso   1.00
O924   O     0.15078   0.22125   0.58845   0.00000  Uiso   1.00
O925   O     0.11566   0.17903   0.63518   0.00000  Uiso   1.00
N926   N     0.02929   0.20345   0.97920   0.00000  Uiso   1.00
O927   O     0.33231   0.19461   0.96132   0.00000  Uiso   1.00
O928   O     0.02260   0.22865   0.51162   0.00000  Uiso   1.00
O929   O     0.20253   0.18543   0.90220   0.00000  Uiso   1.00
C930   C     0.22255   0.22253   0.91856   0.00000  Uiso   1.00
H931   H     0.25650   0.21755   0.91512   0.00000  Uiso   1.00
H932   H     0.20778   0.22991   0.95079   0.00000  Uiso   1.00
C933   C     0.22266   0.25965   0.89632   0.00000  Uiso   1.00
H934   H     0.23809   0.25204   0.86438   0.00000  Uiso   1.00
H935   H     0.18895   0.26560   0.90008   0.00000  Uiso   1.00
C936   C     0.24702   0.29931   0.91148   0.00000  Uiso   1.00
H937   H     0.23136   0.30810   0.94313   0.00000  Uiso   1.00
H938   H     0.24677   0.32546   0.89460   0.00000  Uiso   1.00
H939   H     0.28105   0.29442   0.90770   0.00000  Uiso   1.00
O940   O     0.20859   0.11448   0.91768   0.00000  Uiso   1.00
C941   C     0.18247   0.07683   0.91154   0.00000  Uiso   1.00
H942   H     0.14819   0.08289   0.91835   0.00000  Uiso   1.00
H943   H     0.18493   0.05291   0.93017   0.00000  Uiso   1.00
C944   C     0.19779   0.05937   0.86836   0.00000  Uiso   1.00
H945   H     0.19627   0.08300   0.84924   0.00000  Uiso   1.00
H946   H     0.23190   0.05299   0.86154   0.00000  Uiso   1.00
C947   C     0.17021   0.01902   0.85935   0.00000  Uiso   1.00
H948   H     0.16985   0.32882   0.87923   0.00000  Uiso   1.00
H949   H     0.18387   0.00584   0.82850   0.00000  Uiso   1.00
H950   H     0.13664   0.02540   0.86306   0.00000  Uiso   1.00
Zn951  Zn    0.52577   0.14090   0.78277   0.00000  Uiso   1.00
Zn952  Zn    0.46792   0.12378   0.72257   0.00000  Uiso   1.00
Zn953  Zn    0.54500   0.19664   0.71188   0.00000  Uiso   1.00
Zn954  Zn    0.46131   0.20535   0.78277   0.00000  Uiso   1.00
O955   O     0.50000   0.16667   0.75000   0.00000  Uiso   1.00
O956   O     0.40323   0.18960   0.77820   0.00000  Uiso   1.00
O957   O     0.58773   0.15277   0.76767   0.00000  Uiso   1.00
O958   O     0.47133   0.06903   0.73607   0.00000  Uiso   1.00
O959   O     0.53771   0.25527   0.71805   0.00000  Uiso   1.00
O960   O     0.49027   0.12393   0.66625   0.00000  Uiso   1.00
O961   O     0.46020   0.20646   0.83749   0.00000  Uiso   1.00
O962   O     0.54421   0.17493   0.65877   0.00000  Uiso   1.00
O963   O     0.50532   0.16135   0.83749   0.00000  Uiso   1.00
O964   O     0.51182   0.08101   0.77820   0.00000  Uiso   1.00
O965   O     0.47914   0.26136   0.76767   0.00000  Uiso   1.00
O966   O     0.40785   0.13251   0.73607   0.00000  Uiso   1.00
O967   O     0.60119   0.19179   0.71805   0.00000  Uiso   1.00
C968   C     0.38601   0.16004   0.75851   0.00000  Uiso   1.00
C969   C     0.61433   0.17342   0.74136   0.00000  Uiso   1.00
C970   C     0.48918   0.05611   0.75897   0.00000  Uiso   1.00
C971   C     0.51022   0.27768   0.74140   0.00000  Uiso   1.00
C972   C     0.52141   0.14537   0.64404   0.00000  Uiso   1.00
C973   C     0.47873   0.18758   0.85614   0.00000  Uiso   1.00
C974   C     0.46432   0.19016   0.89926   0.00000  Uiso   1.00
C975   C     0.52982   0.13699   0.60146   0.00000  Uiso   1.00
C976   C     0.40544   0.19285   0.95935   0.00000  Uiso   1.00
C977   C     0.42174   0.19686   0.91909   0.00000  Uiso   1.00
C978   C     0.49181   0.18134   0.92009   0.00000  Uiso   1.00
C979   C     0.47415   0.16937   0.95874   0.00000  Uiso   1.00
C980   C     0.43121   0.17782   0.97921   0.00000  Uiso   1.00
C981   C     0.49814   0.15043   0.97805   0.00000  Uiso   1.00
C982   C     0.48410   0.15147   0.51963   0.00000  Uiso   1.00
C983   C     0.44084   0.15778   0.53868   0.00000  Uiso   1.00
C984   C     0.41458   0.16958   0.51860   0.00000  Uiso   1.00
C985   C     0.53305   0.12704   0.95762   0.00000  Uiso   1.00
C986   C     0.55764   0.11295   0.97827   0.00000  Uiso   1.00
C987   C     0.54902   0.12148   0.51921   0.00000  Uiso   1.00
C988   C     0.51225   0.14211   0.54046   0.00000  Uiso   1.00
C989   C     0.57525   0.10811   0.53958   0.00000  Uiso   1.00
C990   C     0.56413   0.11455   0.58062   0.00000  Uiso   1.00
C991   C     0.50524   0.15308   0.58167   0.00000  Uiso   1.00
H992   H     0.38123   0.17235   0.53447   0.00000  Uiso   1.00
H993   H     0.58364   0.10368   0.59639   0.00000  Uiso   1.00
H994   H     0.58304   0.09427   0.96161   0.00000  Uiso   1.00
H995   H     0.40107   0.20537   0.90318   0.00000  Uiso   1.00
H996   H     0.42595   0.15128   0.56881   0.00000  Uiso   1.00
C997   C     0.65993   0.17680   0.73944   0.00000  Uiso   1.00
H998   H     0.34928   0.19721   0.71930   0.00000  Uiso   1.00
C999   C     0.34035   0.15636   0.76297   0.00000  Uiso   1.00
C1000  C     0.51431   0.32224   0.73829   0.00000  Uiso   1.00
H1001  H     0.54155   0.00298   0.71645   0.00000  Uiso   1.00
C1002  C     0.48481   0.01205   0.76210   0.00000  Uiso   1.00
H1003  H     0.45714   0.33209   0.78397   0.00000  Uiso   1.00
N1004  N     0.61339   0.08833   0.51925   0.00000  Uiso   1.00
O1005  O     0.62236   0.05694   0.53331   0.00000  Uiso   1.00
O1006  O     0.64294   0.10628   0.99146   0.00000  Uiso   1.00
O1007  O     0.64652   0.12636   0.78559   0.00000  Uiso   1.00
C1008  C     0.64730   0.13460   0.82549   0.00000  Uiso   1.00
H1009  H     0.61335   0.13102   0.84403   0.00000  Uiso   1.00
H1010  H     0.66089   0.16718   0.83365   0.00000  Uiso   1.00
C1011  C     0.33835   0.10267   0.83543   0.00000  Uiso   1.00
H1012  H     0.65698   0.07049   0.82815   0.00000  Uiso   1.00
H1013  H     0.37258   0.10604   0.81761   0.00000  Uiso   1.00
C1014  C     0.33676   0.10872   0.87903   0.00000  Uiso   1.00
H1015  H     0.35175   0.14053   0.88688   0.00000  Uiso   1.00
H1016  H     0.35476   0.08527   0.88535   0.00000  Uiso   1.00
H1017  H     0.63617   0.10449   0.89742   0.00000  Uiso   1.00
N1018  N     0.47841   0.18520   0.60228   0.00000  Uiso   1.00
O1019  O     0.48411   0.22125   0.58845   0.00000  Uiso   1.00
O1020  O     0.44900   0.17903   0.63518   0.00000  Uiso   1.00
N1021  N     0.36262   0.20345   0.97920   0.00000  Uiso   1.00
O1022  O     0.66565   0.19461   0.96132   0.00000  Uiso   1.00
O1023  O     0.35593   0.22865   0.51162   0.00000  Uiso   1.00
O1024  O     0.53586   0.18543   0.90220   0.00000  Uiso   1.00
C1025  C     0.55588   0.22253   0.91856   0.00000  Uiso   1.00
H1026  H     0.58983   0.21755   0.91512   0.00000  Uiso   1.00
H1027  H     0.54111   0.22991   0.95079   0.00000  Uiso   1.00
C1028  C     0.55599   0.25965   0.89632   0.00000  Uiso   1.00
H1029  H     0.57142   0.25204   0.86438   0.00000  Uiso   1.00
H1030  H     0.52229   0.26560   0.90008   0.00000  Uiso   1.00
C1031  C     0.58035   0.29931   0.91148   0.00000  Uiso   1.00
H1032  H     0.56470   0.30810   0.94313   0.00000  Uiso   1.00
H1033  H     0.58010   0.32546   0.89460   0.00000  Uiso   1.00
H1034  H     0.61438   0.29442   0.90770   0.00000  Uiso   1.00
O1035  O     0.54192   0.11448   0.91768   0.00000  Uiso   1.00
C1036  C     0.51580   0.07683   0.91154   0.00000  Uiso   1.00
H1037  H     0.48153   0.08289   0.91835   0.00000  Uiso   1.00
H1038  H     0.51826   0.05291   0.93017   0.00000  Uiso   1.00
C1039  C     0.53113   0.05937   0.86836   0.00000  Uiso   1.00
H1040  H     0.52960   0.08300   0.84924   0.00000  Uiso   1.00
H1041  H     0.56524   0.05299   0.86154   0.00000  Uiso   1.00
C1042  C     0.50354   0.01902   0.85935   0.00000  Uiso   1.00
H1043  H     0.50318   0.32882   0.87923   0.00000  Uiso   1.00
H1044  H     0.51720   0.00584   0.82850   0.00000  Uiso   1.00
H1045  H     0.46997   0.02540   0.86306   0.00000  Uiso   1.00
Zn1046 Zn    0.85910   0.14090   0.78277   0.00000  Uiso   1.00
Zn1047 Zn    0.80125   0.12378   0.72257   0.00000  Uiso   1.00
Zn1048 Zn    0.87833   0.19664   0.71188   0.00000  Uiso   1.00
Zn1049 Zn    0.79465   0.20535   0.78277   0.00000  Uiso   1.00
O1050  O     0.83333   0.16667   0.75000   0.00000  Uiso   1.00
O1051  O     0.73656   0.18960   0.77820   0.00000  Uiso   1.00
O1052  O     0.92106   0.15277   0.76767   0.00000  Uiso   1.00
O1053  O     0.80467   0.06903   0.73607   0.00000  Uiso   1.00
O1054  O     0.87104   0.25527   0.71805   0.00000  Uiso   1.00
O1055  O     0.82360   0.12393   0.66625   0.00000  Uiso   1.00
O1056  O     0.79354   0.20646   0.83749   0.00000  Uiso   1.00
O1057  O     0.87755   0.17493   0.65877   0.00000  Uiso   1.00
O1058  O     0.83865   0.16135   0.83749   0.00000  Uiso   1.00
O1059  O     0.84515   0.08101   0.77820   0.00000  Uiso   1.00
O1060  O     0.81247   0.26136   0.76767   0.00000  Uiso   1.00
O1061  O     0.74119   0.13251   0.73607   0.00000  Uiso   1.00
O1062  O     0.93452   0.19179   0.71805   0.00000  Uiso   1.00
C1063  C     0.71935   0.16004   0.75851   0.00000  Uiso   1.00
C1064  C     0.94767   0.17342   0.74136   0.00000  Uiso   1.00
C1065  C     0.82251   0.05611   0.75897   0.00000  Uiso   1.00
C1066  C     0.84355   0.27768   0.74140   0.00000  Uiso   1.00
C1067  C     0.85474   0.14537   0.64404   0.00000  Uiso   1.00
C1068  C     0.81206   0.18758   0.85614   0.00000  Uiso   1.00
C1069  C     0.79766   0.19016   0.89926   0.00000  Uiso   1.00
C1070  C     0.86315   0.13699   0.60146   0.00000  Uiso   1.00
C1071  C     0.73877   0.19285   0.95935   0.00000  Uiso   1.00
C1072  C     0.75508   0.19686   0.91909   0.00000  Uiso   1.00
C1073  C     0.82514   0.18134   0.92009   0.00000  Uiso   1.00
C1074  C     0.80748   0.16937   0.95874   0.00000  Uiso   1.00
C1075  C     0.76454   0.17782   0.97921   0.00000  Uiso   1.00
C1076  C     0.83147   0.15043   0.97805   0.00000  Uiso   1.00
C1077  C     0.81743   0.15147   0.51963   0.00000  Uiso   1.00
C1078  C     0.77417   0.15778   0.53868   0.00000  Uiso   1.00
C1079  C     0.74792   0.16958   0.51860   0.00000  Uiso   1.00
C1080  C     0.86638   0.12704   0.95762   0.00000  Uiso   1.00
C1081  C     0.89098   0.11295   0.97827   0.00000  Uiso   1.00
C1082  C     0.88235   0.12148   0.51921   0.00000  Uiso   1.00
C1083  C     0.84559   0.14211   0.54046   0.00000  Uiso   1.00
C1084  C     0.90858   0.10811   0.53958   0.00000  Uiso   1.00
C1085  C     0.89746   0.11455   0.58062   0.00000  Uiso   1.00
C1086  C     0.83858   0.15308   0.58167   0.00000  Uiso   1.00
H1087  H     0.71456   0.17235   0.53447   0.00000  Uiso   1.00
H1088  H     0.91698   0.10368   0.59639   0.00000  Uiso   1.00
H1089  H     0.91638   0.09427   0.96161   0.00000  Uiso   1.00
H1090  H     0.73440   0.20537   0.90318   0.00000  Uiso   1.00
H1091  H     0.75929   0.15128   0.56881   0.00000  Uiso   1.00
C1092  C     0.99326   0.17680   0.73944   0.00000  Uiso   1.00
H1093  H     0.68261   0.19721   0.71930   0.00000  Uiso   1.00
C1094  C     0.67369   0.15636   0.76297   0.00000  Uiso   1.00
C1095  C     0.84764   0.32224   0.73829   0.00000  Uiso   1.00
H1096  H     0.87488   0.00298   0.71645   0.00000  Uiso   1.00
C1097  C     0.81814   0.01205   0.76210   0.00000  Uiso   1.00
H1098  H     0.79047   0.33209   0.78397   0.00000  Uiso   1.00
N1099  N     0.94672   0.08833   0.51925   0.00000  Uiso   1.00
O1100  O     0.95570   0.05694   0.53331   0.00000  Uiso   1.00
O1101  O     0.97627   0.10628   0.99146   0.00000  Uiso   1.00
O1102  O     0.97985   0.12636   0.78559   0.00000  Uiso   1.00
C1103  C     0.98064   0.13460   0.82549   0.00000  Uiso   1.00
H1104  H     0.94668   0.13102   0.84403   0.00000  Uiso   1.00
H1105  H     0.99422   0.16718   0.83365   0.00000  Uiso   1.00
C1106  C     0.67168   0.10267   0.83543   0.00000  Uiso   1.00
H1107  H     0.99031   0.07049   0.82815   0.00000  Uiso   1.00
H1108  H     0.70592   0.10604   0.81761   0.00000  Uiso   1.00
C1109  C     0.67009   0.10872   0.87903   0.00000  Uiso   1.00
H1110  H     0.68509   0.14053   0.88688   0.00000  Uiso   1.00
H1111  H     0.68810   0.08527   0.88535   0.00000  Uiso   1.00
H1112  H     0.96950   0.10449   0.89742   0.00000  Uiso   1.00
N1113  N     0.81174   0.18520   0.60228   0.00000  Uiso   1.00
O1114  O     0.81744   0.22125   0.58845   0.00000  Uiso   1.00
O1115  O     0.78233   0.17903   0.63518   0.00000  Uiso   1.00
N1116  N     0.69596   0.20345   0.97920   0.00000  Uiso   1.00
O1117  O     0.99898   0.19461   0.96132   0.00000  Uiso   1.00
O1118  O     0.68926   0.22865   0.51162   0.00000  Uiso   1.00
O1119  O     0.86920   0.18543   0.90220   0.00000  Uiso   1.00
C1120  C     0.88921   0.22253   0.91856   0.00000  Uiso   1.00
H1121  H     0.92316   0.21755   0.91512   0.00000  Uiso   1.00
H1122  H     0.87445   0.22991   0.95079   0.00000  Uiso   1.00
C1123  C     0.88933   0.25965   0.89632   0.00000  Uiso   1.00
H1124  H     0.90476   0.25204   0.86438   0.00000  Uiso   1.00
H1125  H     0.85562   0.26560   0.90008   0.00000  Uiso   1.00
C1126  C     0.91368   0.29931   0.91148   0.00000  Uiso   1.00
H1127  H     0.89803   0.30810   0.94313   0.00000  Uiso   1.00
H1128  H     0.91343   0.32546   0.89460   0.00000  Uiso   1.00
H1129  H     0.94772   0.29442   0.90770   0.00000  Uiso   1.00
O1130  O     0.87526   0.11448   0.91768   0.00000  Uiso   1.00
C1131  C     0.84914   0.07683   0.91154   0.00000  Uiso   1.00
H1132  H     0.81486   0.08289   0.91835   0.00000  Uiso   1.00
H1133  H     0.85160   0.05291   0.93017   0.00000  Uiso   1.00
C1134  C     0.86446   0.05937   0.86836   0.00000  Uiso   1.00
H1135  H     0.86294   0.08300   0.84924   0.00000  Uiso   1.00
H1136  H     0.89857   0.05299   0.86154   0.00000  Uiso   1.00
C1137  C     0.83688   0.01902   0.85935   0.00000  Uiso   1.00
H1138  H     0.83651   0.32882   0.87923   0.00000  Uiso   1.00
H1139  H     0.85053   0.00584   0.82850   0.00000  Uiso   1.00
H1140  H     0.80330   0.02540   0.86306   0.00000  Uiso   1.00
Zn1141 Zn    0.19244   0.47423   0.78277   0.00000  Uiso   1.00
Zn1142 Zn    0.13459   0.45711   0.72257   0.00000  Uiso   1.00
Zn1143 Zn    0.21166   0.52997   0.71188   0.00000  Uiso   1.00
Zn1144 Zn    0.12798   0.53868   0.78277   0.00000  Uiso   1.00
O1145  O     0.16667   0.50000   0.75000   0.00000  Uiso   1.00
O1146  O     0.06990   0.52293   0.77820   0.00000  Uiso   1.00
O1147  O     0.25440   0.48610   0.76767   0.00000  Uiso   1.00
O1148  O     0.13800   0.40236   0.73607   0.00000  Uiso   1.00
O1149  O     0.20437   0.58860   0.71805   0.00000  Uiso   1.00
O1150  O     0.15693   0.45726   0.66625   0.00000  Uiso   1.00
O1151  O     0.12687   0.53979   0.83749   0.00000  Uiso   1.00
O1152  O     0.21088   0.50826   0.65877   0.00000  Uiso   1.00
O1153  O     0.17198   0.49468   0.83749   0.00000  Uiso   1.00
O1154  O     0.17849   0.41434   0.77820   0.00000  Uiso   1.00
O1155  O     0.14581   0.59469   0.76767   0.00000  Uiso   1.00
O1156  O     0.07452   0.46584   0.73607   0.00000  Uiso   1.00
O1157  O     0.26785   0.52512   0.71805   0.00000  Uiso   1.00
C1158  C     0.05268   0.49338   0.75851   0.00000  Uiso   1.00
C1159  C     0.28100   0.50676   0.74136   0.00000  Uiso   1.00
C1160  C     0.15584   0.38945   0.75897   0.00000  Uiso   1.00
C1161  C     0.17689   0.61102   0.74140   0.00000  Uiso   1.00
C1162  C     0.18808   0.47870   0.64404   0.00000  Uiso   1.00
C1163  C     0.14540   0.52092   0.85614   0.00000  Uiso   1.00
C1164  C     0.13099   0.52350   0.89926   0.00000  Uiso   1.00
C1165  C     0.19649   0.47033   0.60146   0.00000  Uiso   1.00
C1166  C     0.07211   0.52618   0.95935   0.00000  Uiso   1.00
C1167  C     0.08841   0.53019   0.91909   0.00000  Uiso   1.00
C1168  C     0.15847   0.51467   0.92009   0.00000  Uiso   1.00
C1169  C     0.14081   0.50270   0.95874   0.00000  Uiso   1.00
C1170  C     0.09788   0.51116   0.97921   0.00000  Uiso   1.00
C1171  C     0.16480   0.48376   0.97805   0.00000  Uiso   1.00
C1172  C     0.15077   0.48480   0.51963   0.00000  Uiso   1.00
C1173  C     0.10751   0.49111   0.53868   0.00000  Uiso   1.00
C1174  C     0.08125   0.50291   0.51860   0.00000  Uiso   1.00
C1175  C     0.19971   0.46038   0.95762   0.00000  Uiso   1.00
C1176  C     0.22431   0.44629   0.97827   0.00000  Uiso   1.00
C1177  C     0.21568   0.45482   0.51921   0.00000  Uiso   1.00
C1178  C     0.17892   0.47544   0.54046   0.00000  Uiso   1.00
C1179  C     0.24191   0.44144   0.53958   0.00000  Uiso   1.00
C1180  C     0.23079   0.44788   0.58062   0.00000  Uiso   1.00
C1181  C     0.17191   0.48641   0.58167   0.00000  Uiso   1.00
H1182  H     0.04790   0.50569   0.53447   0.00000  Uiso   1.00
H1183  H     0.25031   0.43701   0.59639   0.00000  Uiso   1.00
H1184  H     0.24971   0.42761   0.96161   0.00000  Uiso   1.00
H1185  H     0.06773   0.53871   0.90318   0.00000  Uiso   1.00
H1186  H     0.09262   0.48461   0.56881   0.00000  Uiso   1.00
C1187  C     0.32660   0.51013   0.73944   0.00000  Uiso   1.00
H1188  H     0.01595   0.53055   0.71930   0.00000  Uiso   1.00
C1189  C     0.00702   0.48969   0.76297   0.00000  Uiso   1.00
C1190  C     0.18098   0.65557   0.73829   0.00000  Uiso   1.00
H1191  H     0.20822   0.33631   0.71645   0.00000  Uiso   1.00
C1192  C     0.15148   0.34539   0.76210   0.00000  Uiso   1.00
H1193  H     0.12381   0.66542   0.78397   0.00000  Uiso   1.00
N1194  N     0.28006   0.42166   0.51925   0.00000  Uiso   1.00
O1195  O     0.28903   0.39027   0.53331   0.00000  Uiso   1.00
O1196  O     0.30960   0.43961   0.99146   0.00000  Uiso   1.00
O1197  O     0.31318   0.45969   0.78559   0.00000  Uiso   1.00
C1198  C     0.31397   0.46793   0.82549   0.00000  Uiso   1.00
H1199  H     0.28002   0.46435   0.84403   0.00000  Uiso   1.00
H1200  H     0.32755   0.50051   0.83365   0.00000  Uiso   1.00
C1201  C     0.00501   0.43600   0.83543   0.00000  Uiso   1.00
H1202  H     0.32365   0.40382   0.82815   0.00000  Uiso   1.00
H1203  H     0.03925   0.43938   0.81761   0.00000  Uiso   1.00
C1204  C     0.00342   0.44205   0.87903   0.00000  Uiso   1.00
H1205  H     0.01842   0.47386   0.88688   0.00000  Uiso   1.00
H1206  H     0.02143   0.41860   0.88535   0.00000  Uiso   1.00
H1207  H     0.30283   0.43782   0.89742   0.00000  Uiso   1.00
N1208  N     0.14508   0.51853   0.60228   0.00000  Uiso   1.00
O1209  O     0.15078   0.55459   0.58845   0.00000  Uiso   1.00
O1210  O     0.11566   0.51236   0.63518   0.00000  Uiso   1.00
N1211  N     0.02929   0.53678   0.97920   0.00000  Uiso   1.00
O1212  O     0.33231   0.52794   0.96132   0.00000  Uiso   1.00
O1213  O     0.02260   0.56198   0.51162   0.00000  Uiso   1.00
O1214  O     0.20253   0.51876   0.90220   0.00000  Uiso   1.00
C1215  C     0.22255   0.55586   0.91856   0.00000  Uiso   1.00
H1216  H     0.25650   0.55088   0.91512   0.00000  Uiso   1.00
H1217  H     0.20778   0.56324   0.95079   0.00000  Uiso   1.00
C1218  C     0.22266   0.59298   0.89632   0.00000  Uiso   1.00
H1219  H     0.23809   0.58538   0.86438   0.00000  Uiso   1.00
H1220  H     0.18895   0.59893   0.90008   0.00000  Uiso   1.00
C1221  C     0.24702   0.63264   0.91148   0.00000  Uiso   1.00
H1222  H     0.23136   0.64143   0.94313   0.00000  Uiso   1.00
H1223  H     0.24677   0.65879   0.89460   0.00000  Uiso   1.00
H1224  H     0.28105   0.62775   0.90770   0.00000  Uiso   1.00
O1225  O     0.20859   0.44781   0.91768   0.00000  Uiso   1.00
C1226  C     0.18247   0.41016   0.91154   0.00000  Uiso   1.00
H1227  H     0.14819   0.41622   0.91835   0.00000  Uiso   1.00
H1228  H     0.18493   0.38624   0.93017   0.00000  Uiso   1.00
C1229  C     0.19779   0.39271   0.86836   0.00000  Uiso   1.00
H1230  H     0.19627   0.41633   0.84924   0.00000  Uiso   1.00
H1231  H     0.23190   0.38632   0.86154   0.00000  Uiso   1.00
C1232  C     0.17021   0.35235   0.85935   0.00000  Uiso   1.00
H1233  H     0.16985   0.66216   0.87923   0.00000  Uiso   1.00
H1234  H     0.18387   0.33918   0.82850   0.00000  Uiso   1.00
H1235  H     0.13664   0.35873   0.86306   0.00000  Uiso   1.00
Zn1236 Zn    0.52577   0.47423   0.78277   0.00000  Uiso   1.00
Zn1237 Zn    0.46792   0.45711   0.72257   0.00000  Uiso   1.00
Zn1238 Zn    0.54500   0.52997   0.71188   0.00000  Uiso   1.00
Zn1239 Zn    0.46131   0.53868   0.78277   0.00000  Uiso   1.00
O1240  O     0.50000   0.50000   0.75000   0.00000  Uiso   1.00
O1241  O     0.40323   0.52293   0.77820   0.00000  Uiso   1.00
O1242  O     0.58773   0.48610   0.76767   0.00000  Uiso   1.00
O1243  O     0.47133   0.40236   0.73607   0.00000  Uiso   1.00
O1244  O     0.53771   0.58860   0.71805   0.00000  Uiso   1.00
O1245  O     0.49027   0.45726   0.66625   0.00000  Uiso   1.00
O1246  O     0.46020   0.53979   0.83749   0.00000  Uiso   1.00
O1247  O     0.54421   0.50826   0.65877   0.00000  Uiso   1.00
O1248  O     0.50532   0.49468   0.83749   0.00000  Uiso   1.00
O1249  O     0.51182   0.41434   0.77820   0.00000  Uiso   1.00
O1250  O     0.47914   0.59469   0.76767   0.00000  Uiso   1.00
O1251  O     0.40785   0.46584   0.73607   0.00000  Uiso   1.00
O1252  O     0.60119   0.52512   0.71805   0.00000  Uiso   1.00
C1253  C     0.38601   0.49338   0.75851   0.00000  Uiso   1.00
C1254  C     0.61433   0.50676   0.74136   0.00000  Uiso   1.00
C1255  C     0.48918   0.38945   0.75897   0.00000  Uiso   1.00
C1256  C     0.51022   0.61102   0.74140   0.00000  Uiso   1.00
C1257  C     0.52141   0.47870   0.64404   0.00000  Uiso   1.00
C1258  C     0.47873   0.52092   0.85614   0.00000  Uiso   1.00
C1259  C     0.46432   0.52350   0.89926   0.00000  Uiso   1.00
C1260  C     0.52982   0.47033   0.60146   0.00000  Uiso   1.00
C1261  C     0.40544   0.52618   0.95935   0.00000  Uiso   1.00
C1262  C     0.42174   0.53019   0.91909   0.00000  Uiso   1.00
C1263  C     0.49181   0.51467   0.92009   0.00000  Uiso   1.00
C1264  C     0.47415   0.50270   0.95874   0.00000  Uiso   1.00
C1265  C     0.43121   0.51116   0.97921   0.00000  Uiso   1.00
C1266  C     0.49814   0.48376   0.97805   0.00000  Uiso   1.00
C1267  C     0.48410   0.48480   0.51963   0.00000  Uiso   1.00
C1268  C     0.44084   0.49111   0.53868   0.00000  Uiso   1.00
C1269  C     0.41458   0.50291   0.51860   0.00000  Uiso   1.00
C1270  C     0.53305   0.46038   0.95762   0.00000  Uiso   1.00
C1271  C     0.55764   0.44629   0.97827   0.00000  Uiso   1.00
C1272  C     0.54902   0.45482   0.51921   0.00000  Uiso   1.00
C1273  C     0.51225   0.47544   0.54046   0.00000  Uiso   1.00
C1274  C     0.57525   0.44144   0.53958   0.00000  Uiso   1.00
C1275  C     0.56413   0.44788   0.58062   0.00000  Uiso   1.00
C1276  C     0.50524   0.48641   0.58167   0.00000  Uiso   1.00
H1277  H     0.38123   0.50569   0.53447   0.00000  Uiso   1.00
H1278  H     0.58364   0.43701   0.59639   0.00000  Uiso   1.00
H1279  H     0.58304   0.42761   0.96161   0.00000  Uiso   1.00
H1280  H     0.40107   0.53871   0.90318   0.00000  Uiso   1.00
H1281  H     0.42595   0.48461   0.56881   0.00000  Uiso   1.00
C1282  C     0.65993   0.51013   0.73944   0.00000  Uiso   1.00
H1283  H     0.34928   0.53055   0.71930   0.00000  Uiso   1.00
C1284  C     0.34035   0.48969   0.76297   0.00000  Uiso   1.00
C1285  C     0.51431   0.65557   0.73829   0.00000  Uiso   1.00
H1286  H     0.54155   0.33631   0.71645   0.00000  Uiso   1.00
C1287  C     0.48481   0.34539   0.76210   0.00000  Uiso   1.00
H1288  H     0.45714   0.66542   0.78397   0.00000  Uiso   1.00
N1289  N     0.61339   0.42166   0.51925   0.00000  Uiso   1.00
O1290  O     0.62236   0.39027   0.53331   0.00000  Uiso   1.00
O1291  O     0.64294   0.43961   0.99146   0.00000  Uiso   1.00
O1292  O     0.64652   0.45969   0.78559   0.00000  Uiso   1.00
C1293  C     0.64730   0.46793   0.82549   0.00000  Uiso   1.00
H1294  H     0.61335   0.46435   0.84403   0.00000  Uiso   1.00
H1295  H     0.66089   0.50051   0.83365   0.00000  Uiso   1.00
C1296  C     0.33835   0.43600   0.83543   0.00000  Uiso   1.00
H1297  H     0.65698   0.40382   0.82815   0.00000  Uiso   1.00
H1298  H     0.37258   0.43938   0.81761   0.00000  Uiso   1.00
C1299  C     0.33676   0.44205   0.87903   0.00000  Uiso   1.00
H1300  H     0.35175   0.47386   0.88688   0.00000  Uiso   1.00
H1301  H     0.35476   0.41860   0.88535   0.00000  Uiso   1.00
H1302  H     0.63617   0.43782   0.89742   0.00000  Uiso   1.00
N1303  N     0.47841   0.51853   0.60228   0.00000  Uiso   1.00
O1304  O     0.48411   0.55459   0.58845   0.00000  Uiso   1.00
O1305  O     0.44900   0.51236   0.63518   0.00000  Uiso   1.00
N1306  N     0.36262   0.53678   0.97920   0.00000  Uiso   1.00
O1307  O     0.66565   0.52794   0.96132   0.00000  Uiso   1.00
O1308  O     0.35593   0.56198   0.51162   0.00000  Uiso   1.00
O1309  O     0.53586   0.51876   0.90220   0.00000  Uiso   1.00
C1310  C     0.55588   0.55586   0.91856   0.00000  Uiso   1.00
H1311  H     0.58983   0.55088   0.91512   0.00000  Uiso   1.00
H1312  H     0.54111   0.56324   0.95079   0.00000  Uiso   1.00
C1313  C     0.55599   0.59298   0.89632   0.00000  Uiso   1.00
H1314  H     0.57142   0.58538   0.86438   0.00000  Uiso   1.00
H1315  H     0.52229   0.59893   0.90008   0.00000  Uiso   1.00
C1316  C     0.58035   0.63264   0.91148   0.00000  Uiso   1.00
H1317  H     0.56470   0.64143   0.94313   0.00000  Uiso   1.00
H1318  H     0.58010   0.65879   0.89460   0.00000  Uiso   1.00
H1319  H     0.61438   0.62775   0.90770   0.00000  Uiso   1.00
O1320  O     0.54192   0.44781   0.91768   0.00000  Uiso   1.00
C1321  C     0.51580   0.41016   0.91154   0.00000  Uiso   1.00
H1322  H     0.48153   0.41622   0.91835   0.00000  Uiso   1.00
H1323  H     0.51826   0.38624   0.93017   0.00000  Uiso   1.00
C1324  C     0.53113   0.39271   0.86836   0.00000  Uiso   1.00
H1325  H     0.52960   0.41633   0.84924   0.00000  Uiso   1.00
H1326  H     0.56524   0.38632   0.86154   0.00000  Uiso   1.00
C1327  C     0.50354   0.35235   0.85935   0.00000  Uiso   1.00
H1328  H     0.50318   0.66216   0.87923   0.00000  Uiso   1.00
H1329  H     0.51720   0.33918   0.82850   0.00000  Uiso   1.00
H1330  H     0.46997   0.35873   0.86306   0.00000  Uiso   1.00
Zn1331 Zn    0.85910   0.47423   0.78277   0.00000  Uiso   1.00
Zn1332 Zn    0.80125   0.45711   0.72257   0.00000  Uiso   1.00
Zn1333 Zn    0.87833   0.52997   0.71188   0.00000  Uiso   1.00
Zn1334 Zn    0.79465   0.53868   0.78277   0.00000  Uiso   1.00
O1335  O     0.83333   0.50000   0.75000   0.00000  Uiso   1.00
O1336  O     0.73656   0.52293   0.77820   0.00000  Uiso   1.00
O1337  O     0.92106   0.48610   0.76767   0.00000  Uiso   1.00
O1338  O     0.80467   0.40236   0.73607   0.00000  Uiso   1.00
O1339  O     0.87104   0.58860   0.71805   0.00000  Uiso   1.00
O1340  O     0.82360   0.45726   0.66625   0.00000  Uiso   1.00
O1341  O     0.79354   0.53979   0.83749   0.00000  Uiso   1.00
O1342  O     0.87755   0.50826   0.65877   0.00000  Uiso   1.00
O1343  O     0.83865   0.49468   0.83749   0.00000  Uiso   1.00
O1344  O     0.84515   0.41434   0.77820   0.00000  Uiso   1.00
O1345  O     0.81247   0.59469   0.76767   0.00000  Uiso   1.00
O1346  O     0.74119   0.46584   0.73607   0.00000  Uiso   1.00
O1347  O     0.93452   0.52512   0.71805   0.00000  Uiso   1.00
C1348  C     0.71935   0.49338   0.75851   0.00000  Uiso   1.00
C1349  C     0.94767   0.50676   0.74136   0.00000  Uiso   1.00
C1350  C     0.82251   0.38945   0.75897   0.00000  Uiso   1.00
C1351  C     0.84355   0.61102   0.74140   0.00000  Uiso   1.00
C1352  C     0.85474   0.47870   0.64404   0.00000  Uiso   1.00
C1353  C     0.81206   0.52092   0.85614   0.00000  Uiso   1.00
C1354  C     0.79766   0.52350   0.89926   0.00000  Uiso   1.00
C1355  C     0.86315   0.47033   0.60146   0.00000  Uiso   1.00
C1356  C     0.73877   0.52618   0.95935   0.00000  Uiso   1.00
C1357  C     0.75508   0.53019   0.91909   0.00000  Uiso   1.00
C1358  C     0.82514   0.51467   0.92009   0.00000  Uiso   1.00
C1359  C     0.80748   0.50270   0.95874   0.00000  Uiso   1.00
C1360  C     0.76454   0.51116   0.97921   0.00000  Uiso   1.00
C1361  C     0.83147   0.48376   0.97805   0.00000  Uiso   1.00
C1362  C     0.81743   0.48480   0.51963   0.00000  Uiso   1.00
C1363  C     0.77417   0.49111   0.53868   0.00000  Uiso   1.00
C1364  C     0.74792   0.50291   0.51860   0.00000  Uiso   1.00
C1365  C     0.86638   0.46038   0.95762   0.00000  Uiso   1.00
C1366  C     0.89098   0.44629   0.97827   0.00000  Uiso   1.00
C1367  C     0.88235   0.45482   0.51921   0.00000  Uiso   1.00
C1368  C     0.84559   0.47544   0.54046   0.00000  Uiso   1.00
C1369  C     0.90858   0.44144   0.53958   0.00000  Uiso   1.00
C1370  C     0.89746   0.44788   0.58062   0.00000  Uiso   1.00
C1371  C     0.83858   0.48641   0.58167   0.00000  Uiso   1.00
H1372  H     0.71456   0.50569   0.53447   0.00000  Uiso   1.00
H1373  H     0.91698   0.43701   0.59639   0.00000  Uiso   1.00
H1374  H     0.91638   0.42761   0.96161   0.00000  Uiso   1.00
H1375  H     0.73440   0.53871   0.90318   0.00000  Uiso   1.00
H1376  H     0.75929   0.48461   0.56881   0.00000  Uiso   1.00
C1377  C     0.99326   0.51013   0.73944   0.00000  Uiso   1.00
H1378  H     0.68261   0.53055   0.71930   0.00000  Uiso   1.00
C1379  C     0.67369   0.48969   0.76297   0.00000  Uiso   1.00
C1380  C     0.84764   0.65557   0.73829   0.00000  Uiso   1.00
H1381  H     0.87488   0.33631   0.71645   0.00000  Uiso   1.00
C1382  C     0.81814   0.34539   0.76210   0.00000  Uiso   1.00
H1383  H     0.79047   0.66542   0.78397   0.00000  Uiso   1.00
N1384  N     0.94672   0.42166   0.51925   0.00000  Uiso   1.00
O1385  O     0.95570   0.39027   0.53331   0.00000  Uiso   1.00
O1386  O     0.97627   0.43961   0.99146   0.00000  Uiso   1.00
O1387  O     0.97985   0.45969   0.78559   0.00000  Uiso   1.00
C1388  C     0.98064   0.46793   0.82549   0.00000  Uiso   1.00
H1389  H     0.94668   0.46435   0.84403   0.00000  Uiso   1.00
H1390  H     0.99422   0.50051   0.83365   0.00000  Uiso   1.00
C1391  C     0.67168   0.43600   0.83543   0.00000  Uiso   1.00
H1392  H     0.99031   0.40382   0.82815   0.00000  Uiso   1.00
H1393  H     0.70592   0.43938   0.81761   0.00000  Uiso   1.00
C1394  C     0.67009   0.44205   0.87903   0.00000  Uiso   1.00
H1395  H     0.68509   0.47386   0.88688   0.00000  Uiso   1.00
H1396  H     0.68810   0.41860   0.88535   0.00000  Uiso   1.00
H1397  H     0.96950   0.43782   0.89742   0.00000  Uiso   1.00
N1398  N     0.81174   0.51853   0.60228   0.00000  Uiso   1.00
O1399  O     0.81744   0.55459   0.58845   0.00000  Uiso   1.00
O1400  O     0.78233   0.51236   0.63518   0.00000  Uiso   1.00
N1401  N     0.69596   0.53678   0.97920   0.00000  Uiso   1.00
O1402  O     0.99898   0.52794   0.96132   0.00000  Uiso   1.00
O1403  O     0.68926   0.56198   0.51162   0.00000  Uiso   1.00
O1404  O     0.86920   0.51876   0.90220   0.00000  Uiso   1.00
C1405  C     0.88921   0.55586   0.91856   0.00000  Uiso   1.00
H1406  H     0.92316   0.55088   0.91512   0.00000  Uiso   1.00
H1407  H     0.87445   0.56324   0.95079   0.00000  Uiso   1.00
C1408  C     0.88933   0.59298   0.89632   0.00000  Uiso   1.00
H1409  H     0.90476   0.58538   0.86438   0.00000  Uiso   1.00
H1410  H     0.85562   0.59893   0.90008   0.00000  Uiso   1.00
C1411  C     0.91368   0.63264   0.91148   0.00000  Uiso   1.00
H1412  H     0.89803   0.64143   0.94313   0.00000  Uiso   1.00
H1413  H     0.91343   0.65879   0.89460   0.00000  Uiso   1.00
H1414  H     0.94772   0.62775   0.90770   0.00000  Uiso   1.00
O1415  O     0.87526   0.44781   0.91768   0.00000  Uiso   1.00
C1416  C     0.84914   0.41016   0.91154   0.00000  Uiso   1.00
H1417  H     0.81486   0.41622   0.91835   0.00000  Uiso   1.00
H1418  H     0.85160   0.38624   0.93017   0.00000  Uiso   1.00
C1419  C     0.86446   0.39271   0.86836   0.00000  Uiso   1.00
H1420  H     0.86294   0.41633   0.84924   0.00000  Uiso   1.00
H1421  H     0.89857   0.38632   0.86154   0.00000  Uiso   1.00
C1422  C     0.83688   0.35235   0.85935   0.00000  Uiso   1.00
H1423  H     0.83651   0.66216   0.87923   0.00000  Uiso   1.00
H1424  H     0.85053   0.33918   0.82850   0.00000  Uiso   1.00
H1425  H     0.80330   0.35873   0.86306   0.00000  Uiso   1.00
Zn1426 Zn    0.19244   0.80756   0.78277   0.00000  Uiso   1.00
Zn1427 Zn    0.13459   0.79044   0.72257   0.00000  Uiso   1.00
Zn1428 Zn    0.21166   0.86331   0.71188   0.00000  Uiso   1.00
Zn1429 Zn    0.12798   0.87202   0.78277   0.00000  Uiso   1.00
O1430  O     0.16667   0.83333   0.75000   0.00000  Uiso   1.00
O1431  O     0.06990   0.85627   0.77820   0.00000  Uiso   1.00
O1432  O     0.25440   0.81944   0.76767   0.00000  Uiso   1.00
O1433  O     0.13800   0.73570   0.73607   0.00000  Uiso   1.00
O1434  O     0.20437   0.92193   0.71805   0.00000  Uiso   1.00
O1435  O     0.15693   0.79060   0.66625   0.00000  Uiso   1.00
O1436  O     0.12687   0.87313   0.83749   0.00000  Uiso   1.00
O1437  O     0.21088   0.84159   0.65877   0.00000  Uiso   1.00
O1438  O     0.17198   0.82802   0.83749   0.00000  Uiso   1.00
O1439  O     0.17849   0.74768   0.77820   0.00000  Uiso   1.00
O1440  O     0.14581   0.92803   0.76767   0.00000  Uiso   1.00
O1441  O     0.07452   0.79917   0.73607   0.00000  Uiso   1.00
O1442  O     0.26785   0.85845   0.71805   0.00000  Uiso   1.00
C1443  C     0.05268   0.82671   0.75851   0.00000  Uiso   1.00
C1444  C     0.28100   0.84009   0.74136   0.00000  Uiso   1.00
C1445  C     0.15584   0.72278   0.75897   0.00000  Uiso   1.00
C1446  C     0.17689   0.94435   0.74140   0.00000  Uiso   1.00
C1447  C     0.18808   0.81204   0.64404   0.00000  Uiso   1.00
C1448  C     0.14540   0.85425   0.85614   0.00000  Uiso   1.00
C1449  C     0.13099   0.85683   0.89926   0.00000  Uiso   1.00
C1450  C     0.19649   0.80366   0.60146   0.00000  Uiso   1.00
C1451  C     0.07211   0.85951   0.95935   0.00000  Uiso   1.00
C1452  C     0.08841   0.86352   0.91909   0.00000  Uiso   1.00
C1453  C     0.15847   0.84800   0.92009   0.00000  Uiso   1.00
C1454  C     0.14081   0.83603   0.95874   0.00000  Uiso   1.00
C1455  C     0.09788   0.84449   0.97921   0.00000  Uiso   1.00
C1456  C     0.16480   0.81709   0.97805   0.00000  Uiso   1.00
C1457  C     0.15077   0.81813   0.51963   0.00000  Uiso   1.00
C1458  C     0.10751   0.82444   0.53868   0.00000  Uiso   1.00
C1459  C     0.08125   0.83624   0.51860   0.00000  Uiso   1.00
C1460  C     0.19971   0.79371   0.95762   0.00000  Uiso   1.00
C1461  C     0.22431   0.77962   0.97827   0.00000  Uiso   1.00
C1462  C     0.21568   0.78815   0.51921   0.00000  Uiso   1.00
C1463  C     0.17892   0.80878   0.54046   0.00000  Uiso   1.00
C1464  C     0.24191   0.77478   0.53958   0.00000  Uiso   1.00
C1465  C     0.23079   0.78122   0.58062   0.00000  Uiso   1.00
C1466  C     0.17191   0.81975   0.58167   0.00000  Uiso   1.00
H1467  H     0.04790   0.83902   0.53447   0.00000  Uiso   1.00
H1468  H     0.25031   0.77035   0.59639   0.00000  Uiso   1.00
H1469  H     0.24971   0.76094   0.96161   0.00000  Uiso   1.00
H1470  H     0.06773   0.87204   0.90318   0.00000  Uiso   1.00
H1471  H     0.09262   0.81795   0.56881   0.00000  Uiso   1.00
C1472  C     0.32660   0.84347   0.73944   0.00000  Uiso   1.00
H1473  H     0.01595   0.86388   0.71930   0.00000  Uiso   1.00
C1474  C     0.00702   0.82302   0.76297   0.00000  Uiso   1.00
C1475  C     0.18098   0.98890   0.73829   0.00000  Uiso   1.00
H1476  H     0.20822   0.66965   0.71645   0.00000  Uiso   1.00
C1477  C     0.15148   0.67872   0.76210   0.00000  Uiso   1.00
H1478  H     0.12381   0.99875   0.78397   0.00000  Uiso   1.00
N1479  N     0.28006   0.75500   0.51925   0.00000  Uiso   1.00
O1480  O     0.28903   0.72361   0.53331   0.00000  Uiso   1.00
O1481  O     0.30960   0.77295   0.99146   0.00000  Uiso   1.00
O1482  O     0.31318   0.79302   0.78559   0.00000  Uiso   1.00
C1483  C     0.31397   0.80127   0.82549   0.00000  Uiso   1.00
H1484  H     0.28002   0.79769   0.84403   0.00000  Uiso   1.00
H1485  H     0.32755   0.83385   0.83365   0.00000  Uiso   1.00
C1486  C     0.00501   0.76934   0.83543   0.00000  Uiso   1.00
H1487  H     0.32365   0.73716   0.82815   0.00000  Uiso   1.00
H1488  H     0.03925   0.77271   0.81761   0.00000  Uiso   1.00
C1489  C     0.00342   0.77538   0.87903   0.00000  Uiso   1.00
H1490  H     0.01842   0.80720   0.88688   0.00000  Uiso   1.00
H1491  H     0.02143   0.75194   0.88535   0.00000  Uiso   1.00
H1492  H     0.30283   0.77115   0.89742   0.00000  Uiso   1.00
N1493  N     0.14508   0.85187   0.60228   0.00000  Uiso   1.00
O1494  O     0.15078   0.88792   0.58845   0.00000  Uiso   1.00
O1495  O     0.11566   0.84569   0.63518   0.00000  Uiso   1.00
N1496  N     0.02929   0.87012   0.97920   0.00000  Uiso   1.00
O1497  O     0.33231   0.86128   0.96132   0.00000  Uiso   1.00
O1498  O     0.02260   0.89532   0.51162   0.00000  Uiso   1.00
O1499  O     0.20253   0.85210   0.90220   0.00000  Uiso   1.00
C1500  C     0.22255   0.88919   0.91856   0.00000  Uiso   1.00
H1501  H     0.25650   0.88421   0.91512   0.00000  Uiso   1.00
H1502  H     0.20778   0.89658   0.95079   0.00000  Uiso   1.00
C1503  C     0.22266   0.92631   0.89632   0.00000  Uiso   1.00
H1504  H     0.23809   0.91871   0.86438   0.00000  Uiso   1.00
H1505  H     0.18895   0.93226   0.90008   0.00000  Uiso   1.00
C1506  C     0.24702   0.96597   0.91148   0.00000  Uiso   1.00
H1507  H     0.23136   0.97476   0.94313   0.00000  Uiso   1.00
H1508  H     0.24677   0.99212   0.89460   0.00000  Uiso   1.00
H1509  H     0.28105   0.96109   0.90770   0.00000  Uiso   1.00
O1510  O     0.20859   0.78115   0.91768   0.00000  Uiso   1.00
C1511  C     0.18247   0.74349   0.91154   0.00000  Uiso   1.00
H1512  H     0.14819   0.74955   0.91835   0.00000  Uiso   1.00
H1513  H     0.18493   0.71957   0.93017   0.00000  Uiso   1.00
C1514  C     0.19779   0.72604   0.86836   0.00000  Uiso   1.00
H1515  H     0.19627   0.74966   0.84924   0.00000  Uiso   1.00
H1516  H     0.23190   0.71965   0.86154   0.00000  Uiso   1.00
C1517  C     0.17021   0.68568   0.85935   0.00000  Uiso   1.00
H1518  H     0.16985   0.99549   0.87923   0.00000  Uiso   1.00
H1519  H     0.18387   0.67251   0.82850   0.00000  Uiso   1.00
H1520  H     0.13664   0.69207   0.86306   0.00000  Uiso   1.00
Zn1521 Zn    0.52577   0.80756   0.78277   0.00000  Uiso   1.00
Zn1522 Zn    0.46792   0.79044   0.72257   0.00000  Uiso   1.00
Zn1523 Zn    0.54500   0.86331   0.71188   0.00000  Uiso   1.00
Zn1524 Zn    0.46131   0.87202   0.78277   0.00000  Uiso   1.00
O1525  O     0.50000   0.83333   0.75000   0.00000  Uiso   1.00
O1526  O     0.40323   0.85627   0.77820   0.00000  Uiso   1.00
O1527  O     0.58773   0.81944   0.76767   0.00000  Uiso   1.00
O1528  O     0.47133   0.73570   0.73607   0.00000  Uiso   1.00
O1529  O     0.53771   0.92193   0.71805   0.00000  Uiso   1.00
O1530  O     0.49027   0.79060   0.66625   0.00000  Uiso   1.00
O1531  O     0.46020   0.87313   0.83749   0.00000  Uiso   1.00
O1532  O     0.54421   0.84159   0.65877   0.00000  Uiso   1.00
O1533  O     0.50532   0.82802   0.83749   0.00000  Uiso   1.00
O1534  O     0.51182   0.74768   0.77820   0.00000  Uiso   1.00
O1535  O     0.47914   0.92803   0.76767   0.00000  Uiso   1.00
O1536  O     0.40785   0.79917   0.73607   0.00000  Uiso   1.00
O1537  O     0.60119   0.85845   0.71805   0.00000  Uiso   1.00
C1538  C     0.38601   0.82671   0.75851   0.00000  Uiso   1.00
C1539  C     0.61433   0.84009   0.74136   0.00000  Uiso   1.00
C1540  C     0.48918   0.72278   0.75897   0.00000  Uiso   1.00
C1541  C     0.51022   0.94435   0.74140   0.00000  Uiso   1.00
C1542  C     0.52141   0.81204   0.64404   0.00000  Uiso   1.00
C1543  C     0.47873   0.85425   0.85614   0.00000  Uiso   1.00
C1544  C     0.46432   0.85683   0.89926   0.00000  Uiso   1.00
C1545  C     0.52982   0.80366   0.60146   0.00000  Uiso   1.00
C1546  C     0.40544   0.85951   0.95935   0.00000  Uiso   1.00
C1547  C     0.42174   0.86352   0.91909   0.00000  Uiso   1.00
C1548  C     0.49181   0.84800   0.92009   0.00000  Uiso   1.00
C1549  C     0.47415   0.83603   0.95874   0.00000  Uiso   1.00
C1550  C     0.43121   0.84449   0.97921   0.00000  Uiso   1.00
C1551  C     0.49814   0.81709   0.97805   0.00000  Uiso   1.00
C1552  C     0.48410   0.81813   0.51963   0.00000  Uiso   1.00
C1553  C     0.44084   0.82444   0.53868   0.00000  Uiso   1.00
C1554  C     0.41458   0.83624   0.51860   0.00000  Uiso   1.00
C1555  C     0.53305   0.79371   0.95762   0.00000  Uiso   1.00
C1556  C     0.55764   0.77962   0.97827   0.00000  Uiso   1.00
C1557  C     0.54902   0.78815   0.51921   0.00000  Uiso   1.00
C1558  C     0.51225   0.80878   0.54046   0.00000  Uiso   1.00
C1559  C     0.57525   0.77478   0.53958   0.00000  Uiso   1.00
C1560  C     0.56413   0.78122   0.58062   0.00000  Uiso   1.00
C1561  C     0.50524   0.81975   0.58167   0.00000  Uiso   1.00
H1562  H     0.38123   0.83902   0.53447   0.00000  Uiso   1.00
H1563  H     0.58364   0.77035   0.59639   0.00000  Uiso   1.00
H1564  H     0.58304   0.76094   0.96161   0.00000  Uiso   1.00
H1565  H     0.40107   0.87204   0.90318   0.00000  Uiso   1.00
H1566  H     0.42595   0.81795   0.56881   0.00000  Uiso   1.00
C1567  C     0.65993   0.84347   0.73944   0.00000  Uiso   1.00
H1568  H     0.34928   0.86388   0.71930   0.00000  Uiso   1.00
C1569  C     0.34035   0.82302   0.76297   0.00000  Uiso   1.00
C1570  C     0.51431   0.98890   0.73829   0.00000  Uiso   1.00
H1571  H     0.54155   0.66965   0.71645   0.00000  Uiso   1.00
C1572  C     0.48481   0.67872   0.76210   0.00000  Uiso   1.00
H1573  H     0.45714   0.99875   0.78397   0.00000  Uiso   1.00
N1574  N     0.61339   0.75500   0.51925   0.00000  Uiso   1.00
O1575  O     0.62236   0.72361   0.53331   0.00000  Uiso   1.00
O1576  O     0.64294   0.77295   0.99146   0.00000  Uiso   1.00
O1577  O     0.64652   0.79302   0.78559   0.00000  Uiso   1.00
C1578  C     0.64730   0.80127   0.82549   0.00000  Uiso   1.00
H1579  H     0.61335   0.79769   0.84403   0.00000  Uiso   1.00
H1580  H     0.66089   0.83385   0.83365   0.00000  Uiso   1.00
C1581  C     0.33835   0.76934   0.83543   0.00000  Uiso   1.00
H1582  H     0.65698   0.73716   0.82815   0.00000  Uiso   1.00
H1583  H     0.37258   0.77271   0.81761   0.00000  Uiso   1.00
C1584  C     0.33676   0.77538   0.87903   0.00000  Uiso   1.00
H1585  H     0.35175   0.80720   0.88688   0.00000  Uiso   1.00
H1586  H     0.35476   0.75194   0.88535   0.00000  Uiso   1.00
H1587  H     0.63617   0.77115   0.89742   0.00000  Uiso   1.00
N1588  N     0.47841   0.85187   0.60228   0.00000  Uiso   1.00
O1589  O     0.48411   0.88792   0.58845   0.00000  Uiso   1.00
O1590  O     0.44900   0.84569   0.63518   0.00000  Uiso   1.00
N1591  N     0.36262   0.87012   0.97920   0.00000  Uiso   1.00
O1592  O     0.66565   0.86128   0.96132   0.00000  Uiso   1.00
O1593  O     0.35593   0.89532   0.51162   0.00000  Uiso   1.00
O1594  O     0.53586   0.85210   0.90220   0.00000  Uiso   1.00
C1595  C     0.55588   0.88919   0.91856   0.00000  Uiso   1.00
H1596  H     0.58983   0.88421   0.91512   0.00000  Uiso   1.00
H1597  H     0.54111   0.89658   0.95079   0.00000  Uiso   1.00
C1598  C     0.55599   0.92631   0.89632   0.00000  Uiso   1.00
H1599  H     0.57142   0.91871   0.86438   0.00000  Uiso   1.00
H1600  H     0.52229   0.93226   0.90008   0.00000  Uiso   1.00
C1601  C     0.58035   0.96597   0.91148   0.00000  Uiso   1.00
H1602  H     0.56470   0.97476   0.94313   0.00000  Uiso   1.00
H1603  H     0.58010   0.99212   0.89460   0.00000  Uiso   1.00
H1604  H     0.61438   0.96109   0.90770   0.00000  Uiso   1.00
O1605  O     0.54192   0.78115   0.91768   0.00000  Uiso   1.00
C1606  C     0.51580   0.74349   0.91154   0.00000  Uiso   1.00
H1607  H     0.48153   0.74955   0.91835   0.00000  Uiso   1.00
H1608  H     0.51826   0.71957   0.93017   0.00000  Uiso   1.00
C1609  C     0.53113   0.72604   0.86836   0.00000  Uiso   1.00
H1610  H     0.52960   0.74966   0.84924   0.00000  Uiso   1.00
H1611  H     0.56524   0.71965   0.86154   0.00000  Uiso   1.00
C1612  C     0.50354   0.68568   0.85935   0.00000  Uiso   1.00
H1613  H     0.50318   0.99549   0.87923   0.00000  Uiso   1.00
H1614  H     0.51720   0.67251   0.82850   0.00000  Uiso   1.00
H1615  H     0.46997   0.69207   0.86306   0.00000  Uiso   1.00
Zn1616 Zn    0.85910   0.80756   0.78277   0.00000  Uiso   1.00
Zn1617 Zn    0.80125   0.79044   0.72257   0.00000  Uiso   1.00
Zn1618 Zn    0.87833   0.86331   0.71188   0.00000  Uiso   1.00
Zn1619 Zn    0.79465   0.87202   0.78277   0.00000  Uiso   1.00
O1620  O     0.83333   0.83333   0.75000   0.00000  Uiso   1.00
O1621  O     0.73656   0.85627   0.77820   0.00000  Uiso   1.00
O1622  O     0.92106   0.81944   0.76767   0.00000  Uiso   1.00
O1623  O     0.80467   0.73570   0.73607   0.00000  Uiso   1.00
O1624  O     0.87104   0.92193   0.71805   0.00000  Uiso   1.00
O1625  O     0.82360   0.79060   0.66625   0.00000  Uiso   1.00
O1626  O     0.79354   0.87313   0.83749   0.00000  Uiso   1.00
O1627  O     0.87755   0.84159   0.65877   0.00000  Uiso   1.00
O1628  O     0.83865   0.82802   0.83749   0.00000  Uiso   1.00
O1629  O     0.84515   0.74768   0.77820   0.00000  Uiso   1.00
O1630  O     0.81247   0.92803   0.76767   0.00000  Uiso   1.00
O1631  O     0.74119   0.79917   0.73607   0.00000  Uiso   1.00
O1632  O     0.93452   0.85845   0.71805   0.00000  Uiso   1.00
C1633  C     0.71935   0.82671   0.75851   0.00000  Uiso   1.00
C1634  C     0.94767   0.84009   0.74136   0.00000  Uiso   1.00
C1635  C     0.82251   0.72278   0.75897   0.00000  Uiso   1.00
C1636  C     0.84355   0.94435   0.74140   0.00000  Uiso   1.00
C1637  C     0.85474   0.81204   0.64404   0.00000  Uiso   1.00
C1638  C     0.81206   0.85425   0.85614   0.00000  Uiso   1.00
C1639  C     0.79766   0.85683   0.89926   0.00000  Uiso   1.00
C1640  C     0.86315   0.80366   0.60146   0.00000  Uiso   1.00
C1641  C     0.73877   0.85951   0.95935   0.00000  Uiso   1.00
C1642  C     0.75508   0.86352   0.91909   0.00000  Uiso   1.00
C1643  C     0.82514   0.84800   0.92009   0.00000  Uiso   1.00
C1644  C     0.80748   0.83603   0.95874   0.00000  Uiso   1.00
C1645  C     0.76454   0.84449   0.97921   0.00000  Uiso   1.00
C1646  C     0.83147   0.81709   0.97805   0.00000  Uiso   1.00
C1647  C     0.81743   0.81813   0.51963   0.00000  Uiso   1.00
C1648  C     0.77417   0.82444   0.53868   0.00000  Uiso   1.00
C1649  C     0.74792   0.83624   0.51860   0.00000  Uiso   1.00
C1650  C     0.86638   0.79371   0.95762   0.00000  Uiso   1.00
C1651  C     0.89098   0.77962   0.97827   0.00000  Uiso   1.00
C1652  C     0.88235   0.78815   0.51921   0.00000  Uiso   1.00
C1653  C     0.84559   0.80878   0.54046   0.00000  Uiso   1.00
C1654  C     0.90858   0.77478   0.53958   0.00000  Uiso   1.00
C1655  C     0.89746   0.78122   0.58062   0.00000  Uiso   1.00
C1656  C     0.83858   0.81975   0.58167   0.00000  Uiso   1.00
H1657  H     0.71456   0.83902   0.53447   0.00000  Uiso   1.00
H1658  H     0.91698   0.77035   0.59639   0.00000  Uiso   1.00
H1659  H     0.91638   0.76094   0.96161   0.00000  Uiso   1.00
H1660  H     0.73440   0.87204   0.90318   0.00000  Uiso   1.00
H1661  H     0.75929   0.81795   0.56881   0.00000  Uiso   1.00
C1662  C     0.99326   0.84347   0.73944   0.00000  Uiso   1.00
H1663  H     0.68261   0.86388   0.71930   0.00000  Uiso   1.00
C1664  C     0.67369   0.82302   0.76297   0.00000  Uiso   1.00
C1665  C     0.84764   0.98890   0.73829   0.00000  Uiso   1.00
H1666  H     0.87488   0.66965   0.71645   0.00000  Uiso   1.00
C1667  C     0.81814   0.67872   0.76210   0.00000  Uiso   1.00
H1668  H     0.79047   0.99875   0.78397   0.00000  Uiso   1.00
N1669  N     0.94672   0.75500   0.51925   0.00000  Uiso   1.00
O1670  O     0.95570   0.72361   0.53331   0.00000  Uiso   1.00
O1671  O     0.97627   0.77295   0.99146   0.00000  Uiso   1.00
O1672  O     0.97985   0.79302   0.78559   0.00000  Uiso   1.00
C1673  C     0.98064   0.80127   0.82549   0.00000  Uiso   1.00
H1674  H     0.94668   0.79769   0.84403   0.00000  Uiso   1.00
H1675  H     0.99422   0.83385   0.83365   0.00000  Uiso   1.00
C1676  C     0.67168   0.76934   0.83543   0.00000  Uiso   1.00
H1677  H     0.99031   0.73716   0.82815   0.00000  Uiso   1.00
H1678  H     0.70592   0.77271   0.81761   0.00000  Uiso   1.00
C1679  C     0.67009   0.77538   0.87903   0.00000  Uiso   1.00
H1680  H     0.68509   0.80720   0.88688   0.00000  Uiso   1.00
H1681  H     0.68810   0.75194   0.88535   0.00000  Uiso   1.00
H1682  H     0.96950   0.77115   0.89742   0.00000  Uiso   1.00
N1683  N     0.81174   0.85187   0.60228   0.00000  Uiso   1.00
O1684  O     0.81744   0.88792   0.58845   0.00000  Uiso   1.00
O1685  O     0.78233   0.84569   0.63518   0.00000  Uiso   1.00
N1686  N     0.69596   0.87012   0.97920   0.00000  Uiso   1.00
O1687  O     0.99898   0.86128   0.96132   0.00000  Uiso   1.00
O1688  O     0.68926   0.89532   0.51162   0.00000  Uiso   1.00
O1689  O     0.86920   0.85210   0.90220   0.00000  Uiso   1.00
C1690  C     0.88921   0.88919   0.91856   0.00000  Uiso   1.00
H1691  H     0.92316   0.88421   0.91512   0.00000  Uiso   1.00
H1692  H     0.87445   0.89658   0.95079   0.00000  Uiso   1.00
C1693  C     0.88933   0.92631   0.89632   0.00000  Uiso   1.00
H1694  H     0.90476   0.91871   0.86438   0.00000  Uiso   1.00
H1695  H     0.85562   0.93226   0.90008   0.00000  Uiso   1.00
C1696  C     0.91368   0.96597   0.91148   0.00000  Uiso   1.00
H1697  H     0.89803   0.97476   0.94313   0.00000  Uiso   1.00
H1698  H     0.91343   0.99212   0.89460   0.00000  Uiso   1.00
H1699  H     0.94772   0.96109   0.90770   0.00000  Uiso   1.00
O1700  O     0.87526   0.78115   0.91768   0.00000  Uiso   1.00
C1701  C     0.84914   0.74349   0.91154   0.00000  Uiso   1.00
H1702  H     0.81486   0.74955   0.91835   0.00000  Uiso   1.00
H1703  H     0.85160   0.71957   0.93017   0.00000  Uiso   1.00
C1704  C     0.86446   0.72604   0.86836   0.00000  Uiso   1.00
H1705  H     0.86294   0.74966   0.84924   0.00000  Uiso   1.00
H1706  H     0.89857   0.71965   0.86154   0.00000  Uiso   1.00
C1707  C     0.83688   0.68568   0.85935   0.00000  Uiso   1.00
H1708  H     0.83651   0.99549   0.87923   0.00000  Uiso   1.00
H1709  H     0.85053   0.67251   0.82850   0.00000  Uiso   1.00
H1710  H     0.80330   0.69207   0.86306   0.00000  Uiso   1.00
loop_
_geom_bond_atom_site_label_1
_geom_bond_atom_site_label_2
_geom_bond_distance
_geom_bond_site_symmetry_2
_ccdc_geom_bond_type
Zn1    O5      1.956   .     S
Zn1    O13     1.924   .     S
Zn1    O7      1.928   .     S
Zn1    O14     1.925   .     S
Zn2    O16     1.930   .     S
Zn2    O5      1.940   .     S
Zn2    O10     1.928   .     S
Zn2    O8      1.933   .     S
Zn3    O12     1.931   .     S
Zn3    O9      1.927   .     S
Zn3    O5      1.935   .     S
Zn3    O17     1.939   .     S
Zn4    O6      1.934   .     S
Zn4    O11     1.936   .     S
Zn4    O5      1.932   .     S
Zn4    O15     1.928   .     S
O6     C18     1.268   .     A
O7     C19     1.271   .     A
O8     C20     1.275   .     A
O9     C21     1.271   .     A
O10    C22     1.274   .     A
O11    C23     1.281   .     A
O12    C22     1.273   .     A
O13    C23     1.282   .     A
O14    C20     1.276   .     A
O15    C21     1.271   .     A
O16    C18     1.266   .     A
O17    C19     1.285   .     A
C18    C49     1.439   .     S
C19    C47     1.456   .     S
C20    C52     1.434   .     S
C21    C50     1.450   .     S
C22    C25     1.455   .     S
C23    C24     1.466   .     S
C24    C27     1.397   .     A
C24    C28     1.399   .     A
C25    C40     1.393   .     A
C25    C41     1.403   .     A
C26    N71     1.438   .     S
C26    C27     1.397   .     A
C26    C30     1.418   .     A
C27    H45     1.083   .     S
C28    O74     1.387   .     S
C28    C29     1.417   .     A
C29    C30     1.426   .     A
C29    C31     1.428   .     A
C30    C889    1.400   .     S
C31    C35     1.422   .     A
C31    C887    1.416   .     S
C32    C38     1.424   .     A
C32    C33     1.408   .     A
C32    C886    1.416   1_554 S
C33    H46     1.080   .     S
C33    C34     1.387   .     A
C34    H42     1.081   .     S
C34    C885    1.400   1_554 S
C35    C36     1.393   .     A
C35    O85     1.382   .     S
C36    H44     1.081   .     S
C36    C892    1.399   .     S
C37    C38     1.424   .     A
C37    C39     1.416   .     A
C37    C891    1.399   1_554 S
C38    C41     1.421   .     A
C39    N54     1.438   .     S
C39    C40     1.395   .     A
C40    H43     1.084   .     S
C41    N68     1.440   .     S
C47    H143    1.088   .     S
C47    C144    1.345   .     S
H48    C237    1.088   1_455 S
C49    C237    1.345   1_455 S
C49    O247    1.392   1_455 S
C50    H336    1.088   .     S
C50    C337    1.331   .     S
H51    C620    1.088   1_545 S
C52    C620    1.331   1_545 S
C52    H623    1.086   1_545 S
H53    C337    1.086   .     S
N54    O55     1.301   .     A
N54    O911    1.301   1_554 S
O56    N909    1.301   .     S
O57    C58     1.417   .     S
O57    C144    1.392   .     S
C58    H60     1.117   .     S
C58    H59     1.111   .     S
C58    C156    1.531   .     S
C61    H63     1.111   .     S
C61    C64     1.526   .     S
C61    C248    1.531   1_455 S
C61    H252    1.112   1_455 S
H62    C156    1.112   .     S
C64    H66     1.110   .     S
C64    H65     1.110   .     S
C64    H257    1.110   1_455 S
H67    C159    1.110   .     S
N68    O69     1.301   .     A
N68    O70     1.302   .     A
N71    O262    1.302   1_455 S
N71    O928    1.301   .     S
O72    N166    1.302   .     S
O73    N926    1.301   1_554 S
O74    C75     1.416   .     S
C75    H76     1.111   .     S
C75    H77     1.116   .     S
C75    C78     1.533   .     S
C78    H80     1.110   .     S
C78    H79     1.112   .     S
C78    C81     1.526   .     S
C81    H82     1.111   .     S
C81    H83     1.110   .     S
C81    H84     1.111   .     S
O85    C86     1.411   .     S
C86    H87     1.114   .     S
C86    C89     1.527   .     S
C86    H88     1.116   .     S
C89    H91     1.112   .     S
C89    C92     1.526   .     S
C89    H90     1.111   .     S
C92    H95     1.111   .     S
C92    H94     1.110   .     S
C92    H663    1.110   1_545 S
H93    C377    1.110   .     S
Zn96   O100    1.956   .     S
Zn96   O108    1.924   .     S
Zn96   O102    1.928   .     S
Zn96   O109    1.925   .     S
Zn97   O111    1.930   .     S
Zn97   O100    1.940   .     S
Zn97   O105    1.928   .     S
Zn97   O103    1.933   .     S
Zn98   O107    1.931   .     S
Zn98   O104    1.927   .     S
Zn98   O100    1.935   .     S
Zn98   O112    1.939   .     S
Zn99   O101    1.934   .     S
Zn99   O106    1.936   .     S
Zn99   O100    1.932   .     S
Zn99   O110    1.928   .     S
O101   C113    1.268   .     A
O102   C114    1.271   .     A
O103   C115    1.275   .     A
O104   C116    1.271   .     A
O105   C117    1.274   .     A
O106   C118    1.281   .     A
O107   C117    1.273   .     A
O108   C118    1.282   .     A
O109   C115    1.276   .     A
O110   C116    1.271   .     A
O111   C113    1.266   .     A
O112   C114    1.285   .     A
C113   C144    1.439   .     S
C114   C142    1.456   .     S
C115   C147    1.434   .     S
C116   C145    1.450   .     S
C117   C120    1.455   .     S
C118   C119    1.466   .     S
C119   C122    1.397   .     A
C119   C123    1.399   .     A
C120   C135    1.393   .     A
C120   C136    1.403   .     A
C121   N166    1.438   .     S
C121   C122    1.397   .     A
C121   C125    1.418   .     A
C122   H140    1.083   .     S
C123   O169    1.387   .     S
C123   C124    1.417   .     A
C124   C125    1.426   .     A
C124   C126    1.428   .     A
C125   C984    1.400   .     S
C126   C130    1.422   .     A
C126   C982    1.416   .     S
C127   C133    1.424   .     A
C127   C128    1.408   .     A
C127   C981    1.416   1_554 S
C128   H141    1.080   .     S
C128   C129    1.387   .     A
C129   H137    1.081   .     S
C129   C980    1.400   1_554 S
C130   C131    1.393   .     A
C130   O180    1.382   .     S
C131   H139    1.081   .     S
C131   C987    1.399   .     S
C132   C133    1.424   .     A
C132   C134    1.416   .     A
C132   C986    1.399   1_554 S
C133   C136    1.421   .     A
C134   N149    1.438   .     S
C134   C135    1.395   .     A
C135   H138    1.084   .     S
C136   N163    1.440   .     S
C142   H238    1.088   .     S
C142   C239    1.345   .     S
C145   H431    1.088   .     S
C145   C432    1.331   .     S
H146   C715    1.088   1_545 S
C147   C715    1.331   1_545 S
C147   H718    1.086   1_545 S
H148   C432    1.086   .     S
N149   O150    1.301   .     A
N149   O1006   1.301   1_554 S
O151   N1004   1.301   .     S
O152   C153    1.417   .     S
O152   C239    1.392   .     S
C153   H155    1.117   .     S
C153   H154    1.111   .     S
C153   C251    1.531   .     S
C156   H158    1.111   .     S
C156   C159    1.526   .     S
H157   C251    1.112   .     S
C159   H161    1.110   .     S
C159   H160    1.110   .     S
H162   C254    1.110   .     S
N163   O164    1.301   .     A
N163   O165    1.302   .     A
N166   O1023   1.301   .     S
O167   N261    1.302   .     S
O168   N1021   1.301   1_554 S
O169   C170    1.416   .     S
C170   H171    1.111   .     S
C170   H172    1.116   .     S
C170   C173    1.533   .     S
C173   H175    1.110   .     S
C173   H174    1.112   .     S
C173   C176    1.526   .     S
C176   H177    1.111   .     S
C176   H178    1.110   .     S
C176   H179    1.111   .     S
O180   C181    1.411   .     S
C181   H182    1.114   .     S
C181   C184    1.527   .     S
C181   H183    1.116   .     S
C184   H186    1.112   .     S
C184   C187    1.526   .     S
C184   H185    1.111   .     S
C187   H190    1.111   .     S
C187   H189    1.110   .     S
C187   H758    1.110   1_545 S
H188   C472    1.110   .     S
Zn191  O195    1.956   .     S
Zn191  O203    1.924   .     S
Zn191  O197    1.928   .     S
Zn191  O204    1.925   .     S
Zn192  O206    1.930   .     S
Zn192  O195    1.940   .     S
Zn192  O200    1.928   .     S
Zn192  O198    1.933   .     S
Zn193  O202    1.931   .     S
Zn193  O199    1.927   .     S
Zn193  O195    1.935   .     S
Zn193  O207    1.939   .     S
Zn194  O196    1.934   .     S
Zn194  O201    1.936   .     S
Zn194  O195    1.932   .     S
Zn194  O205    1.928   .     S
O196   C208    1.268   .     A
O197   C209    1.271   .     A
O198   C210    1.275   .     A
O199   C211    1.271   .     A
O200   C212    1.274   .     A
O201   C213    1.281   .     A
O202   C212    1.273   .     A
O203   C213    1.282   .     A
O204   C210    1.276   .     A
O205   C211    1.271   .     A
O206   C208    1.266   .     A
O207   C209    1.285   .     A
C208   C239    1.439   .     S
C209   C237    1.456   .     S
C210   C242    1.434   .     S
C211   C240    1.450   .     S
C212   C215    1.455   .     S
C213   C214    1.466   .     S
C214   C217    1.397   .     A
C214   C218    1.399   .     A
C215   C230    1.393   .     A
C215   C231    1.403   .     A
C216   N261    1.438   .     S
C216   C217    1.397   .     A
C216   C220    1.418   .     A
C217   H235    1.083   .     S
C218   O264    1.387   .     S
C218   C219    1.417   .     A
C219   C220    1.426   .     A
C219   C221    1.428   .     A
C220   C1079   1.400   .     S
C221   C225    1.422   .     A
C221   C1077   1.416   .     S
C222   C228    1.424   .     A
C222   C223    1.408   .     A
C222   C1076   1.416   1_554 S
C223   H236    1.080   .     S
C223   C224    1.387   .     A
C224   H232    1.081   .     S
C224   C1075   1.400   1_554 S
C225   C226    1.393   .     A
C225   O275    1.382   .     S
C226   H234    1.081   .     S
C226   C1082   1.399   .     S
C227   C228    1.424   .     A
C227   C229    1.416   .     A
C227   C1081   1.399   1_554 S
C228   C231    1.421   .     A
C229   N244    1.438   .     S
C229   C230    1.395   .     A
C230   H233    1.084   .     S
C231   N258    1.440   .     S
C237   H48     1.088   1_655 S
C237   C49     1.345   1_655 S
C240   H526    1.088   .     S
C240   C527    1.331   .     S
H241   C810    1.088   1_545 S
C242   C810    1.331   1_545 S
C242   H813    1.086   1_545 S
H243   C527    1.086   .     S
N244   O245    1.301   .     A
N244   O1101   1.301   1_554 S
O246   N1099   1.301   .     S
O247   C248    1.417   .     S
O247   C49     1.392   1_655 S
C248   H250    1.117   .     S
C248   H249    1.111   .     S
C248   C61     1.531   1_655 S
C251   H253    1.111   .     S
C251   C254    1.526   .     S
H252   C61     1.112   1_655 S
C254   H256    1.110   .     S
C254   H255    1.110   .     S
H257   C64     1.110   1_655 S
N258   O259    1.301   .     A
N258   O260    1.302   .     A
N261   O1118   1.301   .     S
O262   N71     1.302   1_655 S
O263   N1116   1.301   1_554 S
O264   C265    1.416   .     S
C265   H266    1.111   .     S
C265   H267    1.116   .     S
C265   C268    1.533   .     S
C268   H270    1.110   .     S
C268   H269    1.112   .     S
C268   C271    1.526   .     S
C271   H272    1.111   .     S
C271   H273    1.110   .     S
C271   H274    1.111   .     S
O275   C276    1.411   .     S
C276   H277    1.114   .     S
C276   C279    1.527   .     S
C276   H278    1.116   .     S
C279   H281    1.112   .     S
C279   C282    1.526   .     S
C279   H280    1.111   .     S
C282   H285    1.111   .     S
C282   H284    1.110   .     S
C282   H853    1.110   1_545 S
H283   C567    1.110   .     S
Zn286  O290    1.956   .     S
Zn286  O298    1.924   .     S
Zn286  O292    1.928   .     S
Zn286  O299    1.925   .     S
Zn287  O301    1.930   .     S
Zn287  O290    1.940   .     S
Zn287  O295    1.928   .     S
Zn287  O293    1.933   .     S
Zn288  O297    1.931   .     S
Zn288  O294    1.927   .     S
Zn288  O290    1.935   .     S
Zn288  O302    1.939   .     S
Zn289  O291    1.934   .     S
Zn289  O296    1.936   .     S
Zn289  O290    1.932   .     S
Zn289  O300    1.928   .     S
O291   C303    1.268   .     A
O292   C304    1.271   .     A
O293   C305    1.275   .     A
O294   C306    1.271   .     A
O295   C307    1.274   .     A
O296   C308    1.281   .     A
O297   C307    1.273   .     A
O298   C308    1.282   .     A
O299   C305    1.276   .     A
O300   C306    1.271   .     A
O301   C303    1.266   .     A
O302   C304    1.285   .     A
C303   C334    1.439   .     S
C304   C332    1.456   .     S
C305   C337    1.434   .     S
C306   C335    1.450   .     S
C307   C310    1.455   .     S
C308   C309    1.466   .     S
C309   C312    1.397   .     A
C309   C313    1.399   .     A
C310   C325    1.393   .     A
C310   C326    1.403   .     A
C311   N356    1.438   .     S
C311   C312    1.397   .     A
C311   C315    1.418   .     A
C312   H330    1.083   .     S
C313   O359    1.387   .     S
C313   C314    1.417   .     A
C314   C315    1.426   .     A
C314   C316    1.428   .     A
C315   C1174   1.400   .     S
C316   C320    1.422   .     A
C316   C1172   1.416   .     S
C317   C323    1.424   .     A
C317   C318    1.408   .     A
C317   C1171   1.416   1_554 S
C318   H331    1.080   .     S
C318   C319    1.387   .     A
C319   H327    1.081   .     S
C319   C1170   1.400   1_554 S
C320   C321    1.393   .     A
C320   O370    1.382   .     S
C321   H329    1.081   .     S
C321   C1177   1.399   .     S
C322   C323    1.424   .     A
C322   C324    1.416   .     A
C322   C1176   1.399   1_554 S
C323   C326    1.421   .     A
C324   N339    1.438   .     S
C324   C325    1.395   .     A
C325   H328    1.084   .     S
C326   N353    1.440   .     S
C332   H428    1.088   .     S
C332   C429    1.345   .     S
H333   C522    1.088   1_455 S
C334   C522    1.345   1_455 S
C334   O532    1.392   1_455 S
C335   H621    1.088   .     S
C335   C622    1.331   .     S
H338   C622    1.086   .     S
N339   O340    1.301   .     A
N339   O1196   1.301   1_554 S
O341   N1194   1.301   .     S
O342   C343    1.417   .     S
O342   C429    1.392   .     S
C343   H345    1.117   .     S
C343   H344    1.111   .     S
C343   C441    1.531   .     S
C346   H348    1.111   .     S
C346   C349    1.526   .     S
C346   C533    1.531   1_455 S
C346   H537    1.112   1_455 S
H347   C441    1.112   .     S
C349   H351    1.110   .     S
C349   H350    1.110   .     S
C349   H542    1.110   1_455 S
H352   C444    1.110   .     S
N353   O354    1.301   .     A
N353   O355    1.302   .     A
N356   O547    1.302   1_455 S
N356   O1213   1.301   .     S
O357   N451    1.302   .     S
O358   N1211   1.301   1_554 S
O359   C360    1.416   .     S
C360   H361    1.111   .     S
C360   H362    1.116   .     S
C360   C363    1.533   .     S
C363   H365    1.110   .     S
C363   H364    1.112   .     S
C363   C366    1.526   .     S
C366   H367    1.111   .     S
C366   H368    1.110   .     S
C366   H369    1.111   .     S
O370   C371    1.411   .     S
C371   H372    1.114   .     S
C371   C374    1.527   .     S
C371   H373    1.116   .     S
C374   H376    1.112   .     S
C374   C377    1.526   .     S
C374   H375    1.111   .     S
C377   H380    1.111   .     S
C377   H379    1.110   .     S
H378   C662    1.110   .     S
Zn381  O385    1.956   .     S
Zn381  O393    1.924   .     S
Zn381  O387    1.928   .     S
Zn381  O394    1.925   .     S
Zn382  O396    1.930   .     S
Zn382  O385    1.940   .     S
Zn382  O390    1.928   .     S
Zn382  O388    1.933   .     S
Zn383  O392    1.931   .     S
Zn383  O389    1.927   .     S
Zn383  O385    1.935   .     S
Zn383  O397    1.939   .     S
Zn384  O386    1.934   .     S
Zn384  O391    1.936   .     S
Zn384  O385    1.932   .     S
Zn384  O395    1.928   .     S
O386   C398    1.268   .     A
O387   C399    1.271   .     A
O388   C400    1.275   .     A
O389   C401    1.271   .     A
O390   C402    1.274   .     A
O391   C403    1.281   .     A
O392   C402    1.273   .     A
O393   C403    1.282   .     A
O394   C400    1.276   .     A
O395   C401    1.271   .     A
O396   C398    1.266   .     A
O397   C399    1.285   .     A
C398   C429    1.439   .     S
C399   C427    1.456   .     S
C400   C432    1.434   .     S
C401   C430    1.450   .     S
C402   C405    1.455   .     S
C403   C404    1.466   .     S
C404   C407    1.397   .     A
C404   C408    1.399   .     A
C405   C420    1.393   .     A
C405   C421    1.403   .     A
C406   N451    1.438   .     S
C406   C407    1.397   .     A
C406   C410    1.418   .     A
C407   H425    1.083   .     S
C408   O454    1.387   .     S
C408   C409    1.417   .     A
C409   C410    1.426   .     A
C409   C411    1.428   .     A
C410   C1269   1.400   .     S
C411   C415    1.422   .     A
C411   C1267   1.416   .     S
C412   C418    1.424   .     A
C412   C413    1.408   .     A
C412   C1266   1.416   1_554 S
C413   H426    1.080   .     S
C413   C414    1.387   .     A
C414   H422    1.081   .     S
C414   C1265   1.400   1_554 S
C415   C416    1.393   .     A
C415   O465    1.382   .     S
C416   H424    1.081   .     S
C416   C1272   1.399   .     S
C417   C418    1.424   .     A
C417   C419    1.416   .     A
C417   C1271   1.399   1_554 S
C418   C421    1.421   .     A
C419   N434    1.438   .     S
C419   C420    1.395   .     A
C420   H423    1.084   .     S
C421   N448    1.440   .     S
C427   H523    1.088   .     S
C427   C524    1.345   .     S
C430   H716    1.088   .     S
C430   C717    1.331   .     S
H433   C717    1.086   .     S
N434   O435    1.301   .     A
N434   O1291   1.301   1_554 S
O436   N1289   1.301   .     S
O437   C438    1.417   .     S
O437   C524    1.392   .     S
C438   H440    1.117   .     S
C438   H439    1.111   .     S
C438   C536    1.531   .     S
C441   H443    1.111   .     S
C441   C444    1.526   .     S
H442   C536    1.112   .     S
C444   H446    1.110   .     S
C444   H445    1.110   .     S
H447   C539    1.110   .     S
N448   O449    1.301   .     A
N448   O450    1.302   .     A
N451   O1308   1.301   .     S
O452   N546    1.302   .     S
O453   N1306   1.301   1_554 S
O454   C455    1.416   .     S
C455   H456    1.111   .     S
C455   H457    1.116   .     S
C455   C458    1.533   .     S
C458   H460    1.110   .     S
C458   H459    1.112   .     S
C458   C461    1.526   .     S
C461   H462    1.111   .     S
C461   H463    1.110   .     S
C461   H464    1.111   .     S
O465   C466    1.411   .     S
C466   H467    1.114   .     S
C466   C469    1.527   .     S
C466   H468    1.116   .     S
C469   H471    1.112   .     S
C469   C472    1.526   .     S
C469   H470    1.111   .     S
C472   H475    1.111   .     S
C472   H474    1.110   .     S
H473   C757    1.110   .     S
Zn476  O480    1.956   .     S
Zn476  O488    1.924   .     S
Zn476  O482    1.928   .     S
Zn476  O489    1.925   .     S
Zn477  O491    1.930   .     S
Zn477  O480    1.940   .     S
Zn477  O485    1.928   .     S
Zn477  O483    1.933   .     S
Zn478  O487    1.931   .     S
Zn478  O484    1.927   .     S
Zn478  O480    1.935   .     S
Zn478  O492    1.939   .     S
Zn479  O481    1.934   .     S
Zn479  O486    1.936   .     S
Zn479  O480    1.932   .     S
Zn479  O490    1.928   .     S
O481   C493    1.268   .     A
O482   C494    1.271   .     A
O483   C495    1.275   .     A
O484   C496    1.271   .     A
O485   C497    1.274   .     A
O486   C498    1.281   .     A
O487   C497    1.273   .     A
O488   C498    1.282   .     A
O489   C495    1.276   .     A
O490   C496    1.271   .     A
O491   C493    1.266   .     A
O492   C494    1.285   .     A
C493   C524    1.439   .     S
C494   C522    1.456   .     S
C495   C527    1.434   .     S
C496   C525    1.450   .     S
C497   C500    1.455   .     S
C498   C499    1.466   .     S
C499   C502    1.397   .     A
C499   C503    1.399   .     A
C500   C515    1.393   .     A
C500   C516    1.403   .     A
C501   N546    1.438   .     S
C501   C502    1.397   .     A
C501   C505    1.418   .     A
C502   H520    1.083   .     S
C503   O549    1.387   .     S
C503   C504    1.417   .     A
C504   C505    1.426   .     A
C504   C506    1.428   .     A
C505   C1364   1.400   .     S
C506   C510    1.422   .     A
C506   C1362   1.416   .     S
C507   C513    1.424   .     A
C507   C508    1.408   .     A
C507   C1361   1.416   1_554 S
C508   H521    1.080   .     S
C508   C509    1.387   .     A
C509   H517    1.081   .     S
C509   C1360   1.400   1_554 S
C510   C511    1.393   .     A
C510   O560    1.382   .     S
C511   H519    1.081   .     S
C511   C1367   1.399   .     S
C512   C513    1.424   .     A
C512   C514    1.416   .     A
C512   C1366   1.399   1_554 S
C513   C516    1.421   .     A
C514   N529    1.438   .     S
C514   C515    1.395   .     A
C515   H518    1.084   .     S
C516   N543    1.440   .     S
C522   H333    1.088   1_655 S
C522   C334    1.345   1_655 S
C525   H811    1.088   .     S
C525   C812    1.331   .     S
H528   C812    1.086   .     S
N529   O530    1.301   .     A
N529   O1386   1.301   1_554 S
O531   N1384   1.301   .     S
O532   C533    1.417   .     S
O532   C334    1.392   1_655 S
C533   H535    1.117   .     S
C533   H534    1.111   .     S
C533   C346    1.531   1_655 S
C536   H538    1.111   .     S
C536   C539    1.526   .     S
H537   C346    1.112   1_655 S
C539   H541    1.110   .     S
C539   H540    1.110   .     S
H542   C349    1.110   1_655 S
N543   O544    1.301   .     A
N543   O545    1.302   .     A
N546   O1403   1.301   .     S
O547   N356    1.302   1_655 S
O548   N1401   1.301   1_554 S
O549   C550    1.416   .     S
C550   H551    1.111   .     S
C550   H552    1.116   .     S
C550   C553    1.533   .     S
C553   H555    1.110   .     S
C553   H554    1.112   .     S
C553   C556    1.526   .     S
C556   H557    1.111   .     S
C556   H558    1.110   .     S
C556   H559    1.111   .     S
O560   C561    1.411   .     S
C561   H562    1.114   .     S
C561   C564    1.527   .     S
C561   H563    1.116   .     S
C564   H566    1.112   .     S
C564   C567    1.526   .     S
C564   H565    1.111   .     S
C567   H570    1.111   .     S
C567   H569    1.110   .     S
H568   C852    1.110   .     S
Zn571  O575    1.956   .     S
Zn571  O583    1.924   .     S
Zn571  O577    1.928   .     S
Zn571  O584    1.925   .     S
Zn572  O586    1.930   .     S
Zn572  O575    1.940   .     S
Zn572  O580    1.928   .     S
Zn572  O578    1.933   .     S
Zn573  O582    1.931   .     S
Zn573  O579    1.927   .     S
Zn573  O575    1.935   .     S
Zn573  O587    1.939   .     S
Zn574  O576    1.934   .     S
Zn574  O581    1.936   .     S
Zn574  O575    1.932   .     S
Zn574  O585    1.928   .     S
O576   C588    1.268   .     A
O577   C589    1.271   .     A
O578   C590    1.275   .     A
O579   C591    1.271   .     A
O580   C592    1.274   .     A
O581   C593    1.281   .     A
O582   C592    1.273   .     A
O583   C593    1.282   .     A
O584   C590    1.276   .     A
O585   C591    1.271   .     A
O586   C588    1.266   .     A
O587   C589    1.285   .     A
C588   C619    1.439   .     S
C589   C617    1.456   .     S
C590   C622    1.434   .     S
C591   C620    1.450   .     S
C592   C595    1.455   .     S
C593   C594    1.466   .     S
C594   C597    1.397   .     A
C594   C598    1.399   .     A
C595   C610    1.393   .     A
C595   C611    1.403   .     A
C596   N641    1.438   .     S
C596   C597    1.397   .     A
C596   C600    1.418   .     A
C597   H615    1.083   .     S
C598   O644    1.387   .     S
C598   C599    1.417   .     A
C599   C600    1.426   .     A
C599   C601    1.428   .     A
C600   C1459   1.400   .     S
C601   C605    1.422   .     A
C601   C1457   1.416   .     S
C602   C608    1.424   .     A
C602   C603    1.408   .     A
C602   C1456   1.416   1_554 S
C603   H616    1.080   .     S
C603   C604    1.387   .     A
C604   H612    1.081   .     S
C604   C1455   1.400   1_554 S
C605   C606    1.393   .     A
C605   O655    1.382   .     S
C606   H614    1.081   .     S
C606   C1462   1.399   .     S
C607   C608    1.424   .     A
C607   C609    1.416   .     A
C607   C1461   1.399   1_554 S
C608   C611    1.421   .     A
C609   N624    1.438   .     S
C609   C610    1.395   .     A
C610   H613    1.084   .     S
C611   N638    1.440   .     S
C617   H713    1.088   .     S
C617   C714    1.345   .     S
H618   C807    1.088   1_455 S
C619   C807    1.345   1_455 S
C619   O817    1.392   1_455 S
C620   H51     1.088   1_565 S
C620   C52     1.331   1_565 S
H623   C52     1.086   1_565 S
N624   O625    1.301   .     A
N624   O1481   1.301   1_554 S
O626   N1479   1.301   .     S
O627   C628    1.417   .     S
O627   C714    1.392   .     S
C628   H630    1.117   .     S
C628   H629    1.111   .     S
C628   C726    1.531   .     S
C631   H633    1.111   .     S
C631   C634    1.526   .     S
C631   C818    1.531   1_455 S
C631   H822    1.112   1_455 S
H632   C726    1.112   .     S
C634   H636    1.110   .     S
C634   H635    1.110   .     S
C634   H827    1.110   1_455 S
H637   C729    1.110   .     S
N638   O639    1.301   .     A
N638   O640    1.302   .     A
N641   O832    1.302   1_455 S
N641   O1498   1.301   .     S
O642   N736    1.302   .     S
O643   N1496   1.301   1_554 S
O644   C645    1.416   .     S
C645   H646    1.111   .     S
C645   H647    1.116   .     S
C645   C648    1.533   .     S
C648   H650    1.110   .     S
C648   H649    1.112   .     S
C648   C651    1.526   .     S
C651   H652    1.111   .     S
C651   H653    1.110   .     S
C651   H654    1.111   .     S
O655   C656    1.411   .     S
C656   H657    1.114   .     S
C656   C659    1.527   .     S
C656   H658    1.116   .     S
C659   H661    1.112   .     S
C659   C662    1.526   .     S
C659   H660    1.111   .     S
C662   H665    1.111   .     S
C662   H664    1.110   .     S
H663   C92     1.110   1_565 S
Zn666  O670    1.956   .     S
Zn666  O678    1.924   .     S
Zn666  O672    1.928   .     S
Zn666  O679    1.925   .     S
Zn667  O681    1.930   .     S
Zn667  O670    1.940   .     S
Zn667  O675    1.928   .     S
Zn667  O673    1.933   .     S
Zn668  O677    1.931   .     S
Zn668  O674    1.927   .     S
Zn668  O670    1.935   .     S
Zn668  O682    1.939   .     S
Zn669  O671    1.934   .     S
Zn669  O676    1.936   .     S
Zn669  O670    1.932   .     S
Zn669  O680    1.928   .     S
O671   C683    1.268   .     A
O672   C684    1.271   .     A
O673   C685    1.275   .     A
O674   C686    1.271   .     A
O675   C687    1.274   .     A
O676   C688    1.281   .     A
O677   C687    1.273   .     A
O678   C688    1.282   .     A
O679   C685    1.276   .     A
O680   C686    1.271   .     A
O681   C683    1.266   .     A
O682   C684    1.285   .     A
C683   C714    1.439   .     S
C684   C712    1.456   .     S
C685   C717    1.434   .     S
C686   C715    1.450   .     S
C687   C690    1.455   .     S
C688   C689    1.466   .     S
C689   C692    1.397   .     A
C689   C693    1.399   .     A
C690   C705    1.393   .     A
C690   C706    1.403   .     A
C691   N736    1.438   .     S
C691   C692    1.397   .     A
C691   C695    1.418   .     A
C692   H710    1.083   .     S
C693   O739    1.387   .     S
C693   C694    1.417   .     A
C694   C695    1.426   .     A
C694   C696    1.428   .     A
C695   C1554   1.400   .     S
C696   C700    1.422   .     A
C696   C1552   1.416   .     S
C697   C703    1.424   .     A
C697   C698    1.408   .     A
C697   C1551   1.416   1_554 S
C698   H711    1.080   .     S
C698   C699    1.387   .     A
C699   H707    1.081   .     S
C699   C1550   1.400   1_554 S
C700   C701    1.393   .     A
C700   O750    1.382   .     S
C701   H709    1.081   .     S
C701   C1557   1.399   .     S
C702   C703    1.424   .     A
C702   C704    1.416   .     A
C702   C1556   1.399   1_554 S
C703   C706    1.421   .     A
C704   N719    1.438   .     S
C704   C705    1.395   .     A
C705   H708    1.084   .     S
C706   N733    1.440   .     S
C712   H808    1.088   .     S
C712   C809    1.345   .     S
C715   H146    1.088   1_565 S
C715   C147    1.331   1_565 S
H718   C147    1.086   1_565 S
N719   O720    1.301   .     A
N719   O1576   1.301   1_554 S
O721   N1574   1.301   .     S
O722   C723    1.417   .     S
O722   C809    1.392   .     S
C723   H725    1.117   .     S
C723   H724    1.111   .     S
C723   C821    1.531   .     S
C726   H728    1.111   .     S
C726   C729    1.526   .     S
H727   C821    1.112   .     S
C729   H731    1.110   .     S
C729   H730    1.110   .     S
H732   C824    1.110   .     S
N733   O734    1.301   .     A
N733   O735    1.302   .     A
N736   O1593   1.301   .     S
O737   N831    1.302   .     S
O738   N1591   1.301   1_554 S
O739   C740    1.416   .     S
C740   H741    1.111   .     S
C740   H742    1.116   .     S
C740   C743    1.533   .     S
C743   H745    1.110   .     S
C743   H744    1.112   .     S
C743   C746    1.526   .     S
C746   H747    1.111   .     S
C746   H748    1.110   .     S
C746   H749    1.111   .     S
O750   C751    1.411   .     S
C751   H752    1.114   .     S
C751   C754    1.527   .     S
C751   H753    1.116   .     S
C754   H756    1.112   .     S
C754   C757    1.526   .     S
C754   H755    1.111   .     S
C757   H760    1.111   .     S
C757   H759    1.110   .     S
H758   C187    1.110   1_565 S
Zn761  O765    1.956   .     S
Zn761  O773    1.924   .     S
Zn761  O767    1.928   .     S
Zn761  O774    1.925   .     S
Zn762  O776    1.930   .     S
Zn762  O765    1.940   .     S
Zn762  O770    1.928   .     S
Zn762  O768    1.933   .     S
Zn763  O772    1.931   .     S
Zn763  O769    1.927   .     S
Zn763  O765    1.935   .     S
Zn763  O777    1.939   .     S
Zn764  O766    1.934   .     S
Zn764  O771    1.936   .     S
Zn764  O765    1.932   .     S
Zn764  O775    1.928   .     S
O766   C778    1.268   .     A
O767   C779    1.271   .     A
O768   C780    1.275   .     A
O769   C781    1.271   .     A
O770   C782    1.274   .     A
O771   C783    1.281   .     A
O772   C782    1.273   .     A
O773   C783    1.282   .     A
O774   C780    1.276   .     A
O775   C781    1.271   .     A
O776   C778    1.266   .     A
O777   C779    1.285   .     A
C778   C809    1.439   .     S
C779   C807    1.456   .     S
C780   C812    1.434   .     S
C781   C810    1.450   .     S
C782   C785    1.455   .     S
C783   C784    1.466   .     S
C784   C787    1.397   .     A
C784   C788    1.399   .     A
C785   C800    1.393   .     A
C785   C801    1.403   .     A
C786   N831    1.438   .     S
C786   C787    1.397   .     A
C786   C790    1.418   .     A
C787   H805    1.083   .     S
C788   O834    1.387   .     S
C788   C789    1.417   .     A
C789   C790    1.426   .     A
C789   C791    1.428   .     A
C790   C1649   1.400   .     S
C791   C795    1.422   .     A
C791   C1647   1.416   .     S
C792   C798    1.424   .     A
C792   C793    1.408   .     A
C792   C1646   1.416   1_554 S
C793   H806    1.080   .     S
C793   C794    1.387   .     A
C794   H802    1.081   .     S
C794   C1645   1.400   1_554 S
C795   C796    1.393   .     A
C795   O845    1.382   .     S
C796   H804    1.081   .     S
C796   C1652   1.399   .     S
C797   C798    1.424   .     A
C797   C799    1.416   .     A
C797   C1651   1.399   1_554 S
C798   C801    1.421   .     A
C799   N814    1.438   .     S
C799   C800    1.395   .     A
C800   H803    1.084   .     S
C801   N828    1.440   .     S
C807   H618    1.088   1_655 S
C807   C619    1.345   1_655 S
C810   H241    1.088   1_565 S
C810   C242    1.331   1_565 S
H813   C242    1.086   1_565 S
N814   O815    1.301   .     A
N814   O1671   1.301   1_554 S
O816   N1669   1.301   .     S
O817   C818    1.417   .     S
O817   C619    1.392   1_655 S
C818   H820    1.117   .     S
C818   H819    1.111   .     S
C818   C631    1.531   1_655 S
C821   H823    1.111   .     S
C821   C824    1.526   .     S
H822   C631    1.112   1_655 S
C824   H826    1.110   .     S
C824   H825    1.110   .     S
H827   C634    1.110   1_655 S
N828   O829    1.301   .     A
N828   O830    1.302   .     A
N831   O1688   1.301   .     S
O832   N641    1.302   1_655 S
O833   N1686   1.301   1_554 S
O834   C835    1.416   .     S
C835   H836    1.111   .     S
C835   H837    1.116   .     S
C835   C838    1.533   .     S
C838   H840    1.110   .     S
C838   H839    1.112   .     S
C838   C841    1.526   .     S
C841   H842    1.111   .     S
C841   H843    1.110   .     S
C841   H844    1.111   .     S
O845   C846    1.411   .     S
C846   H847    1.114   .     S
C846   C849    1.527   .     S
C846   H848    1.116   .     S
C849   H851    1.112   .     S
C849   C852    1.526   .     S
C849   H850    1.111   .     S
C852   H855    1.111   .     S
C852   H854    1.110   .     S
H853   C282    1.110   1_565 S
Zn856  O860    1.956   .     S
Zn856  O868    1.924   .     S
Zn856  O862    1.928   .     S
Zn856  O869    1.925   .     S
Zn857  O871    1.930   .     S
Zn857  O860    1.940   .     S
Zn857  O865    1.928   .     S
Zn857  O863    1.933   .     S
Zn858  O867    1.931   .     S
Zn858  O864    1.927   .     S
Zn858  O860    1.935   .     S
Zn858  O872    1.939   .     S
Zn859  O861    1.934   .     S
Zn859  O866    1.936   .     S
Zn859  O860    1.932   .     S
Zn859  O870    1.928   .     S
O861   C873    1.268   .     A
O862   C874    1.271   .     A
O863   C875    1.275   .     A
O864   C876    1.271   .     A
O865   C877    1.274   .     A
O866   C878    1.281   .     A
O867   C877    1.273   .     A
O868   C878    1.282   .     A
O869   C875    1.276   .     A
O870   C876    1.271   .     A
O871   C873    1.266   .     A
O872   C874    1.285   .     A
C873   C904    1.439   .     S
C874   C902    1.456   .     S
C875   C907    1.434   .     S
C876   C905    1.450   .     S
C877   C880    1.455   .     S
C878   C879    1.466   .     S
C879   C882    1.397   .     A
C879   C883    1.399   .     A
C880   C895    1.393   .     A
C880   C896    1.403   .     A
C881   N926    1.438   .     S
C881   C882    1.397   .     A
C881   C885    1.418   .     A
C882   H900    1.083   .     S
C883   O929    1.387   .     S
C883   C884    1.417   .     A
C884   C885    1.426   .     A
C884   C886    1.428   .     A
C885   C34     1.400   1_556 S
C886   C890    1.422   .     A
C886   C32     1.416   1_556 S
C887   C893    1.424   .     A
C887   C888    1.408   .     A
C888   H901    1.080   .     S
C888   C889    1.387   .     A
C889   H897    1.081   .     S
C890   C891    1.393   .     A
C890   O940    1.382   .     S
C891   H899    1.081   .     S
C891   C37     1.399   1_556 S
C892   C893    1.424   .     A
C892   C894    1.416   .     A
C893   C896    1.421   .     A
C894   N909    1.438   .     S
C894   C895    1.395   .     A
C895   H898    1.084   .     S
C896   N923    1.440   .     S
C902   H998    1.088   .     S
C902   C999    1.345   .     S
H903   C1092   1.088   1_455 S
C904   C1092   1.345   1_455 S
C904   O1102   1.392   1_455 S
C905   H1191   1.088   .     S
C905   C1192   1.331   .     S
H906   C1475   1.088   1_545 S
C907   C1475   1.331   1_545 S
C907   H1478   1.086   1_545 S
H908   C1192   1.086   .     S
N909   O910    1.301   .     A
O911   N54     1.301   1_556 S
O912   C913    1.417   .     S
O912   C999    1.392   .     S
C913   H915    1.117   .     S
C913   H914    1.111   .     S
C913   C1011   1.531   .     S
C916   H918    1.111   .     S
C916   C919    1.526   .     S
C916   C1103   1.531   1_455 S
C916   H1107   1.112   1_455 S
H917   C1011   1.112   .     S
C919   H921    1.110   .     S
C919   H920    1.110   .     S
C919   H1112   1.110   1_455 S
H922   C1014   1.110   .     S
N923   O924    1.301   .     A
N923   O925    1.302   .     A
N926   O1117   1.302   1_455 S
N926   O73     1.301   1_556 S
O927   N1021   1.302   .     S
O929   C930    1.416   .     S
C930   H931    1.111   .     S
C930   H932    1.116   .     S
C930   C933    1.533   .     S
C933   H935    1.110   .     S
C933   H934    1.112   .     S
C933   C936    1.526   .     S
C936   H937    1.111   .     S
C936   H938    1.110   .     S
C936   H939    1.111   .     S
O940   C941    1.411   .     S
C941   H942    1.114   .     S
C941   C944    1.527   .     S
C941   H943    1.116   .     S
C944   H946    1.112   .     S
C944   C947    1.526   .     S
C944   H945    1.111   .     S
C947   H950    1.111   .     S
C947   H949    1.110   .     S
C947   H1518   1.110   1_545 S
H948   C1232   1.110   .     S
Zn951  O955    1.956   .     S
Zn951  O963    1.924   .     S
Zn951  O957    1.928   .     S
Zn951  O964    1.925   .     S
Zn952  O966    1.930   .     S
Zn952  O955    1.940   .     S
Zn952  O960    1.928   .     S
Zn952  O958    1.933   .     S
Zn953  O962    1.931   .     S
Zn953  O959    1.927   .     S
Zn953  O955    1.935   .     S
Zn953  O967    1.939   .     S
Zn954  O956    1.934   .     S
Zn954  O961    1.936   .     S
Zn954  O955    1.932   .     S
Zn954  O965    1.928   .     S
O956   C968    1.268   .     A
O957   C969    1.271   .     A
O958   C970    1.275   .     A
O959   C971    1.271   .     A
O960   C972    1.274   .     A
O961   C973    1.281   .     A
O962   C972    1.273   .     A
O963   C973    1.282   .     A
O964   C970    1.276   .     A
O965   C971    1.271   .     A
O966   C968    1.266   .     A
O967   C969    1.285   .     A
C968   C999    1.439   .     S
C969   C997    1.456   .     S
C970   C1002   1.434   .     S
C971   C1000   1.450   .     S
C972   C975    1.455   .     S
C973   C974    1.466   .     S
C974   C977    1.397   .     A
C974   C978    1.399   .     A
C975   C990    1.393   .     A
C975   C991    1.403   .     A
C976   N1021   1.438   .     S
C976   C977    1.397   .     A
C976   C980    1.418   .     A
C977   H995    1.083   .     S
C978   O1024   1.387   .     S
C978   C979    1.417   .     A
C979   C980    1.426   .     A
C979   C981    1.428   .     A
C980   C129    1.400   1_556 S
C981   C985    1.422   .     A
C981   C127    1.416   1_556 S
C982   C988    1.424   .     A
C982   C983    1.408   .     A
C983   H996    1.080   .     S
C983   C984    1.387   .     A
C984   H992    1.081   .     S
C985   C986    1.393   .     A
C985   O1035   1.382   .     S
C986   H994    1.081   .     S
C986   C132    1.399   1_556 S
C987   C988    1.424   .     A
C987   C989    1.416   .     A
C988   C991    1.421   .     A
C989   N1004   1.438   .     S
C989   C990    1.395   .     A
C990   H993    1.084   .     S
C991   N1018   1.440   .     S
C997   H1093   1.088   .     S
C997   C1094   1.345   .     S
C1000  H1286   1.088   .     S
C1000  C1287   1.331   .     S
H1001  C1570   1.088   1_545 S
C1002  C1570   1.331   1_545 S
C1002  H1573   1.086   1_545 S
H1003  C1287   1.086   .     S
N1004  O1005   1.301   .     A
O1006  N149    1.301   1_556 S
O1007  C1008   1.417   .     S
O1007  C1094   1.392   .     S
C1008  H1010   1.117   .     S
C1008  H1009   1.111   .     S
C1008  C1106   1.531   .     S
C1011  H1013   1.111   .     S
C1011  C1014   1.526   .     S
H1012  C1106   1.112   .     S
C1014  H1016   1.110   .     S
C1014  H1015   1.110   .     S
H1017  C1109   1.110   .     S
N1018  O1019   1.301   .     A
N1018  O1020   1.302   .     A
N1021  O168    1.301   1_556 S
O1022  N1116   1.302   .     S
O1024  C1025   1.416   .     S
C1025  H1026   1.111   .     S
C1025  H1027   1.116   .     S
C1025  C1028   1.533   .     S
C1028  H1030   1.110   .     S
C1028  H1029   1.112   .     S
C1028  C1031   1.526   .     S
C1031  H1032   1.111   .     S
C1031  H1033   1.110   .     S
C1031  H1034   1.111   .     S
O1035  C1036   1.411   .     S
C1036  H1037   1.114   .     S
C1036  C1039   1.527   .     S
C1036  H1038   1.116   .     S
C1039  H1041   1.112   .     S
C1039  C1042   1.526   .     S
C1039  H1040   1.111   .     S
C1042  H1045   1.111   .     S
C1042  H1044   1.110   .     S
C1042  H1613   1.110   1_545 S
H1043  C1327   1.110   .     S
Zn1046 O1050   1.956   .     S
Zn1046 O1058   1.924   .     S
Zn1046 O1052   1.928   .     S
Zn1046 O1059   1.925   .     S
Zn1047 O1061   1.930   .     S
Zn1047 O1050   1.940   .     S
Zn1047 O1055   1.928   .     S
Zn1047 O1053   1.933   .     S
Zn1048 O1057   1.931   .     S
Zn1048 O1054   1.927   .     S
Zn1048 O1050   1.935   .     S
Zn1048 O1062   1.939   .     S
Zn1049 O1051   1.934   .     S
Zn1049 O1056   1.936   .     S
Zn1049 O1050   1.932   .     S
Zn1049 O1060   1.928   .     S
O1051  C1063   1.268   .     A
O1052  C1064   1.271   .     A
O1053  C1065   1.275   .     A
O1054  C1066   1.271   .     A
O1055  C1067   1.274   .     A
O1056  C1068   1.281   .     A
O1057  C1067   1.273   .     A
O1058  C1068   1.282   .     A
O1059  C1065   1.276   .     A
O1060  C1066   1.271   .     A
O1061  C1063   1.266   .     A
O1062  C1064   1.285   .     A
C1063  C1094   1.439   .     S
C1064  C1092   1.456   .     S
C1065  C1097   1.434   .     S
C1066  C1095   1.450   .     S
C1067  C1070   1.455   .     S
C1068  C1069   1.466   .     S
C1069  C1072   1.397   .     A
C1069  C1073   1.399   .     A
C1070  C1085   1.393   .     A
C1070  C1086   1.403   .     A
C1071  N1116   1.438   .     S
C1071  C1072   1.397   .     A
C1071  C1075   1.418   .     A
C1072  H1090   1.083   .     S
C1073  O1119   1.387   .     S
C1073  C1074   1.417   .     A
C1074  C1075   1.426   .     A
C1074  C1076   1.428   .     A
C1075  C224    1.400   1_556 S
C1076  C1080   1.422   .     A
C1076  C222    1.416   1_556 S
C1077  C1083   1.424   .     A
C1077  C1078   1.408   .     A
C1078  H1091   1.080   .     S
C1078  C1079   1.387   .     A
C1079  H1087   1.081   .     S
C1080  C1081   1.393   .     A
C1080  O1130   1.382   .     S
C1081  H1089   1.081   .     S
C1081  C227    1.399   1_556 S
C1082  C1083   1.424   .     A
C1082  C1084   1.416   .     A
C1083  C1086   1.421   .     A
C1084  N1099   1.438   .     S
C1084  C1085   1.395   .     A
C1085  H1088   1.084   .     S
C1086  N1113   1.440   .     S
C1092  H903    1.088   1_655 S
C1092  C904    1.345   1_655 S
C1095  H1381   1.088   .     S
C1095  C1382   1.331   .     S
H1096  C1665   1.088   1_545 S
C1097  C1665   1.331   1_545 S
C1097  H1668   1.086   1_545 S
H1098  C1382   1.086   .     S
N1099  O1100   1.301   .     A
O1101  N244    1.301   1_556 S
O1102  C1103   1.417   .     S
O1102  C904    1.392   1_655 S
C1103  H1105   1.117   .     S
C1103  H1104   1.111   .     S
C1103  C916    1.531   1_655 S
C1106  H1108   1.111   .     S
C1106  C1109   1.526   .     S
H1107  C916    1.112   1_655 S
C1109  H1111   1.110   .     S
C1109  H1110   1.110   .     S
H1112  C919    1.110   1_655 S
N1113  O1114   1.301   .     A
N1113  O1115   1.302   .     A
N1116  O263    1.301   1_556 S
O1117  N926    1.302   1_655 S
O1119  C1120   1.416   .     S
C1120  H1121   1.111   .     S
C1120  H1122   1.116   .     S
C1120  C1123   1.533   .     S
C1123  H1125   1.110   .     S
C1123  H1124   1.112   .     S
C1123  C1126   1.526   .     S
C1126  H1127   1.111   .     S
C1126  H1128   1.110   .     S
C1126  H1129   1.111   .     S
O1130  C1131   1.411   .     S
C1131  H1132   1.114   .     S
C1131  C1134   1.527   .     S
C1131  H1133   1.116   .     S
C1134  H1136   1.112   .     S
C1134  C1137   1.526   .     S
C1134  H1135   1.111   .     S
C1137  H1140   1.111   .     S
C1137  H1139   1.110   .     S
C1137  H1708   1.110   1_545 S
H1138  C1422   1.110   .     S
Zn1141 O1145   1.956   .     S
Zn1141 O1153   1.924   .     S
Zn1141 O1147   1.928   .     S
Zn1141 O1154   1.925   .     S
Zn1142 O1156   1.930   .     S
Zn1142 O1145   1.940   .     S
Zn1142 O1150   1.928   .     S
Zn1142 O1148   1.933   .     S
Zn1143 O1152   1.931   .     S
Zn1143 O1149   1.927   .     S
Zn1143 O1145   1.935   .     S
Zn1143 O1157   1.939   .     S
Zn1144 O1146   1.934   .     S
Zn1144 O1151   1.936   .     S
Zn1144 O1145   1.932   .     S
Zn1144 O1155   1.928   .     S
O1146  C1158   1.268   .     A
O1147  C1159   1.271   .     A
O1148  C1160   1.275   .     A
O1149  C1161   1.271   .     A
O1150  C1162   1.274   .     A
O1151  C1163   1.281   .     A
O1152  C1162   1.273   .     A
O1153  C1163   1.282   .     A
O1154  C1160   1.276   .     A
O1155  C1161   1.271   .     A
O1156  C1158   1.266   .     A
O1157  C1159   1.285   .     A
C1158  C1189   1.439   .     S
C1159  C1187   1.456   .     S
C1160  C1192   1.434   .     S
C1161  C1190   1.450   .     S
C1162  C1165   1.455   .     S
C1163  C1164   1.466   .     S
C1164  C1167   1.397   .     A
C1164  C1168   1.399   .     A
C1165  C1180   1.393   .     A
C1165  C1181   1.403   .     A
C1166  N1211   1.438   .     S
C1166  C1167   1.397   .     A
C1166  C1170   1.418   .     A
C1167  H1185   1.083   .     S
C1168  O1214   1.387   .     S
C1168  C1169   1.417   .     A
C1169  C1170   1.426   .     A
C1169  C1171   1.428   .     A
C1170  C319    1.400   1_556 S
C1171  C1175   1.422   .     A
C1171  C317    1.416   1_556 S
C1172  C1178   1.424   .     A
C1172  C1173   1.408   .     A
C1173  H1186   1.080   .     S
C1173  C1174   1.387   .     A
C1174  H1182   1.081   .     S
C1175  C1176   1.393   .     A
C1175  O1225   1.382   .     S
C1176  H1184   1.081   .     S
C1176  C322    1.399   1_556 S
C1177  C1178   1.424   .     A
C1177  C1179   1.416   .     A
C1178  C1181   1.421   .     A
C1179  N1194   1.438   .     S
C1179  C1180   1.395   .     A
C1180  H1183   1.084   .     S
C1181  N1208   1.440   .     S
C1187  H1283   1.088   .     S
C1187  C1284   1.345   .     S
H1188  C1377   1.088   1_455 S
C1189  C1377   1.345   1_455 S
C1189  O1387   1.392   1_455 S
C1190  H1476   1.088   .     S
C1190  C1477   1.331   .     S
H1193  C1477   1.086   .     S
N1194  O1195   1.301   .     A
O1196  N339    1.301   1_556 S
O1197  C1198   1.417   .     S
O1197  C1284   1.392   .     S
C1198  H1200   1.117   .     S
C1198  H1199   1.111   .     S
C1198  C1296   1.531   .     S
C1201  H1203   1.111   .     S
C1201  C1204   1.526   .     S
C1201  C1388   1.531   1_455 S
C1201  H1392   1.112   1_455 S
H1202  C1296   1.112   .     S
C1204  H1206   1.110   .     S
C1204  H1205   1.110   .     S
C1204  H1397   1.110   1_455 S
H1207  C1299   1.110   .     S
N1208  O1209   1.301   .     A
N1208  O1210   1.302   .     A
N1211  O1402   1.302   1_455 S
N1211  O358    1.301   1_556 S
O1212  N1306   1.302   .     S
O1214  C1215   1.416   .     S
C1215  H1216   1.111   .     S
C1215  H1217   1.116   .     S
C1215  C1218   1.533   .     S
C1218  H1220   1.110   .     S
C1218  H1219   1.112   .     S
C1218  C1221   1.526   .     S
C1221  H1222   1.111   .     S
C1221  H1223   1.110   .     S
C1221  H1224   1.111   .     S
O1225  C1226   1.411   .     S
C1226  H1227   1.114   .     S
C1226  C1229   1.527   .     S
C1226  H1228   1.116   .     S
C1229  H1231   1.112   .     S
C1229  C1232   1.526   .     S
C1229  H1230   1.111   .     S
C1232  H1235   1.111   .     S
C1232  H1234   1.110   .     S
H1233  C1517   1.110   .     S
Zn1236 O1240   1.956   .     S
Zn1236 O1248   1.924   .     S
Zn1236 O1242   1.928   .     S
Zn1236 O1249   1.925   .     S
Zn1237 O1251   1.930   .     S
Zn1237 O1240   1.940   .     S
Zn1237 O1245   1.928   .     S
Zn1237 O1243   1.933   .     S
Zn1238 O1247   1.931   .     S
Zn1238 O1244   1.927   .     S
Zn1238 O1240   1.935   .     S
Zn1238 O1252   1.939   .     S
Zn1239 O1241   1.934   .     S
Zn1239 O1246   1.936   .     S
Zn1239 O1240   1.932   .     S
Zn1239 O1250   1.928   .     S
O1241  C1253   1.268   .     A
O1242  C1254   1.271   .     A
O1243  C1255   1.275   .     A
O1244  C1256   1.271   .     A
O1245  C1257   1.274   .     A
O1246  C1258   1.281   .     A
O1247  C1257   1.273   .     A
O1248  C1258   1.282   .     A
O1249  C1255   1.276   .     A
O1250  C1256   1.271   .     A
O1251  C1253   1.266   .     A
O1252  C1254   1.285   .     A
C1253  C1284   1.439   .     S
C1254  C1282   1.456   .     S
C1255  C1287   1.434   .     S
C1256  C1285   1.450   .     S
C1257  C1260   1.455   .     S
C1258  C1259   1.466   .     S
C1259  C1262   1.397   .     A
C1259  C1263   1.399   .     A
C1260  C1275   1.393   .     A
C1260  C1276   1.403   .     A
C1261  N1306   1.438   .     S
C1261  C1262   1.397   .     A
C1261  C1265   1.418   .     A
C1262  H1280   1.083   .     S
C1263  O1309   1.387   .     S
C1263  C1264   1.417   .     A
C1264  C1265   1.426   .     A
C1264  C1266   1.428   .     A
C1265  C414    1.400   1_556 S
C1266  C1270   1.422   .     A
C1266  C412    1.416   1_556 S
C1267  C1273   1.424   .     A
C1267  C1268   1.408   .     A
C1268  H1281   1.080   .     S
C1268  C1269   1.387   .     A
C1269  H1277   1.081   .     S
C1270  C1271   1.393   .     A
C1270  O1320   1.382   .     S
C1271  H1279   1.081   .     S
C1271  C417    1.399   1_556 S
C1272  C1273   1.424   .     A
C1272  C1274   1.416   .     A
C1273  C1276   1.421   .     A
C1274  N1289   1.438   .     S
C1274  C1275   1.395   .     A
C1275  H1278   1.084   .     S
C1276  N1303   1.440   .     S
C1282  H1378   1.088   .     S
C1282  C1379   1.345   .     S
C1285  H1571   1.088   .     S
C1285  C1572   1.331   .     S
H1288  C1572   1.086   .     S
N1289  O1290   1.301   .     A
O1291  N434    1.301   1_556 S
O1292  C1293   1.417   .     S
O1292  C1379   1.392   .     S
C1293  H1295   1.117   .     S
C1293  H1294   1.111   .     S
C1293  C1391   1.531   .     S
C1296  H1298   1.111   .     S
C1296  C1299   1.526   .     S
H1297  C1391   1.112   .     S
C1299  H1301   1.110   .     S
C1299  H1300   1.110   .     S
H1302  C1394   1.110   .     S
N1303  O1304   1.301   .     A
N1303  O1305   1.302   .     A
N1306  O453    1.301   1_556 S
O1307  N1401   1.302   .     S
O1309  C1310   1.416   .     S
C1310  H1311   1.111   .     S
C1310  H1312   1.116   .     S
C1310  C1313   1.533   .     S
C1313  H1315   1.110   .     S
C1313  H1314   1.112   .     S
C1313  C1316   1.526   .     S
C1316  H1317   1.111   .     S
C1316  H1318   1.110   .     S
C1316  H1319   1.111   .     S
O1320  C1321   1.411   .     S
C1321  H1322   1.114   .     S
C1321  C1324   1.527   .     S
C1321  H1323   1.116   .     S
C1324  H1326   1.112   .     S
C1324  C1327   1.526   .     S
C1324  H1325   1.111   .     S
C1327  H1330   1.111   .     S
C1327  H1329   1.110   .     S
H1328  C1612   1.110   .     S
Zn1331 O1335   1.956   .     S
Zn1331 O1343   1.924   .     S
Zn1331 O1337   1.928   .     S
Zn1331 O1344   1.925   .     S
Zn1332 O1346   1.930   .     S
Zn1332 O1335   1.940   .     S
Zn1332 O1340   1.928   .     S
Zn1332 O1338   1.933   .     S
Zn1333 O1342   1.931   .     S
Zn1333 O1339   1.927   .     S
Zn1333 O1335   1.935   .     S
Zn1333 O1347   1.939   .     S
Zn1334 O1336   1.934   .     S
Zn1334 O1341   1.936   .     S
Zn1334 O1335   1.932   .     S
Zn1334 O1345   1.928   .     S
O1336  C1348   1.268   .     A
O1337  C1349   1.271   .     A
O1338  C1350   1.275   .     A
O1339  C1351   1.271   .     A
O1340  C1352   1.274   .     A
O1341  C1353   1.281   .     A
O1342  C1352   1.273   .     A
O1343  C1353   1.282   .     A
O1344  C1350   1.276   .     A
O1345  C1351   1.271   .     A
O1346  C1348   1.266   .     A
O1347  C1349   1.285   .     A
C1348  C1379   1.439   .     S
C1349  C1377   1.456   .     S
C1350  C1382   1.434   .     S
C1351  C1380   1.450   .     S
C1352  C1355   1.455   .     S
C1353  C1354   1.466   .     S
C1354  C1357   1.397   .     A
C1354  C1358   1.399   .     A
C1355  C1370   1.393   .     A
C1355  C1371   1.403   .     A
C1356  N1401   1.438   .     S
C1356  C1357   1.397   .     A
C1356  C1360   1.418   .     A
C1357  H1375   1.083   .     S
C1358  O1404   1.387   .     S
C1358  C1359   1.417   .     A
C1359  C1360   1.426   .     A
C1359  C1361   1.428   .     A
C1360  C509    1.400   1_556 S
C1361  C1365   1.422   .     A
C1361  C507    1.416   1_556 S
C1362  C1368   1.424   .     A
C1362  C1363   1.408   .     A
C1363  H1376   1.080   .     S
C1363  C1364   1.387   .     A
C1364  H1372   1.081   .     S
C1365  C1366   1.393   .     A
C1365  O1415   1.382   .     S
C1366  H1374   1.081   .     S
C1366  C512    1.399   1_556 S
C1367  C1368   1.424   .     A
C1367  C1369   1.416   .     A
C1368  C1371   1.421   .     A
C1369  N1384   1.438   .     S
C1369  C1370   1.395   .     A
C1370  H1373   1.084   .     S
C1371  N1398   1.440   .     S
C1377  H1188   1.088   1_655 S
C1377  C1189   1.345   1_655 S
C1380  H1666   1.088   .     S
C1380  C1667   1.331   .     S
H1383  C1667   1.086   .     S
N1384  O1385   1.301   .     A
O1386  N529    1.301   1_556 S
O1387  C1388   1.417   .     S
O1387  C1189   1.392   1_655 S
C1388  H1390   1.117   .     S
C1388  H1389   1.111   .     S
C1388  C1201   1.531   1_655 S
C1391  H1393   1.111   .     S
C1391  C1394   1.526   .     S
H1392  C1201   1.112   1_655 S
C1394  H1396   1.110   .     S
C1394  H1395   1.110   .     S
H1397  C1204   1.110   1_655 S
N1398  O1399   1.301   .     A
N1398  O1400   1.302   .     A
N1401  O548    1.301   1_556 S
O1402  N1211   1.302   1_655 S
O1404  C1405   1.416   .     S
C1405  H1406   1.111   .     S
C1405  H1407   1.116   .     S
C1405  C1408   1.533   .     S
C1408  H1410   1.110   .     S
C1408  H1409   1.112   .     S
C1408  C1411   1.526   .     S
C1411  H1412   1.111   .     S
C1411  H1413   1.110   .     S
C1411  H1414   1.111   .     S
O1415  C1416   1.411   .     S
C1416  H1417   1.114   .     S
C1416  C1419   1.527   .     S
C1416  H1418   1.116   .     S
C1419  H1421   1.112   .     S
C1419  C1422   1.526   .     S
C1419  H1420   1.111   .     S
C1422  H1425   1.111   .     S
C1422  H1424   1.110   .     S
H1423  C1707   1.110   .     S
Zn1426 O1430   1.956   .     S
Zn1426 O1438   1.924   .     S
Zn1426 O1432   1.928   .     S
Zn1426 O1439   1.925   .     S
Zn1427 O1441   1.930   .     S
Zn1427 O1430   1.940   .     S
Zn1427 O1435   1.928   .     S
Zn1427 O1433   1.933   .     S
Zn1428 O1437   1.931   .     S
Zn1428 O1434   1.927   .     S
Zn1428 O1430   1.935   .     S
Zn1428 O1442   1.939   .     S
Zn1429 O1431   1.934   .     S
Zn1429 O1436   1.936   .     S
Zn1429 O1430   1.932   .     S
Zn1429 O1440   1.928   .     S
O1431  C1443   1.268   .     A
O1432  C1444   1.271   .     A
O1433  C1445   1.275   .     A
O1434  C1446   1.271   .     A
O1435  C1447   1.274   .     A
O1436  C1448   1.281   .     A
O1437  C1447   1.273   .     A
O1438  C1448   1.282   .     A
O1439  C1445   1.276   .     A
O1440  C1446   1.271   .     A
O1441  C1443   1.266   .     A
O1442  C1444   1.285   .     A
C1443  C1474   1.439   .     S
C1444  C1472   1.456   .     S
C1445  C1477   1.434   .     S
C1446  C1475   1.450   .     S
C1447  C1450   1.455   .     S
C1448  C1449   1.466   .     S
C1449  C1452   1.397   .     A
C1449  C1453   1.399   .     A
C1450  C1465   1.393   .     A
C1450  C1466   1.403   .     A
C1451  N1496   1.438   .     S
C1451  C1452   1.397   .     A
C1451  C1455   1.418   .     A
C1452  H1470   1.083   .     S
C1453  O1499   1.387   .     S
C1453  C1454   1.417   .     A
C1454  C1455   1.426   .     A
C1454  C1456   1.428   .     A
C1455  C604    1.400   1_556 S
C1456  C1460   1.422   .     A
C1456  C602    1.416   1_556 S
C1457  C1463   1.424   .     A
C1457  C1458   1.408   .     A
C1458  H1471   1.080   .     S
C1458  C1459   1.387   .     A
C1459  H1467   1.081   .     S
C1460  C1461   1.393   .     A
C1460  O1510   1.382   .     S
C1461  H1469   1.081   .     S
C1461  C607    1.399   1_556 S
C1462  C1463   1.424   .     A
C1462  C1464   1.416   .     A
C1463  C1466   1.421   .     A
C1464  N1479   1.438   .     S
C1464  C1465   1.395   .     A
C1465  H1468   1.084   .     S
C1466  N1493   1.440   .     S
C1472  H1568   1.088   .     S
C1472  C1569   1.345   .     S
H1473  C1662   1.088   1_455 S
C1474  C1662   1.345   1_455 S
C1474  O1672   1.392   1_455 S
C1475  H906    1.088   1_565 S
C1475  C907    1.331   1_565 S
H1478  C907    1.086   1_565 S
N1479  O1480   1.301   .     A
O1481  N624    1.301   1_556 S
O1482  C1483   1.417   .     S
O1482  C1569   1.392   .     S
C1483  H1485   1.117   .     S
C1483  H1484   1.111   .     S
C1483  C1581   1.531   .     S
C1486  H1488   1.111   .     S
C1486  C1489   1.526   .     S
C1486  C1673   1.531   1_455 S
C1486  H1677   1.112   1_455 S
H1487  C1581   1.112   .     S
C1489  H1491   1.110   .     S
C1489  H1490   1.110   .     S
C1489  H1682   1.110   1_455 S
H1492  C1584   1.110   .     S
N1493  O1494   1.301   .     A
N1493  O1495   1.302   .     A
N1496  O1687   1.302   1_455 S
N1496  O643    1.301   1_556 S
O1497  N1591   1.302   .     S
O1499  C1500   1.416   .     S
C1500  H1501   1.111   .     S
C1500  H1502   1.116   .     S
C1500  C1503   1.533   .     S
C1503  H1505   1.110   .     S
C1503  H1504   1.112   .     S
C1503  C1506   1.526   .     S
C1506  H1507   1.111   .     S
C1506  H1508   1.110   .     S
C1506  H1509   1.111   .     S
O1510  C1511   1.411   .     S
C1511  H1512   1.114   .     S
C1511  C1514   1.527   .     S
C1511  H1513   1.116   .     S
C1514  H1516   1.112   .     S
C1514  C1517   1.526   .     S
C1514  H1515   1.111   .     S
C1517  H1520   1.111   .     S
C1517  H1519   1.110   .     S
H1518  C947    1.110   1_565 S
Zn1521 O1525   1.956   .     S
Zn1521 O1533   1.924   .     S
Zn1521 O1527   1.928   .     S
Zn1521 O1534   1.925   .     S
Zn1522 O1536   1.930   .     S
Zn1522 O1525   1.940   .     S
Zn1522 O1530   1.928   .     S
Zn1522 O1528   1.933   .     S
Zn1523 O1532   1.931   .     S
Zn1523 O1529   1.927   .     S
Zn1523 O1525   1.935   .     S
Zn1523 O1537   1.939   .     S
Zn1524 O1526   1.934   .     S
Zn1524 O1531   1.936   .     S
Zn1524 O1525   1.932   .     S
Zn1524 O1535   1.928   .     S
O1526  C1538   1.268   .     A
O1527  C1539   1.271   .     A
O1528  C1540   1.275   .     A
O1529  C1541   1.271   .     A
O1530  C1542   1.274   .     A
O1531  C1543   1.281   .     A
O1532  C1542   1.273   .     A
O1533  C1543   1.282   .     A
O1534  C1540   1.276   .     A
O1535  C1541   1.271   .     A
O1536  C1538   1.266   .     A
O1537  C1539   1.285   .     A
C1538  C1569   1.439   .     S
C1539  C1567   1.456   .     S
C1540  C1572   1.434   .     S
C1541  C1570   1.450   .     S
C1542  C1545   1.455   .     S
C1543  C1544   1.466   .     S
C1544  C1547   1.397   .     A
C1544  C1548   1.399   .     A
C1545  C1560   1.393   .     A
C1545  C1561   1.403   .     A
C1546  N1591   1.438   .     S
C1546  C1547   1.397   .     A
C1546  C1550   1.418   .     A
C1547  H1565   1.083   .     S
C1548  O1594   1.387   .     S
C1548  C1549   1.417   .     A
C1549  C1550   1.426   .     A
C1549  C1551   1.428   .     A
C1550  C699    1.400   1_556 S
C1551  C1555   1.422   .     A
C1551  C697    1.416   1_556 S
C1552  C1558   1.424   .     A
C1552  C1553   1.408   .     A
C1553  H1566   1.080   .     S
C1553  C1554   1.387   .     A
C1554  H1562   1.081   .     S
C1555  C1556   1.393   .     A
C1555  O1605   1.382   .     S
C1556  H1564   1.081   .     S
C1556  C702    1.399   1_556 S
C1557  C1558   1.424   .     A
C1557  C1559   1.416   .     A
C1558  C1561   1.421   .     A
C1559  N1574   1.438   .     S
C1559  C1560   1.395   .     A
C1560  H1563   1.084   .     S
C1561  N1588   1.440   .     S
C1567  H1663   1.088   .     S
C1567  C1664   1.345   .     S
C1570  H1001   1.088   1_565 S
C1570  C1002   1.331   1_565 S
H1573  C1002   1.086   1_565 S
N1574  O1575   1.301   .     A
O1576  N719    1.301   1_556 S
O1577  C1578   1.417   .     S
O1577  C1664   1.392   .     S
C1578  H1580   1.117   .     S
C1578  H1579   1.111   .     S
C1578  C1676   1.531   .     S
C1581  H1583   1.111   .     S
C1581  C1584   1.526   .     S
H1582  C1676   1.112   .     S
C1584  H1586   1.110   .     S
C1584  H1585   1.110   .     S
H1587  C1679   1.110   .     S
N1588  O1589   1.301   .     A
N1588  O1590   1.302   .     A
N1591  O738    1.301   1_556 S
O1592  N1686   1.302   .     S
O1594  C1595   1.416   .     S
C1595  H1596   1.111   .     S
C1595  H1597   1.116   .     S
C1595  C1598   1.533   .     S
C1598  H1600   1.110   .     S
C1598  H1599   1.112   .     S
C1598  C1601   1.526   .     S
C1601  H1602   1.111   .     S
C1601  H1603   1.110   .     S
C1601  H1604   1.111   .     S
O1605  C1606   1.411   .     S
C1606  H1607   1.114   .     S
C1606  C1609   1.527   .     S
C1606  H1608   1.116   .     S
C1609  H1611   1.112   .     S
C1609  C1612   1.526   .     S
C1609  H1610   1.111   .     S
C1612  H1615   1.111   .     S
C1612  H1614   1.110   .     S
H1613  C1042   1.110   1_565 S
Zn1616 O1620   1.956   .     S
Zn1616 O1628   1.924   .     S
Zn1616 O1622   1.928   .     S
Zn1616 O1629   1.925   .     S
Zn1617 O1631   1.930   .     S
Zn1617 O1620   1.940   .     S
Zn1617 O1625   1.928   .     S
Zn1617 O1623   1.933   .     S
Zn1618 O1627   1.931   .     S
Zn1618 O1624   1.927   .     S
Zn1618 O1620   1.935   .     S
Zn1618 O1632   1.939   .     S
Zn1619 O1621   1.934   .     S
Zn1619 O1626   1.936   .     S
Zn1619 O1620   1.932   .     S
Zn1619 O1630   1.928   .     S
O1621  C1633   1.268   .     A
O1622  C1634   1.271   .     A
O1623  C1635   1.275   .     A
O1624  C1636   1.271   .     A
O1625  C1637   1.274   .     A
O1626  C1638   1.281   .     A
O1627  C1637   1.273   .     A
O1628  C1638   1.282   .     A
O1629  C1635   1.276   .     A
O1630  C1636   1.271   .     A
O1631  C1633   1.266   .     A
O1632  C1634   1.285   .     A
C1633  C1664   1.439   .     S
C1634  C1662   1.456   .     S
C1635  C1667   1.434   .     S
C1636  C1665   1.450   .     S
C1637  C1640   1.455   .     S
C1638  C1639   1.466   .     S
C1639  C1642   1.397   .     A
C1639  C1643   1.399   .     A
C1640  C1655   1.393   .     A
C1640  C1656   1.403   .     A
C1641  N1686   1.438   .     S
C1641  C1642   1.397   .     A
C1641  C1645   1.418   .     A
C1642  H1660   1.083   .     S
C1643  O1689   1.387   .     S
C1643  C1644   1.417   .     A
C1644  C1645   1.426   .     A
C1644  C1646   1.428   .     A
C1645  C794    1.400   1_556 S
C1646  C1650   1.422   .     A
C1646  C792    1.416   1_556 S
C1647  C1653   1.424   .     A
C1647  C1648   1.408   .     A
C1648  H1661   1.080   .     S
C1648  C1649   1.387   .     A
C1649  H1657   1.081   .     S
C1650  C1651   1.393   .     A
C1650  O1700   1.382   .     S
C1651  H1659   1.081   .     S
C1651  C797    1.399   1_556 S
C1652  C1653   1.424   .     A
C1652  C1654   1.416   .     A
C1653  C1656   1.421   .     A
C1654  N1669   1.438   .     S
C1654  C1655   1.395   .     A
C1655  H1658   1.084   .     S
C1656  N1683   1.440   .     S
C1662  H1473   1.088   1_655 S
C1662  C1474   1.345   1_655 S
C1665  H1096   1.088   1_565 S
C1665  C1097   1.331   1_565 S
H1668  C1097   1.086   1_565 S
N1669  O1670   1.301   .     A
O1671  N814    1.301   1_556 S
O1672  C1673   1.417   .     S
O1672  C1474   1.392   1_655 S
C1673  H1675   1.117   .     S
C1673  H1674   1.111   .     S
C1673  C1486   1.531   1_655 S
C1676  H1678   1.111   .     S
C1676  C1679   1.526   .     S
H1677  C1486   1.112   1_655 S
C1679  H1681   1.110   .     S
C1679  H1680   1.110   .     S
H1682  C1489   1.110   1_655 S
N1683  O1684   1.301   .     A
N1683  O1685   1.302   .     A
N1686  O833    1.301   1_556 S
O1687  N1496   1.302   1_655 S
O1689  C1690   1.416   .     S
C1690  H1691   1.111   .     S
C1690  H1692   1.116   .     S
C1690  C1693   1.533   .     S
C1693  H1695   1.110   .     S
C1693  H1694   1.112   .     S
C1693  C1696   1.526   .     S
C1696  H1697   1.111   .     S
C1696  H1698   1.110   .     S
C1696  H1699   1.111   .     S
O1700  C1701   1.411   .     S
C1701  H1702   1.114   .     S
C1701  C1704   1.527   .     S
C1701  H1703   1.116   .     S
C1704  H1706   1.112   .     S
C1704  C1707   1.526   .     S
C1704  H1705   1.111   .     S
C1707  H1710   1.111   .     S
C1707  H1709   1.110   .     S
H1708  C1137   1.110   1_565 S
