data_str_m2_o1_o10_pcu_sym.5
_audit_creation_date              2020-01-03
_audit_creation_method            'Materials Studio'
_symmetry_space_group_name_H-M    'P1'
_symmetry_Int_Tables_number       1
_symmetry_cell_setting            triclinic
loop_
_symmetry_equiv_pos_as_xyz
  x,y,z
_cell_length_a                    26.3583
_cell_length_b                    32.5317
_cell_length_c                    28.9522
_cell_angle_alpha                 90.3558
_cell_angle_beta                  97.5240
_cell_angle_gamma                 93.5174
loop_
_atom_site_label
_atom_site_type_symbol
_atom_site_fract_x
_atom_site_fract_y
_atom_site_fract_z
_atom_site_U_iso_or_equiv
_atom_site_adp_type
_atom_site_occupancy
C1     C     0.17148   0.08775   0.16691   0.00000  Uiso   1.00
C2     C     0.17487   0.02129   0.20901   0.00000  Uiso   1.00
C3     C     0.15852   0.29071   0.16507   0.00000  Uiso   1.00
C4     C     0.17679   0.04283   0.16682   0.00000  Uiso   1.00
C5     C     0.13197   0.14203   0.02027   0.00000  Uiso   1.00
C6     C     0.19693   0.19515   0.31294   0.00000  Uiso   1.00
C7     C     0.13601   0.13846   0.30515   0.00000  Uiso   1.00
C8     C     0.20125   0.19144   0.02900   0.00000  Uiso   1.00
C9     C     0.00130   0.08405   0.14347   0.00000  Uiso   1.00
C10    C     0.02228   0.19030   0.26458   0.00000  Uiso   1.00
C11    C     0.20461   0.03657   0.08614   0.00000  Uiso   1.00
C12    C     0.16269   0.24568   0.16618   0.00000  Uiso   1.00
C13    C     0.12265   0.29573   0.24039   0.00000  Uiso   1.00
C14    C     0.09407   0.27991   0.06790   0.00000  Uiso   1.00
C15    C     0.25014   0.05407   0.25581   0.00000  Uiso   1.00
C16    C     0.08606   0.12210   0.03691   0.00000  Uiso   1.00
C17    C     0.22041   0.23378   0.29533   0.00000  Uiso   1.00
C18    C     0.10693   0.10256   0.27988   0.00000  Uiso   1.00
C19    C     0.24617   0.21275   0.05723   0.00000  Uiso   1.00
C20    C     0.06813   0.16574   0.15515   0.00000  Uiso   1.00
C21    C     0.26515   0.16783   0.17847   0.00000  Uiso   1.00
C22    C     0.01307   0.15745   0.15178   0.00000  Uiso   1.00
C23    C     0.32035   0.17420   0.18373   0.00000  Uiso   1.00
C24    C     0.17684   0.02053   0.12456   0.00000  Uiso   1.00
C25    C     0.15660   0.31296   0.20667   0.00000  Uiso   1.00
C26    C     0.16243   0.31175   0.12310   0.00000  Uiso   1.00
Cu27   Cu    0.16667   0.16667   0.21355   0.00000  Uiso   1.00
Cu28   Cu    0.16667   0.16666   0.11978   0.00000  Uiso   1.00
H29    H     0.33058   0.12557   0.08937   0.00000  Uiso   1.00
H30    H     0.10056   0.29541   0.30429   0.00000  Uiso   1.00
H31    H     0.16419   0.30291   0.05107   0.00000  Uiso   1.00
H32    H     0.07310   0.30791   0.05846   0.00000  Uiso   1.00
H33    H     0.07824   0.26476   0.09768   0.00000  Uiso   1.00
H34    H     0.08779   0.25776   0.03809   0.00000  Uiso   1.00
H35    H     0.18990   0.02507   0.28215   0.00000  Uiso   1.00
H36    H     0.27360   0.02740   0.25145   0.00000  Uiso   1.00
H37    H     0.26302   0.06857   0.29056   0.00000  Uiso   1.00
H38    H     0.25675   0.07739   0.22920   0.00000  Uiso   1.00
H39    H     0.05401   0.07261   0.06612   0.00000  Uiso   1.00
H40    H     0.31819   0.08048   0.17667   0.00000  Uiso   1.00
H41    H     0.26497   0.26233   0.25264   0.00000  Uiso   1.00
H42    H     0.08472   0.04246   0.28216   0.00000  Uiso   1.00
H43    H     0.32315   0.21703   0.07308   0.00000  Uiso   1.00
H44    H     0.04336   0.08078   0.15006   0.00000  Uiso   1.00
H45    H     0.31777   0.05911   0.11917   0.00000  Uiso   1.00
H46    H     0.32865   0.23240   0.21411   0.00000  Uiso   1.00
H47    H     0.06402   0.19500   0.27592   0.00000  Uiso   1.00
H48    H     0.01004   0.15729   0.26807   0.00000  Uiso   1.00
H49    H     0.00293   0.20868   0.28862   0.00000  Uiso   1.00
H50    H     0.20768   0.07361   0.03095   0.00000  Uiso   1.00
N51    N     0.16668   0.16668   0.28403   0.00000  Uiso   1.00
N52    N     0.16665   0.16666   0.04931   0.00000  Uiso   1.00
N53    N     0.32355   0.12366   0.12333   0.00000  Uiso   1.00
N54    N     0.01107   0.20418   0.21701   0.00000  Uiso   1.00
N55    N     0.14843   0.29088   0.07916   0.00000  Uiso   1.00
N56    N     0.19635   0.04046   0.25255   0.00000  Uiso   1.00
O57    O     0.16666   0.10655   0.20625   0.00000  Uiso   1.00
O58    O     0.18510   0.06664   0.05596   0.00000  Uiso   1.00
O59    O     0.08716   0.27105   0.22615   0.00000  Uiso   1.00
O60    O     0.12830   0.30837   0.28696   0.00000  Uiso   1.00
O61    O     0.04439   0.13559   0.02401   0.00000  Uiso   1.00
O62    O     0.08896   0.08584   0.06232   0.00000  Uiso   1.00
O63    O     0.21374   0.26660   0.31370   0.00000  Uiso   1.00
O64    O     0.25214   0.23355   0.26069   0.00000  Uiso   1.00
O65    O     0.07691   0.10680   0.24487   0.00000  Uiso   1.00
O66    O     0.10978   0.06368   0.29987   0.00000  Uiso   1.00
O67    O     0.24147   0.24336   0.08045   0.00000  Uiso   1.00
O68    O     0.16667   0.22678   0.12709   0.00000  Uiso   1.00
O69    O     0.29495   0.19949   0.05369   0.00000  Uiso   1.00
O70    O     0.16666   0.10654   0.12706   0.00000  Uiso   1.00
O71    O     0.16667   0.22679   0.20628   0.00000  Uiso   1.00
O72    O     0.09161   0.16667   0.19712   0.00000  Uiso   1.00
O73    O     0.24172   0.16666   0.13621   0.00000  Uiso   1.00
O74    O     0.09161   0.16666   0.11793   0.00000  Uiso   1.00
O75    O     0.24172   0.16667   0.21540   0.00000  Uiso   1.00
O76    O     0.24335   0.02027   0.07862   0.00000  Uiso   1.00
C77    C     0.50481   0.08775   0.16691   0.00000  Uiso   1.00
C78    C     0.50820   0.02129   0.20901   0.00000  Uiso   1.00
C79    C     0.49186   0.29071   0.16507   0.00000  Uiso   1.00
C80    C     0.51012   0.04283   0.16682   0.00000  Uiso   1.00
C81    C     0.46530   0.14203   0.02027   0.00000  Uiso   1.00
C82    C     0.53027   0.19515   0.31294   0.00000  Uiso   1.00
C83    C     0.46935   0.13846   0.30515   0.00000  Uiso   1.00
C84    C     0.53458   0.19144   0.02900   0.00000  Uiso   1.00
C85    C     0.33463   0.08405   0.14347   0.00000  Uiso   1.00
C86    C     0.35561   0.19030   0.26458   0.00000  Uiso   1.00
C87    C     0.53794   0.03657   0.08614   0.00000  Uiso   1.00
C88    C     0.49603   0.24568   0.16618   0.00000  Uiso   1.00
C89    C     0.45598   0.29573   0.24039   0.00000  Uiso   1.00
C90    C     0.42741   0.27991   0.06790   0.00000  Uiso   1.00
C91    C     0.58347   0.05407   0.25581   0.00000  Uiso   1.00
C92    C     0.41940   0.12210   0.03691   0.00000  Uiso   1.00
C93    C     0.55374   0.23378   0.29533   0.00000  Uiso   1.00
C94    C     0.44027   0.10256   0.27988   0.00000  Uiso   1.00
C95    C     0.57950   0.21275   0.05723   0.00000  Uiso   1.00
C96    C     0.40146   0.16574   0.15515   0.00000  Uiso   1.00
C97    C     0.59848   0.16783   0.17847   0.00000  Uiso   1.00
C98    C     0.34640   0.15745   0.15178   0.00000  Uiso   1.00
C99    C     0.65369   0.17420   0.18373   0.00000  Uiso   1.00
C100   C     0.51018   0.02053   0.12456   0.00000  Uiso   1.00
C101   C     0.48993   0.31296   0.20667   0.00000  Uiso   1.00
C102   C     0.49577   0.31175   0.12310   0.00000  Uiso   1.00
Cu103  Cu    0.50000   0.16667   0.21355   0.00000  Uiso   1.00
Cu104  Cu    0.50000   0.16666   0.11978   0.00000  Uiso   1.00
H105   H     0.66391   0.12557   0.08937   0.00000  Uiso   1.00
H106   H     0.43390   0.29541   0.30429   0.00000  Uiso   1.00
H107   H     0.49753   0.30291   0.05107   0.00000  Uiso   1.00
H108   H     0.40644   0.30791   0.05846   0.00000  Uiso   1.00
H109   H     0.41157   0.26476   0.09768   0.00000  Uiso   1.00
H110   H     0.42113   0.25776   0.03809   0.00000  Uiso   1.00
H111   H     0.52323   0.02507   0.28215   0.00000  Uiso   1.00
H112   H     0.60694   0.02740   0.25145   0.00000  Uiso   1.00
H113   H     0.59635   0.06857   0.29056   0.00000  Uiso   1.00
H114   H     0.59008   0.07739   0.22920   0.00000  Uiso   1.00
H115   H     0.38735   0.07261   0.06612   0.00000  Uiso   1.00
H116   H     0.65152   0.08048   0.17667   0.00000  Uiso   1.00
H117   H     0.59830   0.26233   0.25264   0.00000  Uiso   1.00
H118   H     0.41805   0.04246   0.28216   0.00000  Uiso   1.00
H119   H     0.65648   0.21703   0.07308   0.00000  Uiso   1.00
H120   H     0.37669   0.08078   0.15006   0.00000  Uiso   1.00
H121   H     0.65111   0.05911   0.11917   0.00000  Uiso   1.00
H122   H     0.66198   0.23240   0.21411   0.00000  Uiso   1.00
H123   H     0.39735   0.19500   0.27592   0.00000  Uiso   1.00
H124   H     0.34338   0.15729   0.26807   0.00000  Uiso   1.00
H125   H     0.33626   0.20868   0.28862   0.00000  Uiso   1.00
H126   H     0.54101   0.07361   0.03095   0.00000  Uiso   1.00
N127   N     0.50001   0.16668   0.28403   0.00000  Uiso   1.00
N128   N     0.49999   0.16666   0.04931   0.00000  Uiso   1.00
N129   N     0.65688   0.12366   0.12333   0.00000  Uiso   1.00
N130   N     0.34440   0.20418   0.21701   0.00000  Uiso   1.00
N131   N     0.48177   0.29088   0.07916   0.00000  Uiso   1.00
N132   N     0.52968   0.04046   0.25255   0.00000  Uiso   1.00
O133   O     0.50000   0.10655   0.20625   0.00000  Uiso   1.00
O134   O     0.51843   0.06664   0.05596   0.00000  Uiso   1.00
O135   O     0.42050   0.27105   0.22615   0.00000  Uiso   1.00
O136   O     0.46163   0.30837   0.28696   0.00000  Uiso   1.00
O137   O     0.37773   0.13559   0.02401   0.00000  Uiso   1.00
O138   O     0.42229   0.08584   0.06232   0.00000  Uiso   1.00
O139   O     0.54707   0.26660   0.31370   0.00000  Uiso   1.00
O140   O     0.58548   0.23355   0.26069   0.00000  Uiso   1.00
O141   O     0.41024   0.10680   0.24487   0.00000  Uiso   1.00
O142   O     0.44311   0.06368   0.29987   0.00000  Uiso   1.00
O143   O     0.57480   0.24336   0.08045   0.00000  Uiso   1.00
O144   O     0.50000   0.22678   0.12709   0.00000  Uiso   1.00
O145   O     0.62829   0.19949   0.05369   0.00000  Uiso   1.00
O146   O     0.50000   0.10654   0.12706   0.00000  Uiso   1.00
O147   O     0.50000   0.22679   0.20628   0.00000  Uiso   1.00
O148   O     0.42495   0.16667   0.19712   0.00000  Uiso   1.00
O149   O     0.57505   0.16666   0.13621   0.00000  Uiso   1.00
O150   O     0.42494   0.16666   0.11793   0.00000  Uiso   1.00
O151   O     0.57506   0.16667   0.21540   0.00000  Uiso   1.00
O152   O     0.57669   0.02027   0.07862   0.00000  Uiso   1.00
C153   C     0.83815   0.08775   0.16691   0.00000  Uiso   1.00
C154   C     0.84154   0.02129   0.20901   0.00000  Uiso   1.00
C155   C     0.82519   0.29071   0.16507   0.00000  Uiso   1.00
C156   C     0.84346   0.04283   0.16682   0.00000  Uiso   1.00
C157   C     0.79864   0.14203   0.02027   0.00000  Uiso   1.00
C158   C     0.86360   0.19515   0.31294   0.00000  Uiso   1.00
C159   C     0.80268   0.13846   0.30515   0.00000  Uiso   1.00
C160   C     0.86792   0.19144   0.02900   0.00000  Uiso   1.00
C161   C     0.66796   0.08405   0.14347   0.00000  Uiso   1.00
C162   C     0.68894   0.19030   0.26458   0.00000  Uiso   1.00
C163   C     0.87127   0.03657   0.08614   0.00000  Uiso   1.00
C164   C     0.82936   0.24568   0.16618   0.00000  Uiso   1.00
C165   C     0.78931   0.29573   0.24039   0.00000  Uiso   1.00
C166   C     0.76074   0.27991   0.06790   0.00000  Uiso   1.00
C167   C     0.91681   0.05407   0.25581   0.00000  Uiso   1.00
C168   C     0.75273   0.12210   0.03691   0.00000  Uiso   1.00
C169   C     0.88707   0.23378   0.29533   0.00000  Uiso   1.00
C170   C     0.77360   0.10256   0.27988   0.00000  Uiso   1.00
C171   C     0.91283   0.21275   0.05723   0.00000  Uiso   1.00
C172   C     0.73479   0.16574   0.15515   0.00000  Uiso   1.00
C173   C     0.93182   0.16783   0.17847   0.00000  Uiso   1.00
C174   C     0.67974   0.15745   0.15178   0.00000  Uiso   1.00
C175   C     0.98702   0.17420   0.18373   0.00000  Uiso   1.00
C176   C     0.84351   0.02053   0.12456   0.00000  Uiso   1.00
C177   C     0.82327   0.31296   0.20667   0.00000  Uiso   1.00
C178   C     0.82910   0.31175   0.12310   0.00000  Uiso   1.00
Cu179  Cu    0.83333   0.16667   0.21355   0.00000  Uiso   1.00
Cu180  Cu    0.83333   0.16666   0.11978   0.00000  Uiso   1.00
H181   H     0.99724   0.12557   0.08937   0.00000  Uiso   1.00
H182   H     0.76723   0.29541   0.30429   0.00000  Uiso   1.00
H183   H     0.83086   0.30291   0.05107   0.00000  Uiso   1.00
H184   H     0.73977   0.30791   0.05846   0.00000  Uiso   1.00
H185   H     0.74491   0.26476   0.09768   0.00000  Uiso   1.00
H186   H     0.75446   0.25776   0.03809   0.00000  Uiso   1.00
H187   H     0.85656   0.02507   0.28215   0.00000  Uiso   1.00
H188   H     0.94027   0.02740   0.25145   0.00000  Uiso   1.00
H189   H     0.92969   0.06857   0.29056   0.00000  Uiso   1.00
H190   H     0.92341   0.07739   0.22920   0.00000  Uiso   1.00
H191   H     0.72068   0.07261   0.06612   0.00000  Uiso   1.00
H192   H     0.98486   0.08048   0.17667   0.00000  Uiso   1.00
H193   H     0.93163   0.26233   0.25264   0.00000  Uiso   1.00
H194   H     0.75139   0.04246   0.28216   0.00000  Uiso   1.00
H195   H     0.98982   0.21703   0.07308   0.00000  Uiso   1.00
H196   H     0.71003   0.08078   0.15006   0.00000  Uiso   1.00
H197   H     0.98444   0.05911   0.11917   0.00000  Uiso   1.00
H198   H     0.99531   0.23240   0.21411   0.00000  Uiso   1.00
H199   H     0.73069   0.19500   0.27592   0.00000  Uiso   1.00
H200   H     0.67671   0.15729   0.26807   0.00000  Uiso   1.00
H201   H     0.66960   0.20868   0.28862   0.00000  Uiso   1.00
H202   H     0.87435   0.07361   0.03095   0.00000  Uiso   1.00
N203   N     0.83335   0.16668   0.28403   0.00000  Uiso   1.00
N204   N     0.83332   0.16666   0.04931   0.00000  Uiso   1.00
N205   N     0.99022   0.12366   0.12333   0.00000  Uiso   1.00
N206   N     0.67774   0.20418   0.21701   0.00000  Uiso   1.00
N207   N     0.81510   0.29088   0.07916   0.00000  Uiso   1.00
N208   N     0.86301   0.04046   0.25255   0.00000  Uiso   1.00
O209   O     0.83333   0.10655   0.20625   0.00000  Uiso   1.00
O210   O     0.85176   0.06664   0.05596   0.00000  Uiso   1.00
O211   O     0.75383   0.27105   0.22615   0.00000  Uiso   1.00
O212   O     0.79497   0.30837   0.28696   0.00000  Uiso   1.00
O213   O     0.71106   0.13559   0.02401   0.00000  Uiso   1.00
O214   O     0.75563   0.08584   0.06232   0.00000  Uiso   1.00
O215   O     0.88040   0.26660   0.31370   0.00000  Uiso   1.00
O216   O     0.91881   0.23355   0.26069   0.00000  Uiso   1.00
O217   O     0.74357   0.10680   0.24487   0.00000  Uiso   1.00
O218   O     0.77645   0.06368   0.29987   0.00000  Uiso   1.00
O219   O     0.90813   0.24336   0.08045   0.00000  Uiso   1.00
O220   O     0.83334   0.22678   0.12709   0.00000  Uiso   1.00
O221   O     0.96162   0.19949   0.05369   0.00000  Uiso   1.00
O222   O     0.83333   0.10654   0.12706   0.00000  Uiso   1.00
O223   O     0.83334   0.22679   0.20628   0.00000  Uiso   1.00
O224   O     0.75828   0.16667   0.19712   0.00000  Uiso   1.00
O225   O     0.90839   0.16666   0.13621   0.00000  Uiso   1.00
O226   O     0.75828   0.16666   0.11793   0.00000  Uiso   1.00
O227   O     0.90839   0.16667   0.21540   0.00000  Uiso   1.00
O228   O     0.91002   0.02027   0.07862   0.00000  Uiso   1.00
C229   C     0.17148   0.42108   0.16691   0.00000  Uiso   1.00
C230   C     0.17487   0.35462   0.20901   0.00000  Uiso   1.00
C231   C     0.15852   0.62405   0.16507   0.00000  Uiso   1.00
C232   C     0.17679   0.37616   0.16682   0.00000  Uiso   1.00
C233   C     0.13197   0.47537   0.02027   0.00000  Uiso   1.00
C234   C     0.19693   0.52849   0.31294   0.00000  Uiso   1.00
C235   C     0.13601   0.47180   0.30515   0.00000  Uiso   1.00
C236   C     0.20125   0.52477   0.02900   0.00000  Uiso   1.00
C237   C     0.00130   0.41738   0.14347   0.00000  Uiso   1.00
C238   C     0.02228   0.52364   0.26458   0.00000  Uiso   1.00
C239   C     0.20461   0.36990   0.08614   0.00000  Uiso   1.00
C240   C     0.16269   0.57901   0.16618   0.00000  Uiso   1.00
C241   C     0.12265   0.62907   0.24039   0.00000  Uiso   1.00
C242   C     0.09407   0.61324   0.06790   0.00000  Uiso   1.00
C243   C     0.25014   0.38740   0.25581   0.00000  Uiso   1.00
C244   C     0.08606   0.45543   0.03691   0.00000  Uiso   1.00
C245   C     0.22041   0.56711   0.29533   0.00000  Uiso   1.00
C246   C     0.10693   0.43589   0.27988   0.00000  Uiso   1.00
C247   C     0.24617   0.54608   0.05723   0.00000  Uiso   1.00
C248   C     0.06813   0.49907   0.15515   0.00000  Uiso   1.00
C249   C     0.26515   0.50116   0.17847   0.00000  Uiso   1.00
C250   C     0.01307   0.49078   0.15178   0.00000  Uiso   1.00
C251   C     0.32035   0.50753   0.18373   0.00000  Uiso   1.00
C252   C     0.17684   0.35386   0.12456   0.00000  Uiso   1.00
C253   C     0.15660   0.64629   0.20667   0.00000  Uiso   1.00
C254   C     0.16243   0.64508   0.12310   0.00000  Uiso   1.00
Cu255  Cu    0.16667   0.50001   0.21355   0.00000  Uiso   1.00
Cu256  Cu    0.16667   0.49999   0.11978   0.00000  Uiso   1.00
H257   H     0.33058   0.45891   0.08937   0.00000  Uiso   1.00
H258   H     0.10056   0.62874   0.30429   0.00000  Uiso   1.00
H259   H     0.16419   0.63625   0.05107   0.00000  Uiso   1.00
H260   H     0.07310   0.64124   0.05846   0.00000  Uiso   1.00
H261   H     0.07824   0.59809   0.09768   0.00000  Uiso   1.00
H262   H     0.08779   0.59109   0.03809   0.00000  Uiso   1.00
H263   H     0.18990   0.35840   0.28215   0.00000  Uiso   1.00
H264   H     0.27360   0.36073   0.25145   0.00000  Uiso   1.00
H265   H     0.26302   0.40190   0.29056   0.00000  Uiso   1.00
H266   H     0.25675   0.41073   0.22920   0.00000  Uiso   1.00
H267   H     0.05401   0.40594   0.06612   0.00000  Uiso   1.00
H268   H     0.31819   0.41382   0.17667   0.00000  Uiso   1.00
H269   H     0.26497   0.59566   0.25264   0.00000  Uiso   1.00
H270   H     0.08472   0.37579   0.28216   0.00000  Uiso   1.00
H271   H     0.32315   0.55036   0.07308   0.00000  Uiso   1.00
H272   H     0.04336   0.41412   0.15006   0.00000  Uiso   1.00
H273   H     0.31777   0.39244   0.11917   0.00000  Uiso   1.00
H274   H     0.32865   0.56573   0.21411   0.00000  Uiso   1.00
H275   H     0.06402   0.52833   0.27592   0.00000  Uiso   1.00
H276   H     0.01004   0.49062   0.26807   0.00000  Uiso   1.00
H277   H     0.00293   0.54201   0.28862   0.00000  Uiso   1.00
H278   H     0.20768   0.40695   0.03095   0.00000  Uiso   1.00
N279   N     0.16668   0.50001   0.28403   0.00000  Uiso   1.00
N280   N     0.16665   0.49999   0.04931   0.00000  Uiso   1.00
N281   N     0.32355   0.45699   0.12333   0.00000  Uiso   1.00
N282   N     0.01107   0.53752   0.21701   0.00000  Uiso   1.00
N283   N     0.14843   0.62421   0.07916   0.00000  Uiso   1.00
N284   N     0.19635   0.37380   0.25255   0.00000  Uiso   1.00
O285   O     0.16666   0.43989   0.20625   0.00000  Uiso   1.00
O286   O     0.18510   0.39998   0.05596   0.00000  Uiso   1.00
O287   O     0.08716   0.60438   0.22615   0.00000  Uiso   1.00
O288   O     0.12830   0.64170   0.28696   0.00000  Uiso   1.00
O289   O     0.04439   0.46893   0.02401   0.00000  Uiso   1.00
O290   O     0.08896   0.41917   0.06232   0.00000  Uiso   1.00
O291   O     0.21374   0.59994   0.31370   0.00000  Uiso   1.00
O292   O     0.25214   0.56689   0.26069   0.00000  Uiso   1.00
O293   O     0.07691   0.44013   0.24487   0.00000  Uiso   1.00
O294   O     0.10978   0.39702   0.29987   0.00000  Uiso   1.00
O295   O     0.24147   0.57670   0.08045   0.00000  Uiso   1.00
O296   O     0.16667   0.56011   0.12709   0.00000  Uiso   1.00
O297   O     0.29495   0.53282   0.05369   0.00000  Uiso   1.00
O298   O     0.16666   0.43988   0.12706   0.00000  Uiso   1.00
O299   O     0.16667   0.56012   0.20628   0.00000  Uiso   1.00
O300   O     0.09161   0.50000   0.19712   0.00000  Uiso   1.00
O301   O     0.24172   0.50000   0.13621   0.00000  Uiso   1.00
O302   O     0.09161   0.49999   0.11793   0.00000  Uiso   1.00
O303   O     0.24172   0.50001   0.21540   0.00000  Uiso   1.00
O304   O     0.24335   0.35360   0.07862   0.00000  Uiso   1.00
C305   C     0.50481   0.42108   0.16691   0.00000  Uiso   1.00
C306   C     0.50820   0.35462   0.20901   0.00000  Uiso   1.00
C307   C     0.49186   0.62405   0.16507   0.00000  Uiso   1.00
C308   C     0.51012   0.37616   0.16682   0.00000  Uiso   1.00
C309   C     0.46530   0.47537   0.02027   0.00000  Uiso   1.00
C310   C     0.53027   0.52849   0.31294   0.00000  Uiso   1.00
C311   C     0.46935   0.47180   0.30515   0.00000  Uiso   1.00
C312   C     0.53458   0.52477   0.02900   0.00000  Uiso   1.00
C313   C     0.33463   0.41738   0.14347   0.00000  Uiso   1.00
C314   C     0.35561   0.52364   0.26458   0.00000  Uiso   1.00
C315   C     0.53794   0.36990   0.08614   0.00000  Uiso   1.00
C316   C     0.49603   0.57901   0.16618   0.00000  Uiso   1.00
C317   C     0.45598   0.62907   0.24039   0.00000  Uiso   1.00
C318   C     0.42741   0.61324   0.06790   0.00000  Uiso   1.00
C319   C     0.58347   0.38740   0.25581   0.00000  Uiso   1.00
C320   C     0.41940   0.45543   0.03691   0.00000  Uiso   1.00
C321   C     0.55374   0.56711   0.29533   0.00000  Uiso   1.00
C322   C     0.44027   0.43589   0.27988   0.00000  Uiso   1.00
C323   C     0.57950   0.54608   0.05723   0.00000  Uiso   1.00
C324   C     0.40146   0.49907   0.15515   0.00000  Uiso   1.00
C325   C     0.59848   0.50116   0.17847   0.00000  Uiso   1.00
C326   C     0.34640   0.49078   0.15178   0.00000  Uiso   1.00
C327   C     0.65369   0.50753   0.18373   0.00000  Uiso   1.00
C328   C     0.51018   0.35386   0.12456   0.00000  Uiso   1.00
C329   C     0.48993   0.64629   0.20667   0.00000  Uiso   1.00
C330   C     0.49577   0.64508   0.12310   0.00000  Uiso   1.00
Cu331  Cu    0.50000   0.50001   0.21355   0.00000  Uiso   1.00
Cu332  Cu    0.50000   0.49999   0.11978   0.00000  Uiso   1.00
H333   H     0.66391   0.45891   0.08937   0.00000  Uiso   1.00
H334   H     0.43390   0.62874   0.30429   0.00000  Uiso   1.00
H335   H     0.49753   0.63625   0.05107   0.00000  Uiso   1.00
H336   H     0.40644   0.64124   0.05846   0.00000  Uiso   1.00
H337   H     0.41157   0.59809   0.09768   0.00000  Uiso   1.00
H338   H     0.42113   0.59109   0.03809   0.00000  Uiso   1.00
H339   H     0.52323   0.35840   0.28215   0.00000  Uiso   1.00
H340   H     0.60694   0.36073   0.25145   0.00000  Uiso   1.00
H341   H     0.59635   0.40190   0.29056   0.00000  Uiso   1.00
H342   H     0.59008   0.41073   0.22920   0.00000  Uiso   1.00
H343   H     0.38735   0.40594   0.06612   0.00000  Uiso   1.00
H344   H     0.65152   0.41382   0.17667   0.00000  Uiso   1.00
H345   H     0.59830   0.59566   0.25264   0.00000  Uiso   1.00
H346   H     0.41805   0.37579   0.28216   0.00000  Uiso   1.00
H347   H     0.65648   0.55036   0.07308   0.00000  Uiso   1.00
H348   H     0.37669   0.41412   0.15006   0.00000  Uiso   1.00
H349   H     0.65111   0.39244   0.11917   0.00000  Uiso   1.00
H350   H     0.66198   0.56573   0.21411   0.00000  Uiso   1.00
H351   H     0.39735   0.52833   0.27592   0.00000  Uiso   1.00
H352   H     0.34338   0.49062   0.26807   0.00000  Uiso   1.00
H353   H     0.33626   0.54201   0.28862   0.00000  Uiso   1.00
H354   H     0.54101   0.40695   0.03095   0.00000  Uiso   1.00
N355   N     0.50001   0.50001   0.28403   0.00000  Uiso   1.00
N356   N     0.49999   0.49999   0.04931   0.00000  Uiso   1.00
N357   N     0.65688   0.45699   0.12333   0.00000  Uiso   1.00
N358   N     0.34440   0.53752   0.21701   0.00000  Uiso   1.00
N359   N     0.48177   0.62421   0.07916   0.00000  Uiso   1.00
N360   N     0.52968   0.37380   0.25255   0.00000  Uiso   1.00
O361   O     0.50000   0.43989   0.20625   0.00000  Uiso   1.00
O362   O     0.51843   0.39998   0.05596   0.00000  Uiso   1.00
O363   O     0.42050   0.60438   0.22615   0.00000  Uiso   1.00
O364   O     0.46163   0.64170   0.28696   0.00000  Uiso   1.00
O365   O     0.37773   0.46893   0.02401   0.00000  Uiso   1.00
O366   O     0.42229   0.41917   0.06232   0.00000  Uiso   1.00
O367   O     0.54707   0.59994   0.31370   0.00000  Uiso   1.00
O368   O     0.58548   0.56689   0.26069   0.00000  Uiso   1.00
O369   O     0.41024   0.44013   0.24487   0.00000  Uiso   1.00
O370   O     0.44311   0.39702   0.29987   0.00000  Uiso   1.00
O371   O     0.57480   0.57670   0.08045   0.00000  Uiso   1.00
O372   O     0.50000   0.56011   0.12709   0.00000  Uiso   1.00
O373   O     0.62829   0.53282   0.05369   0.00000  Uiso   1.00
O374   O     0.50000   0.43988   0.12706   0.00000  Uiso   1.00
O375   O     0.50000   0.56012   0.20628   0.00000  Uiso   1.00
O376   O     0.42495   0.50000   0.19712   0.00000  Uiso   1.00
O377   O     0.57505   0.50000   0.13621   0.00000  Uiso   1.00
O378   O     0.42494   0.49999   0.11793   0.00000  Uiso   1.00
O379   O     0.57506   0.50001   0.21540   0.00000  Uiso   1.00
O380   O     0.57669   0.35360   0.07862   0.00000  Uiso   1.00
C381   C     0.83815   0.42108   0.16691   0.00000  Uiso   1.00
C382   C     0.84154   0.35462   0.20901   0.00000  Uiso   1.00
C383   C     0.82519   0.62405   0.16507   0.00000  Uiso   1.00
C384   C     0.84346   0.37616   0.16682   0.00000  Uiso   1.00
C385   C     0.79864   0.47537   0.02027   0.00000  Uiso   1.00
C386   C     0.86360   0.52849   0.31294   0.00000  Uiso   1.00
C387   C     0.80268   0.47180   0.30515   0.00000  Uiso   1.00
C388   C     0.86792   0.52477   0.02900   0.00000  Uiso   1.00
C389   C     0.66796   0.41738   0.14347   0.00000  Uiso   1.00
C390   C     0.68894   0.52364   0.26458   0.00000  Uiso   1.00
C391   C     0.87127   0.36990   0.08614   0.00000  Uiso   1.00
C392   C     0.82936   0.57901   0.16618   0.00000  Uiso   1.00
C393   C     0.78931   0.62907   0.24039   0.00000  Uiso   1.00
C394   C     0.76074   0.61324   0.06790   0.00000  Uiso   1.00
C395   C     0.91681   0.38740   0.25581   0.00000  Uiso   1.00
C396   C     0.75273   0.45543   0.03691   0.00000  Uiso   1.00
C397   C     0.88707   0.56711   0.29533   0.00000  Uiso   1.00
C398   C     0.77360   0.43589   0.27988   0.00000  Uiso   1.00
C399   C     0.91283   0.54608   0.05723   0.00000  Uiso   1.00
C400   C     0.73479   0.49907   0.15515   0.00000  Uiso   1.00
C401   C     0.93182   0.50116   0.17847   0.00000  Uiso   1.00
C402   C     0.67974   0.49078   0.15178   0.00000  Uiso   1.00
C403   C     0.98702   0.50753   0.18373   0.00000  Uiso   1.00
C404   C     0.84351   0.35386   0.12456   0.00000  Uiso   1.00
C405   C     0.82327   0.64629   0.20667   0.00000  Uiso   1.00
C406   C     0.82910   0.64508   0.12310   0.00000  Uiso   1.00
Cu407  Cu    0.83333   0.50001   0.21355   0.00000  Uiso   1.00
Cu408  Cu    0.83333   0.49999   0.11978   0.00000  Uiso   1.00
H409   H     0.99724   0.45891   0.08937   0.00000  Uiso   1.00
H410   H     0.76723   0.62874   0.30429   0.00000  Uiso   1.00
H411   H     0.83086   0.63625   0.05107   0.00000  Uiso   1.00
H412   H     0.73977   0.64124   0.05846   0.00000  Uiso   1.00
H413   H     0.74491   0.59809   0.09768   0.00000  Uiso   1.00
H414   H     0.75446   0.59109   0.03809   0.00000  Uiso   1.00
H415   H     0.85656   0.35840   0.28215   0.00000  Uiso   1.00
H416   H     0.94027   0.36073   0.25145   0.00000  Uiso   1.00
H417   H     0.92969   0.40190   0.29056   0.00000  Uiso   1.00
H418   H     0.92341   0.41073   0.22920   0.00000  Uiso   1.00
H419   H     0.72068   0.40594   0.06612   0.00000  Uiso   1.00
H420   H     0.98486   0.41382   0.17667   0.00000  Uiso   1.00
H421   H     0.93163   0.59566   0.25264   0.00000  Uiso   1.00
H422   H     0.75139   0.37579   0.28216   0.00000  Uiso   1.00
H423   H     0.98982   0.55036   0.07308   0.00000  Uiso   1.00
H424   H     0.71003   0.41412   0.15006   0.00000  Uiso   1.00
H425   H     0.98444   0.39244   0.11917   0.00000  Uiso   1.00
H426   H     0.99531   0.56573   0.21411   0.00000  Uiso   1.00
H427   H     0.73069   0.52833   0.27592   0.00000  Uiso   1.00
H428   H     0.67671   0.49062   0.26807   0.00000  Uiso   1.00
H429   H     0.66960   0.54201   0.28862   0.00000  Uiso   1.00
H430   H     0.87435   0.40695   0.03095   0.00000  Uiso   1.00
N431   N     0.83335   0.50001   0.28403   0.00000  Uiso   1.00
N432   N     0.83332   0.49999   0.04931   0.00000  Uiso   1.00
N433   N     0.99022   0.45699   0.12333   0.00000  Uiso   1.00
N434   N     0.67774   0.53752   0.21701   0.00000  Uiso   1.00
N435   N     0.81510   0.62421   0.07916   0.00000  Uiso   1.00
N436   N     0.86301   0.37380   0.25255   0.00000  Uiso   1.00
O437   O     0.83333   0.43989   0.20625   0.00000  Uiso   1.00
O438   O     0.85176   0.39998   0.05596   0.00000  Uiso   1.00
O439   O     0.75383   0.60438   0.22615   0.00000  Uiso   1.00
O440   O     0.79497   0.64170   0.28696   0.00000  Uiso   1.00
O441   O     0.71106   0.46893   0.02401   0.00000  Uiso   1.00
O442   O     0.75563   0.41917   0.06232   0.00000  Uiso   1.00
O443   O     0.88040   0.59994   0.31370   0.00000  Uiso   1.00
O444   O     0.91881   0.56689   0.26069   0.00000  Uiso   1.00
O445   O     0.74357   0.44013   0.24487   0.00000  Uiso   1.00
O446   O     0.77645   0.39702   0.29987   0.00000  Uiso   1.00
O447   O     0.90813   0.57670   0.08045   0.00000  Uiso   1.00
O448   O     0.83334   0.56011   0.12709   0.00000  Uiso   1.00
O449   O     0.96162   0.53282   0.05369   0.00000  Uiso   1.00
O450   O     0.83333   0.43988   0.12706   0.00000  Uiso   1.00
O451   O     0.83334   0.56012   0.20628   0.00000  Uiso   1.00
O452   O     0.75828   0.50000   0.19712   0.00000  Uiso   1.00
O453   O     0.90839   0.50000   0.13621   0.00000  Uiso   1.00
O454   O     0.75828   0.49999   0.11793   0.00000  Uiso   1.00
O455   O     0.90839   0.50001   0.21540   0.00000  Uiso   1.00
O456   O     0.91002   0.35360   0.07862   0.00000  Uiso   1.00
C457   C     0.17148   0.75442   0.16691   0.00000  Uiso   1.00
C458   C     0.17487   0.68795   0.20901   0.00000  Uiso   1.00
C459   C     0.15852   0.95738   0.16507   0.00000  Uiso   1.00
C460   C     0.17679   0.70950   0.16682   0.00000  Uiso   1.00
C461   C     0.13197   0.80870   0.02027   0.00000  Uiso   1.00
C462   C     0.19693   0.86182   0.31294   0.00000  Uiso   1.00
C463   C     0.13601   0.80513   0.30515   0.00000  Uiso   1.00
C464   C     0.20125   0.85810   0.02900   0.00000  Uiso   1.00
C465   C     0.00130   0.75072   0.14347   0.00000  Uiso   1.00
C466   C     0.02228   0.85697   0.26458   0.00000  Uiso   1.00
C467   C     0.20461   0.70324   0.08614   0.00000  Uiso   1.00
C468   C     0.16269   0.91235   0.16618   0.00000  Uiso   1.00
C469   C     0.12265   0.96240   0.24039   0.00000  Uiso   1.00
C470   C     0.09407   0.94657   0.06790   0.00000  Uiso   1.00
C471   C     0.25014   0.72074   0.25581   0.00000  Uiso   1.00
C472   C     0.08606   0.78877   0.03691   0.00000  Uiso   1.00
C473   C     0.22041   0.90045   0.29533   0.00000  Uiso   1.00
C474   C     0.10693   0.76922   0.27988   0.00000  Uiso   1.00
C475   C     0.24617   0.87941   0.05723   0.00000  Uiso   1.00
C476   C     0.06813   0.83240   0.15515   0.00000  Uiso   1.00
C477   C     0.26515   0.83450   0.17847   0.00000  Uiso   1.00
C478   C     0.01307   0.82412   0.15178   0.00000  Uiso   1.00
C479   C     0.32035   0.84087   0.18373   0.00000  Uiso   1.00
C480   C     0.17684   0.68719   0.12456   0.00000  Uiso   1.00
C481   C     0.15660   0.97963   0.20667   0.00000  Uiso   1.00
C482   C     0.16243   0.97842   0.12310   0.00000  Uiso   1.00
Cu483  Cu    0.16667   0.83334   0.21355   0.00000  Uiso   1.00
Cu484  Cu    0.16667   0.83333   0.11978   0.00000  Uiso   1.00
H485   H     0.33058   0.79224   0.08937   0.00000  Uiso   1.00
H486   H     0.10056   0.96208   0.30429   0.00000  Uiso   1.00
H487   H     0.16419   0.96958   0.05107   0.00000  Uiso   1.00
H488   H     0.07310   0.97457   0.05846   0.00000  Uiso   1.00
H489   H     0.07824   0.93142   0.09768   0.00000  Uiso   1.00
H490   H     0.08779   0.92442   0.03809   0.00000  Uiso   1.00
H491   H     0.18990   0.69173   0.28215   0.00000  Uiso   1.00
H492   H     0.27360   0.69407   0.25145   0.00000  Uiso   1.00
H493   H     0.26302   0.73524   0.29056   0.00000  Uiso   1.00
H494   H     0.25675   0.74406   0.22920   0.00000  Uiso   1.00
H495   H     0.05401   0.73927   0.06612   0.00000  Uiso   1.00
H496   H     0.31819   0.74715   0.17667   0.00000  Uiso   1.00
H497   H     0.26497   0.92899   0.25264   0.00000  Uiso   1.00
H498   H     0.08472   0.70913   0.28216   0.00000  Uiso   1.00
H499   H     0.32315   0.88369   0.07308   0.00000  Uiso   1.00
H500   H     0.04336   0.74745   0.15006   0.00000  Uiso   1.00
H501   H     0.31777   0.72577   0.11917   0.00000  Uiso   1.00
H502   H     0.32865   0.89907   0.21411   0.00000  Uiso   1.00
H503   H     0.06402   0.86167   0.27592   0.00000  Uiso   1.00
H504   H     0.01004   0.82395   0.26807   0.00000  Uiso   1.00
H505   H     0.00293   0.87534   0.28862   0.00000  Uiso   1.00
H506   H     0.20768   0.74028   0.03095   0.00000  Uiso   1.00
N507   N     0.16668   0.83334   0.28403   0.00000  Uiso   1.00
N508   N     0.16665   0.83332   0.04931   0.00000  Uiso   1.00
N509   N     0.32355   0.79032   0.12333   0.00000  Uiso   1.00
N510   N     0.01107   0.87085   0.21701   0.00000  Uiso   1.00
N511   N     0.14843   0.95755   0.07916   0.00000  Uiso   1.00
N512   N     0.19635   0.70713   0.25255   0.00000  Uiso   1.00
O513   O     0.16666   0.77322   0.20625   0.00000  Uiso   1.00
O514   O     0.18510   0.73331   0.05596   0.00000  Uiso   1.00
O515   O     0.08716   0.93772   0.22615   0.00000  Uiso   1.00
O516   O     0.12830   0.97503   0.28696   0.00000  Uiso   1.00
O517   O     0.04439   0.80226   0.02401   0.00000  Uiso   1.00
O518   O     0.08896   0.75251   0.06232   0.00000  Uiso   1.00
O519   O     0.21374   0.93327   0.31370   0.00000  Uiso   1.00
O520   O     0.25214   0.90022   0.26069   0.00000  Uiso   1.00
O521   O     0.07691   0.77346   0.24487   0.00000  Uiso   1.00
O522   O     0.10978   0.73035   0.29987   0.00000  Uiso   1.00
O523   O     0.24147   0.91003   0.08045   0.00000  Uiso   1.00
O524   O     0.16667   0.89345   0.12709   0.00000  Uiso   1.00
O525   O     0.29495   0.86615   0.05369   0.00000  Uiso   1.00
O526   O     0.16666   0.77321   0.12706   0.00000  Uiso   1.00
O527   O     0.16667   0.89346   0.20628   0.00000  Uiso   1.00
O528   O     0.09161   0.83334   0.19712   0.00000  Uiso   1.00
O529   O     0.24172   0.83333   0.13621   0.00000  Uiso   1.00
O530   O     0.09161   0.83333   0.11793   0.00000  Uiso   1.00
O531   O     0.24172   0.83334   0.21540   0.00000  Uiso   1.00
O532   O     0.24335   0.68693   0.07862   0.00000  Uiso   1.00
C533   C     0.50481   0.75442   0.16691   0.00000  Uiso   1.00
C534   C     0.50820   0.68795   0.20901   0.00000  Uiso   1.00
C535   C     0.49186   0.95738   0.16507   0.00000  Uiso   1.00
C536   C     0.51012   0.70950   0.16682   0.00000  Uiso   1.00
C537   C     0.46530   0.80870   0.02027   0.00000  Uiso   1.00
C538   C     0.53027   0.86182   0.31294   0.00000  Uiso   1.00
C539   C     0.46935   0.80513   0.30515   0.00000  Uiso   1.00
C540   C     0.53458   0.85810   0.02900   0.00000  Uiso   1.00
C541   C     0.33463   0.75072   0.14347   0.00000  Uiso   1.00
C542   C     0.35561   0.85697   0.26458   0.00000  Uiso   1.00
C543   C     0.53794   0.70324   0.08614   0.00000  Uiso   1.00
C544   C     0.49603   0.91235   0.16618   0.00000  Uiso   1.00
C545   C     0.45598   0.96240   0.24039   0.00000  Uiso   1.00
C546   C     0.42741   0.94657   0.06790   0.00000  Uiso   1.00
C547   C     0.58347   0.72074   0.25581   0.00000  Uiso   1.00
C548   C     0.41940   0.78877   0.03691   0.00000  Uiso   1.00
C549   C     0.55374   0.90045   0.29533   0.00000  Uiso   1.00
C550   C     0.44027   0.76922   0.27988   0.00000  Uiso   1.00
C551   C     0.57950   0.87941   0.05723   0.00000  Uiso   1.00
C552   C     0.40146   0.83240   0.15515   0.00000  Uiso   1.00
C553   C     0.59848   0.83450   0.17847   0.00000  Uiso   1.00
C554   C     0.34640   0.82412   0.15178   0.00000  Uiso   1.00
C555   C     0.65369   0.84087   0.18373   0.00000  Uiso   1.00
C556   C     0.51018   0.68719   0.12456   0.00000  Uiso   1.00
C557   C     0.48993   0.97963   0.20667   0.00000  Uiso   1.00
C558   C     0.49577   0.97842   0.12310   0.00000  Uiso   1.00
Cu559  Cu    0.50000   0.83334   0.21355   0.00000  Uiso   1.00
Cu560  Cu    0.50000   0.83333   0.11978   0.00000  Uiso   1.00
H561   H     0.66391   0.79224   0.08937   0.00000  Uiso   1.00
H562   H     0.43390   0.96208   0.30429   0.00000  Uiso   1.00
H563   H     0.49753   0.96958   0.05107   0.00000  Uiso   1.00
H564   H     0.40644   0.97457   0.05846   0.00000  Uiso   1.00
H565   H     0.41157   0.93142   0.09768   0.00000  Uiso   1.00
H566   H     0.42113   0.92442   0.03809   0.00000  Uiso   1.00
H567   H     0.52323   0.69173   0.28215   0.00000  Uiso   1.00
H568   H     0.60694   0.69407   0.25145   0.00000  Uiso   1.00
H569   H     0.59635   0.73524   0.29056   0.00000  Uiso   1.00
H570   H     0.59008   0.74406   0.22920   0.00000  Uiso   1.00
H571   H     0.38735   0.73927   0.06612   0.00000  Uiso   1.00
H572   H     0.65152   0.74715   0.17667   0.00000  Uiso   1.00
H573   H     0.59830   0.92899   0.25264   0.00000  Uiso   1.00
H574   H     0.41805   0.70913   0.28216   0.00000  Uiso   1.00
H575   H     0.65648   0.88369   0.07308   0.00000  Uiso   1.00
H576   H     0.37669   0.74745   0.15006   0.00000  Uiso   1.00
H577   H     0.65111   0.72577   0.11917   0.00000  Uiso   1.00
H578   H     0.66198   0.89907   0.21411   0.00000  Uiso   1.00
H579   H     0.39735   0.86167   0.27592   0.00000  Uiso   1.00
H580   H     0.34338   0.82395   0.26807   0.00000  Uiso   1.00
H581   H     0.33626   0.87534   0.28862   0.00000  Uiso   1.00
H582   H     0.54101   0.74028   0.03095   0.00000  Uiso   1.00
N583   N     0.50001   0.83334   0.28403   0.00000  Uiso   1.00
N584   N     0.49999   0.83332   0.04931   0.00000  Uiso   1.00
N585   N     0.65688   0.79032   0.12333   0.00000  Uiso   1.00
N586   N     0.34440   0.87085   0.21701   0.00000  Uiso   1.00
N587   N     0.48177   0.95755   0.07916   0.00000  Uiso   1.00
N588   N     0.52968   0.70713   0.25255   0.00000  Uiso   1.00
O589   O     0.50000   0.77322   0.20625   0.00000  Uiso   1.00
O590   O     0.51843   0.73331   0.05596   0.00000  Uiso   1.00
O591   O     0.42050   0.93772   0.22615   0.00000  Uiso   1.00
O592   O     0.46163   0.97503   0.28696   0.00000  Uiso   1.00
O593   O     0.37773   0.80226   0.02401   0.00000  Uiso   1.00
O594   O     0.42229   0.75251   0.06232   0.00000  Uiso   1.00
O595   O     0.54707   0.93327   0.31370   0.00000  Uiso   1.00
O596   O     0.58548   0.90022   0.26069   0.00000  Uiso   1.00
O597   O     0.41024   0.77346   0.24487   0.00000  Uiso   1.00
O598   O     0.44311   0.73035   0.29987   0.00000  Uiso   1.00
O599   O     0.57480   0.91003   0.08045   0.00000  Uiso   1.00
O600   O     0.50000   0.89345   0.12709   0.00000  Uiso   1.00
O601   O     0.62829   0.86615   0.05369   0.00000  Uiso   1.00
O602   O     0.50000   0.77321   0.12706   0.00000  Uiso   1.00
O603   O     0.50000   0.89346   0.20628   0.00000  Uiso   1.00
O604   O     0.42495   0.83334   0.19712   0.00000  Uiso   1.00
O605   O     0.57505   0.83333   0.13621   0.00000  Uiso   1.00
O606   O     0.42494   0.83333   0.11793   0.00000  Uiso   1.00
O607   O     0.57506   0.83334   0.21540   0.00000  Uiso   1.00
O608   O     0.57669   0.68693   0.07862   0.00000  Uiso   1.00
C609   C     0.83815   0.75442   0.16691   0.00000  Uiso   1.00
C610   C     0.84154   0.68795   0.20901   0.00000  Uiso   1.00
C611   C     0.82519   0.95738   0.16507   0.00000  Uiso   1.00
C612   C     0.84346   0.70950   0.16682   0.00000  Uiso   1.00
C613   C     0.79864   0.80870   0.02027   0.00000  Uiso   1.00
C614   C     0.86360   0.86182   0.31294   0.00000  Uiso   1.00
C615   C     0.80268   0.80513   0.30515   0.00000  Uiso   1.00
C616   C     0.86792   0.85810   0.02900   0.00000  Uiso   1.00
C617   C     0.66796   0.75072   0.14347   0.00000  Uiso   1.00
C618   C     0.68894   0.85697   0.26458   0.00000  Uiso   1.00
C619   C     0.87127   0.70324   0.08614   0.00000  Uiso   1.00
C620   C     0.82936   0.91235   0.16618   0.00000  Uiso   1.00
C621   C     0.78931   0.96240   0.24039   0.00000  Uiso   1.00
C622   C     0.76074   0.94657   0.06790   0.00000  Uiso   1.00
C623   C     0.91681   0.72074   0.25581   0.00000  Uiso   1.00
C624   C     0.75273   0.78877   0.03691   0.00000  Uiso   1.00
C625   C     0.88707   0.90045   0.29533   0.00000  Uiso   1.00
C626   C     0.77360   0.76922   0.27988   0.00000  Uiso   1.00
C627   C     0.91283   0.87941   0.05723   0.00000  Uiso   1.00
C628   C     0.73479   0.83240   0.15515   0.00000  Uiso   1.00
C629   C     0.93182   0.83450   0.17847   0.00000  Uiso   1.00
C630   C     0.67974   0.82412   0.15178   0.00000  Uiso   1.00
C631   C     0.98702   0.84087   0.18373   0.00000  Uiso   1.00
C632   C     0.84351   0.68719   0.12456   0.00000  Uiso   1.00
C633   C     0.82327   0.97963   0.20667   0.00000  Uiso   1.00
C634   C     0.82910   0.97842   0.12310   0.00000  Uiso   1.00
Cu635  Cu    0.83333   0.83334   0.21355   0.00000  Uiso   1.00
Cu636  Cu    0.83333   0.83333   0.11978   0.00000  Uiso   1.00
H637   H     0.99724   0.79224   0.08937   0.00000  Uiso   1.00
H638   H     0.76723   0.96208   0.30429   0.00000  Uiso   1.00
H639   H     0.83086   0.96958   0.05107   0.00000  Uiso   1.00
H640   H     0.73977   0.97457   0.05846   0.00000  Uiso   1.00
H641   H     0.74491   0.93142   0.09768   0.00000  Uiso   1.00
H642   H     0.75446   0.92442   0.03809   0.00000  Uiso   1.00
H643   H     0.85656   0.69173   0.28215   0.00000  Uiso   1.00
H644   H     0.94027   0.69407   0.25145   0.00000  Uiso   1.00
H645   H     0.92969   0.73524   0.29056   0.00000  Uiso   1.00
H646   H     0.92341   0.74406   0.22920   0.00000  Uiso   1.00
H647   H     0.72068   0.73927   0.06612   0.00000  Uiso   1.00
H648   H     0.98486   0.74715   0.17667   0.00000  Uiso   1.00
H649   H     0.93163   0.92899   0.25264   0.00000  Uiso   1.00
H650   H     0.75139   0.70913   0.28216   0.00000  Uiso   1.00
H651   H     0.98982   0.88369   0.07308   0.00000  Uiso   1.00
H652   H     0.71003   0.74745   0.15006   0.00000  Uiso   1.00
H653   H     0.98444   0.72577   0.11917   0.00000  Uiso   1.00
H654   H     0.99531   0.89907   0.21411   0.00000  Uiso   1.00
H655   H     0.73069   0.86167   0.27592   0.00000  Uiso   1.00
H656   H     0.67671   0.82395   0.26807   0.00000  Uiso   1.00
H657   H     0.66960   0.87534   0.28862   0.00000  Uiso   1.00
H658   H     0.87435   0.74028   0.03095   0.00000  Uiso   1.00
N659   N     0.83335   0.83334   0.28403   0.00000  Uiso   1.00
N660   N     0.83332   0.83332   0.04931   0.00000  Uiso   1.00
N661   N     0.99022   0.79032   0.12333   0.00000  Uiso   1.00
N662   N     0.67774   0.87085   0.21701   0.00000  Uiso   1.00
N663   N     0.81510   0.95755   0.07916   0.00000  Uiso   1.00
N664   N     0.86301   0.70713   0.25255   0.00000  Uiso   1.00
O665   O     0.83333   0.77322   0.20625   0.00000  Uiso   1.00
O666   O     0.85176   0.73331   0.05596   0.00000  Uiso   1.00
O667   O     0.75383   0.93772   0.22615   0.00000  Uiso   1.00
O668   O     0.79497   0.97503   0.28696   0.00000  Uiso   1.00
O669   O     0.71106   0.80226   0.02401   0.00000  Uiso   1.00
O670   O     0.75563   0.75251   0.06232   0.00000  Uiso   1.00
O671   O     0.88040   0.93327   0.31370   0.00000  Uiso   1.00
O672   O     0.91881   0.90022   0.26069   0.00000  Uiso   1.00
O673   O     0.74357   0.77346   0.24487   0.00000  Uiso   1.00
O674   O     0.77645   0.73035   0.29987   0.00000  Uiso   1.00
O675   O     0.90813   0.91003   0.08045   0.00000  Uiso   1.00
O676   O     0.83334   0.89345   0.12709   0.00000  Uiso   1.00
O677   O     0.96162   0.86615   0.05369   0.00000  Uiso   1.00
O678   O     0.83333   0.77321   0.12706   0.00000  Uiso   1.00
O679   O     0.83334   0.89346   0.20628   0.00000  Uiso   1.00
O680   O     0.75828   0.83334   0.19712   0.00000  Uiso   1.00
O681   O     0.90839   0.83333   0.13621   0.00000  Uiso   1.00
O682   O     0.75828   0.83333   0.11793   0.00000  Uiso   1.00
O683   O     0.90839   0.83334   0.21540   0.00000  Uiso   1.00
O684   O     0.91002   0.68693   0.07862   0.00000  Uiso   1.00
C685   C     0.17148   0.08775   0.50024   0.00000  Uiso   1.00
C686   C     0.17487   0.02129   0.54234   0.00000  Uiso   1.00
C687   C     0.15852   0.29071   0.49840   0.00000  Uiso   1.00
C688   C     0.17679   0.04283   0.50016   0.00000  Uiso   1.00
C689   C     0.13197   0.14203   0.35361   0.00000  Uiso   1.00
C690   C     0.19693   0.19515   0.64627   0.00000  Uiso   1.00
C691   C     0.13601   0.13846   0.63848   0.00000  Uiso   1.00
C692   C     0.20125   0.19144   0.36233   0.00000  Uiso   1.00
C693   C     0.00130   0.08405   0.47680   0.00000  Uiso   1.00
C694   C     0.02228   0.19030   0.59791   0.00000  Uiso   1.00
C695   C     0.20461   0.03657   0.41948   0.00000  Uiso   1.00
C696   C     0.16269   0.24568   0.49951   0.00000  Uiso   1.00
C697   C     0.12265   0.29573   0.57373   0.00000  Uiso   1.00
C698   C     0.09407   0.27991   0.40124   0.00000  Uiso   1.00
C699   C     0.25014   0.05407   0.58914   0.00000  Uiso   1.00
C700   C     0.08606   0.12210   0.37024   0.00000  Uiso   1.00
C701   C     0.22041   0.23378   0.62866   0.00000  Uiso   1.00
C702   C     0.10693   0.10256   0.61322   0.00000  Uiso   1.00
C703   C     0.24617   0.21275   0.39056   0.00000  Uiso   1.00
C704   C     0.06813   0.16574   0.48849   0.00000  Uiso   1.00
C705   C     0.26515   0.16783   0.51180   0.00000  Uiso   1.00
C706   C     0.01307   0.15745   0.48511   0.00000  Uiso   1.00
C707   C     0.32035   0.17420   0.51706   0.00000  Uiso   1.00
C708   C     0.17684   0.02053   0.45789   0.00000  Uiso   1.00
C709   C     0.15660   0.31296   0.54000   0.00000  Uiso   1.00
C710   C     0.16243   0.31175   0.45643   0.00000  Uiso   1.00
Cu711  Cu    0.16667   0.16667   0.54689   0.00000  Uiso   1.00
Cu712  Cu    0.16667   0.16666   0.45311   0.00000  Uiso   1.00
H713   H     0.33058   0.12557   0.42270   0.00000  Uiso   1.00
H714   H     0.10056   0.29541   0.63763   0.00000  Uiso   1.00
H715   H     0.16419   0.30291   0.38440   0.00000  Uiso   1.00
H716   H     0.07310   0.30791   0.39179   0.00000  Uiso   1.00
H717   H     0.07824   0.26476   0.43101   0.00000  Uiso   1.00
H718   H     0.08779   0.25776   0.37142   0.00000  Uiso   1.00
H719   H     0.18990   0.02507   0.61548   0.00000  Uiso   1.00
H720   H     0.27360   0.02740   0.58478   0.00000  Uiso   1.00
H721   H     0.26302   0.06857   0.62389   0.00000  Uiso   1.00
H722   H     0.25675   0.07739   0.56253   0.00000  Uiso   1.00
H723   H     0.05401   0.07261   0.39945   0.00000  Uiso   1.00
H724   H     0.31819   0.08048   0.51000   0.00000  Uiso   1.00
H725   H     0.26497   0.26233   0.58597   0.00000  Uiso   1.00
H726   H     0.08472   0.04246   0.61549   0.00000  Uiso   1.00
H727   H     0.32315   0.21703   0.40642   0.00000  Uiso   1.00
H728   H     0.04336   0.08078   0.48339   0.00000  Uiso   1.00
H729   H     0.31777   0.05911   0.45250   0.00000  Uiso   1.00
H730   H     0.32865   0.23240   0.54744   0.00000  Uiso   1.00
H731   H     0.06402   0.19500   0.60926   0.00000  Uiso   1.00
H732   H     0.01004   0.15729   0.60140   0.00000  Uiso   1.00
H733   H     0.00293   0.20868   0.62195   0.00000  Uiso   1.00
H734   H     0.20768   0.07361   0.36428   0.00000  Uiso   1.00
N735   N     0.16668   0.16668   0.61736   0.00000  Uiso   1.00
N736   N     0.16665   0.16666   0.38264   0.00000  Uiso   1.00
N737   N     0.32355   0.12366   0.45666   0.00000  Uiso   1.00
N738   N     0.01107   0.20418   0.55034   0.00000  Uiso   1.00
N739   N     0.14843   0.29088   0.41249   0.00000  Uiso   1.00
N740   N     0.19635   0.04046   0.58588   0.00000  Uiso   1.00
O741   O     0.16666   0.10655   0.53958   0.00000  Uiso   1.00
O742   O     0.18510   0.06664   0.38929   0.00000  Uiso   1.00
O743   O     0.08716   0.27105   0.55948   0.00000  Uiso   1.00
O744   O     0.12830   0.30837   0.62030   0.00000  Uiso   1.00
O745   O     0.04439   0.13559   0.35734   0.00000  Uiso   1.00
O746   O     0.08896   0.08584   0.39565   0.00000  Uiso   1.00
O747   O     0.21374   0.26660   0.64704   0.00000  Uiso   1.00
O748   O     0.25214   0.23355   0.59402   0.00000  Uiso   1.00
O749   O     0.07691   0.10680   0.57821   0.00000  Uiso   1.00
O750   O     0.10978   0.06368   0.63320   0.00000  Uiso   1.00
O751   O     0.24147   0.24336   0.41378   0.00000  Uiso   1.00
O752   O     0.16667   0.22678   0.46042   0.00000  Uiso   1.00
O753   O     0.29495   0.19949   0.38703   0.00000  Uiso   1.00
O754   O     0.16666   0.10654   0.46039   0.00000  Uiso   1.00
O755   O     0.16667   0.22679   0.53961   0.00000  Uiso   1.00
O756   O     0.09161   0.16667   0.53046   0.00000  Uiso   1.00
O757   O     0.24172   0.16666   0.46954   0.00000  Uiso   1.00
O758   O     0.09161   0.16666   0.45127   0.00000  Uiso   1.00
O759   O     0.24172   0.16667   0.54873   0.00000  Uiso   1.00
O760   O     0.24335   0.02027   0.41196   0.00000  Uiso   1.00
C761   C     0.50481   0.08775   0.50024   0.00000  Uiso   1.00
C762   C     0.50820   0.02129   0.54234   0.00000  Uiso   1.00
C763   C     0.49186   0.29071   0.49840   0.00000  Uiso   1.00
C764   C     0.51012   0.04283   0.50016   0.00000  Uiso   1.00
C765   C     0.46530   0.14203   0.35361   0.00000  Uiso   1.00
C766   C     0.53027   0.19515   0.64627   0.00000  Uiso   1.00
C767   C     0.46935   0.13846   0.63848   0.00000  Uiso   1.00
C768   C     0.53458   0.19144   0.36233   0.00000  Uiso   1.00
C769   C     0.33463   0.08405   0.47680   0.00000  Uiso   1.00
C770   C     0.35561   0.19030   0.59791   0.00000  Uiso   1.00
C771   C     0.53794   0.03657   0.41948   0.00000  Uiso   1.00
C772   C     0.49603   0.24568   0.49951   0.00000  Uiso   1.00
C773   C     0.45598   0.29573   0.57373   0.00000  Uiso   1.00
C774   C     0.42741   0.27991   0.40124   0.00000  Uiso   1.00
C775   C     0.58347   0.05407   0.58914   0.00000  Uiso   1.00
C776   C     0.41940   0.12210   0.37024   0.00000  Uiso   1.00
C777   C     0.55374   0.23378   0.62866   0.00000  Uiso   1.00
C778   C     0.44027   0.10256   0.61322   0.00000  Uiso   1.00
C779   C     0.57950   0.21275   0.39056   0.00000  Uiso   1.00
C780   C     0.40146   0.16574   0.48849   0.00000  Uiso   1.00
C781   C     0.59848   0.16783   0.51180   0.00000  Uiso   1.00
C782   C     0.34640   0.15745   0.48511   0.00000  Uiso   1.00
C783   C     0.65369   0.17420   0.51706   0.00000  Uiso   1.00
C784   C     0.51018   0.02053   0.45789   0.00000  Uiso   1.00
C785   C     0.48993   0.31296   0.54000   0.00000  Uiso   1.00
C786   C     0.49577   0.31175   0.45643   0.00000  Uiso   1.00
Cu787  Cu    0.50000   0.16667   0.54689   0.00000  Uiso   1.00
Cu788  Cu    0.50000   0.16666   0.45311   0.00000  Uiso   1.00
H789   H     0.66391   0.12557   0.42270   0.00000  Uiso   1.00
H790   H     0.43390   0.29541   0.63763   0.00000  Uiso   1.00
H791   H     0.49753   0.30291   0.38440   0.00000  Uiso   1.00
H792   H     0.40644   0.30791   0.39179   0.00000  Uiso   1.00
H793   H     0.41157   0.26476   0.43101   0.00000  Uiso   1.00
H794   H     0.42113   0.25776   0.37142   0.00000  Uiso   1.00
H795   H     0.52323   0.02507   0.61548   0.00000  Uiso   1.00
H796   H     0.60694   0.02740   0.58478   0.00000  Uiso   1.00
H797   H     0.59635   0.06857   0.62389   0.00000  Uiso   1.00
H798   H     0.59008   0.07739   0.56253   0.00000  Uiso   1.00
H799   H     0.38735   0.07261   0.39945   0.00000  Uiso   1.00
H800   H     0.65152   0.08048   0.51000   0.00000  Uiso   1.00
H801   H     0.59830   0.26233   0.58597   0.00000  Uiso   1.00
H802   H     0.41805   0.04246   0.61549   0.00000  Uiso   1.00
H803   H     0.65648   0.21703   0.40642   0.00000  Uiso   1.00
H804   H     0.37669   0.08078   0.48339   0.00000  Uiso   1.00
H805   H     0.65111   0.05911   0.45250   0.00000  Uiso   1.00
H806   H     0.66198   0.23240   0.54744   0.00000  Uiso   1.00
H807   H     0.39735   0.19500   0.60926   0.00000  Uiso   1.00
H808   H     0.34338   0.15729   0.60140   0.00000  Uiso   1.00
H809   H     0.33626   0.20868   0.62195   0.00000  Uiso   1.00
H810   H     0.54101   0.07361   0.36428   0.00000  Uiso   1.00
N811   N     0.50001   0.16668   0.61736   0.00000  Uiso   1.00
N812   N     0.49999   0.16666   0.38264   0.00000  Uiso   1.00
N813   N     0.65688   0.12366   0.45666   0.00000  Uiso   1.00
N814   N     0.34440   0.20418   0.55034   0.00000  Uiso   1.00
N815   N     0.48177   0.29088   0.41249   0.00000  Uiso   1.00
N816   N     0.52968   0.04046   0.58588   0.00000  Uiso   1.00
O817   O     0.50000   0.10655   0.53958   0.00000  Uiso   1.00
O818   O     0.51843   0.06664   0.38929   0.00000  Uiso   1.00
O819   O     0.42050   0.27105   0.55948   0.00000  Uiso   1.00
O820   O     0.46163   0.30837   0.62030   0.00000  Uiso   1.00
O821   O     0.37773   0.13559   0.35734   0.00000  Uiso   1.00
O822   O     0.42229   0.08584   0.39565   0.00000  Uiso   1.00
O823   O     0.54707   0.26660   0.64704   0.00000  Uiso   1.00
O824   O     0.58548   0.23355   0.59402   0.00000  Uiso   1.00
O825   O     0.41024   0.10680   0.57821   0.00000  Uiso   1.00
O826   O     0.44311   0.06368   0.63320   0.00000  Uiso   1.00
O827   O     0.57480   0.24336   0.41378   0.00000  Uiso   1.00
O828   O     0.50000   0.22678   0.46042   0.00000  Uiso   1.00
O829   O     0.62829   0.19949   0.38703   0.00000  Uiso   1.00
O830   O     0.50000   0.10654   0.46039   0.00000  Uiso   1.00
O831   O     0.50000   0.22679   0.53961   0.00000  Uiso   1.00
O832   O     0.42495   0.16667   0.53046   0.00000  Uiso   1.00
O833   O     0.57505   0.16666   0.46954   0.00000  Uiso   1.00
O834   O     0.42494   0.16666   0.45127   0.00000  Uiso   1.00
O835   O     0.57506   0.16667   0.54873   0.00000  Uiso   1.00
O836   O     0.57669   0.02027   0.41196   0.00000  Uiso   1.00
C837   C     0.83815   0.08775   0.50024   0.00000  Uiso   1.00
C838   C     0.84154   0.02129   0.54234   0.00000  Uiso   1.00
C839   C     0.82519   0.29071   0.49840   0.00000  Uiso   1.00
C840   C     0.84346   0.04283   0.50016   0.00000  Uiso   1.00
C841   C     0.79864   0.14203   0.35361   0.00000  Uiso   1.00
C842   C     0.86360   0.19515   0.64627   0.00000  Uiso   1.00
C843   C     0.80268   0.13846   0.63848   0.00000  Uiso   1.00
C844   C     0.86792   0.19144   0.36233   0.00000  Uiso   1.00
C845   C     0.66796   0.08405   0.47680   0.00000  Uiso   1.00
C846   C     0.68894   0.19030   0.59791   0.00000  Uiso   1.00
C847   C     0.87127   0.03657   0.41948   0.00000  Uiso   1.00
C848   C     0.82936   0.24568   0.49951   0.00000  Uiso   1.00
C849   C     0.78931   0.29573   0.57373   0.00000  Uiso   1.00
C850   C     0.76074   0.27991   0.40124   0.00000  Uiso   1.00
C851   C     0.91681   0.05407   0.58914   0.00000  Uiso   1.00
C852   C     0.75273   0.12210   0.37024   0.00000  Uiso   1.00
C853   C     0.88707   0.23378   0.62866   0.00000  Uiso   1.00
C854   C     0.77360   0.10256   0.61322   0.00000  Uiso   1.00
C855   C     0.91283   0.21275   0.39056   0.00000  Uiso   1.00
C856   C     0.73479   0.16574   0.48849   0.00000  Uiso   1.00
C857   C     0.93182   0.16783   0.51180   0.00000  Uiso   1.00
C858   C     0.67974   0.15745   0.48511   0.00000  Uiso   1.00
C859   C     0.98702   0.17420   0.51706   0.00000  Uiso   1.00
C860   C     0.84351   0.02053   0.45789   0.00000  Uiso   1.00
C861   C     0.82327   0.31296   0.54000   0.00000  Uiso   1.00
C862   C     0.82910   0.31175   0.45643   0.00000  Uiso   1.00
Cu863  Cu    0.83333   0.16667   0.54689   0.00000  Uiso   1.00
Cu864  Cu    0.83333   0.16666   0.45311   0.00000  Uiso   1.00
H865   H     0.99724   0.12557   0.42270   0.00000  Uiso   1.00
H866   H     0.76723   0.29541   0.63763   0.00000  Uiso   1.00
H867   H     0.83086   0.30291   0.38440   0.00000  Uiso   1.00
H868   H     0.73977   0.30791   0.39179   0.00000  Uiso   1.00
H869   H     0.74491   0.26476   0.43101   0.00000  Uiso   1.00
H870   H     0.75446   0.25776   0.37142   0.00000  Uiso   1.00
H871   H     0.85656   0.02507   0.61548   0.00000  Uiso   1.00
H872   H     0.94027   0.02740   0.58478   0.00000  Uiso   1.00
H873   H     0.92969   0.06857   0.62389   0.00000  Uiso   1.00
H874   H     0.92341   0.07739   0.56253   0.00000  Uiso   1.00
H875   H     0.72068   0.07261   0.39945   0.00000  Uiso   1.00
H876   H     0.98486   0.08048   0.51000   0.00000  Uiso   1.00
H877   H     0.93163   0.26233   0.58597   0.00000  Uiso   1.00
H878   H     0.75139   0.04246   0.61549   0.00000  Uiso   1.00
H879   H     0.98982   0.21703   0.40642   0.00000  Uiso   1.00
H880   H     0.71003   0.08078   0.48339   0.00000  Uiso   1.00
H881   H     0.98444   0.05911   0.45250   0.00000  Uiso   1.00
H882   H     0.99531   0.23240   0.54744   0.00000  Uiso   1.00
H883   H     0.73069   0.19500   0.60926   0.00000  Uiso   1.00
H884   H     0.67671   0.15729   0.60140   0.00000  Uiso   1.00
H885   H     0.66960   0.20868   0.62195   0.00000  Uiso   1.00
H886   H     0.87435   0.07361   0.36428   0.00000  Uiso   1.00
N887   N     0.83335   0.16668   0.61736   0.00000  Uiso   1.00
N888   N     0.83332   0.16666   0.38264   0.00000  Uiso   1.00
N889   N     0.99022   0.12366   0.45666   0.00000  Uiso   1.00
N890   N     0.67774   0.20418   0.55034   0.00000  Uiso   1.00
N891   N     0.81510   0.29088   0.41249   0.00000  Uiso   1.00
N892   N     0.86301   0.04046   0.58588   0.00000  Uiso   1.00
O893   O     0.83333   0.10655   0.53958   0.00000  Uiso   1.00
O894   O     0.85176   0.06664   0.38929   0.00000  Uiso   1.00
O895   O     0.75383   0.27105   0.55948   0.00000  Uiso   1.00
O896   O     0.79497   0.30837   0.62030   0.00000  Uiso   1.00
O897   O     0.71106   0.13559   0.35734   0.00000  Uiso   1.00
O898   O     0.75563   0.08584   0.39565   0.00000  Uiso   1.00
O899   O     0.88040   0.26660   0.64704   0.00000  Uiso   1.00
O900   O     0.91881   0.23355   0.59402   0.00000  Uiso   1.00
O901   O     0.74357   0.10680   0.57821   0.00000  Uiso   1.00
O902   O     0.77645   0.06368   0.63320   0.00000  Uiso   1.00
O903   O     0.90813   0.24336   0.41378   0.00000  Uiso   1.00
O904   O     0.83334   0.22678   0.46042   0.00000  Uiso   1.00
O905   O     0.96162   0.19949   0.38703   0.00000  Uiso   1.00
O906   O     0.83333   0.10654   0.46039   0.00000  Uiso   1.00
O907   O     0.83334   0.22679   0.53961   0.00000  Uiso   1.00
O908   O     0.75828   0.16667   0.53046   0.00000  Uiso   1.00
O909   O     0.90839   0.16666   0.46954   0.00000  Uiso   1.00
O910   O     0.75828   0.16666   0.45127   0.00000  Uiso   1.00
O911   O     0.90839   0.16667   0.54873   0.00000  Uiso   1.00
O912   O     0.91002   0.02027   0.41196   0.00000  Uiso   1.00
C913   C     0.17148   0.42108   0.50024   0.00000  Uiso   1.00
C914   C     0.17487   0.35462   0.54234   0.00000  Uiso   1.00
C915   C     0.15852   0.62405   0.49840   0.00000  Uiso   1.00
C916   C     0.17679   0.37616   0.50016   0.00000  Uiso   1.00
C917   C     0.13197   0.47537   0.35361   0.00000  Uiso   1.00
C918   C     0.19693   0.52849   0.64627   0.00000  Uiso   1.00
C919   C     0.13601   0.47180   0.63848   0.00000  Uiso   1.00
C920   C     0.20125   0.52477   0.36233   0.00000  Uiso   1.00
C921   C     0.00130   0.41738   0.47680   0.00000  Uiso   1.00
C922   C     0.02228   0.52364   0.59791   0.00000  Uiso   1.00
C923   C     0.20461   0.36990   0.41948   0.00000  Uiso   1.00
C924   C     0.16269   0.57901   0.49951   0.00000  Uiso   1.00
C925   C     0.12265   0.62907   0.57373   0.00000  Uiso   1.00
C926   C     0.09407   0.61324   0.40124   0.00000  Uiso   1.00
C927   C     0.25014   0.38740   0.58914   0.00000  Uiso   1.00
C928   C     0.08606   0.45543   0.37024   0.00000  Uiso   1.00
C929   C     0.22041   0.56711   0.62866   0.00000  Uiso   1.00
C930   C     0.10693   0.43589   0.61322   0.00000  Uiso   1.00
C931   C     0.24617   0.54608   0.39056   0.00000  Uiso   1.00
C932   C     0.06813   0.49907   0.48849   0.00000  Uiso   1.00
C933   C     0.26515   0.50116   0.51180   0.00000  Uiso   1.00
C934   C     0.01307   0.49078   0.48511   0.00000  Uiso   1.00
C935   C     0.32035   0.50753   0.51706   0.00000  Uiso   1.00
C936   C     0.17684   0.35386   0.45789   0.00000  Uiso   1.00
C937   C     0.15660   0.64629   0.54000   0.00000  Uiso   1.00
C938   C     0.16243   0.64508   0.45643   0.00000  Uiso   1.00
Cu939  Cu    0.16667   0.50001   0.54689   0.00000  Uiso   1.00
Cu940  Cu    0.16667   0.49999   0.45311   0.00000  Uiso   1.00
H941   H     0.33058   0.45891   0.42270   0.00000  Uiso   1.00
H942   H     0.10056   0.62874   0.63763   0.00000  Uiso   1.00
H943   H     0.16419   0.63625   0.38440   0.00000  Uiso   1.00
H944   H     0.07310   0.64124   0.39179   0.00000  Uiso   1.00
H945   H     0.07824   0.59809   0.43101   0.00000  Uiso   1.00
H946   H     0.08779   0.59109   0.37142   0.00000  Uiso   1.00
H947   H     0.18990   0.35840   0.61548   0.00000  Uiso   1.00
H948   H     0.27360   0.36073   0.58478   0.00000  Uiso   1.00
H949   H     0.26302   0.40190   0.62389   0.00000  Uiso   1.00
H950   H     0.25675   0.41073   0.56253   0.00000  Uiso   1.00
H951   H     0.05401   0.40594   0.39945   0.00000  Uiso   1.00
H952   H     0.31819   0.41382   0.51000   0.00000  Uiso   1.00
H953   H     0.26497   0.59566   0.58597   0.00000  Uiso   1.00
H954   H     0.08472   0.37579   0.61549   0.00000  Uiso   1.00
H955   H     0.32315   0.55036   0.40642   0.00000  Uiso   1.00
H956   H     0.04336   0.41412   0.48339   0.00000  Uiso   1.00
H957   H     0.31777   0.39244   0.45250   0.00000  Uiso   1.00
H958   H     0.32865   0.56573   0.54744   0.00000  Uiso   1.00
H959   H     0.06402   0.52833   0.60926   0.00000  Uiso   1.00
H960   H     0.01004   0.49062   0.60140   0.00000  Uiso   1.00
H961   H     0.00293   0.54201   0.62195   0.00000  Uiso   1.00
H962   H     0.20768   0.40695   0.36428   0.00000  Uiso   1.00
N963   N     0.16668   0.50001   0.61736   0.00000  Uiso   1.00
N964   N     0.16665   0.49999   0.38264   0.00000  Uiso   1.00
N965   N     0.32355   0.45699   0.45666   0.00000  Uiso   1.00
N966   N     0.01107   0.53752   0.55034   0.00000  Uiso   1.00
N967   N     0.14843   0.62421   0.41249   0.00000  Uiso   1.00
N968   N     0.19635   0.37380   0.58588   0.00000  Uiso   1.00
O969   O     0.16666   0.43989   0.53958   0.00000  Uiso   1.00
O970   O     0.18510   0.39998   0.38929   0.00000  Uiso   1.00
O971   O     0.08716   0.60438   0.55948   0.00000  Uiso   1.00
O972   O     0.12830   0.64170   0.62030   0.00000  Uiso   1.00
O973   O     0.04439   0.46893   0.35734   0.00000  Uiso   1.00
O974   O     0.08896   0.41917   0.39565   0.00000  Uiso   1.00
O975   O     0.21374   0.59994   0.64704   0.00000  Uiso   1.00
O976   O     0.25214   0.56689   0.59402   0.00000  Uiso   1.00
O977   O     0.07691   0.44013   0.57821   0.00000  Uiso   1.00
O978   O     0.10978   0.39702   0.63320   0.00000  Uiso   1.00
O979   O     0.24147   0.57670   0.41378   0.00000  Uiso   1.00
O980   O     0.16667   0.56011   0.46042   0.00000  Uiso   1.00
O981   O     0.29495   0.53282   0.38703   0.00000  Uiso   1.00
O982   O     0.16666   0.43988   0.46039   0.00000  Uiso   1.00
O983   O     0.16667   0.56012   0.53961   0.00000  Uiso   1.00
O984   O     0.09161   0.50000   0.53046   0.00000  Uiso   1.00
O985   O     0.24172   0.50000   0.46954   0.00000  Uiso   1.00
O986   O     0.09161   0.49999   0.45127   0.00000  Uiso   1.00
O987   O     0.24172   0.50001   0.54873   0.00000  Uiso   1.00
O988   O     0.24335   0.35360   0.41196   0.00000  Uiso   1.00
C989   C     0.50481   0.42108   0.50024   0.00000  Uiso   1.00
C990   C     0.50820   0.35462   0.54234   0.00000  Uiso   1.00
C991   C     0.49186   0.62405   0.49840   0.00000  Uiso   1.00
C992   C     0.51012   0.37616   0.50016   0.00000  Uiso   1.00
C993   C     0.46530   0.47537   0.35361   0.00000  Uiso   1.00
C994   C     0.53027   0.52849   0.64627   0.00000  Uiso   1.00
C995   C     0.46935   0.47180   0.63848   0.00000  Uiso   1.00
C996   C     0.53458   0.52477   0.36233   0.00000  Uiso   1.00
C997   C     0.33463   0.41738   0.47680   0.00000  Uiso   1.00
C998   C     0.35561   0.52364   0.59791   0.00000  Uiso   1.00
C999   C     0.53794   0.36990   0.41948   0.00000  Uiso   1.00
C1000  C     0.49603   0.57901   0.49951   0.00000  Uiso   1.00
C1001  C     0.45598   0.62907   0.57373   0.00000  Uiso   1.00
C1002  C     0.42741   0.61324   0.40124   0.00000  Uiso   1.00
C1003  C     0.58347   0.38740   0.58914   0.00000  Uiso   1.00
C1004  C     0.41940   0.45543   0.37024   0.00000  Uiso   1.00
C1005  C     0.55374   0.56711   0.62866   0.00000  Uiso   1.00
C1006  C     0.44027   0.43589   0.61322   0.00000  Uiso   1.00
C1007  C     0.57950   0.54608   0.39056   0.00000  Uiso   1.00
C1008  C     0.40146   0.49907   0.48849   0.00000  Uiso   1.00
C1009  C     0.59848   0.50116   0.51180   0.00000  Uiso   1.00
C1010  C     0.34640   0.49078   0.48511   0.00000  Uiso   1.00
C1011  C     0.65369   0.50753   0.51706   0.00000  Uiso   1.00
C1012  C     0.51018   0.35386   0.45789   0.00000  Uiso   1.00
C1013  C     0.48993   0.64629   0.54000   0.00000  Uiso   1.00
C1014  C     0.49577   0.64508   0.45643   0.00000  Uiso   1.00
Cu1015 Cu    0.50000   0.50001   0.54689   0.00000  Uiso   1.00
Cu1016 Cu    0.50000   0.49999   0.45311   0.00000  Uiso   1.00
H1017  H     0.66391   0.45891   0.42270   0.00000  Uiso   1.00
H1018  H     0.43390   0.62874   0.63763   0.00000  Uiso   1.00
H1019  H     0.49753   0.63625   0.38440   0.00000  Uiso   1.00
H1020  H     0.40644   0.64124   0.39179   0.00000  Uiso   1.00
H1021  H     0.41157   0.59809   0.43101   0.00000  Uiso   1.00
H1022  H     0.42113   0.59109   0.37142   0.00000  Uiso   1.00
H1023  H     0.52323   0.35840   0.61548   0.00000  Uiso   1.00
H1024  H     0.60694   0.36073   0.58478   0.00000  Uiso   1.00
H1025  H     0.59635   0.40190   0.62389   0.00000  Uiso   1.00
H1026  H     0.59008   0.41073   0.56253   0.00000  Uiso   1.00
H1027  H     0.38735   0.40594   0.39945   0.00000  Uiso   1.00
H1028  H     0.65152   0.41382   0.51000   0.00000  Uiso   1.00
H1029  H     0.59830   0.59566   0.58597   0.00000  Uiso   1.00
H1030  H     0.41805   0.37579   0.61549   0.00000  Uiso   1.00
H1031  H     0.65648   0.55036   0.40642   0.00000  Uiso   1.00
H1032  H     0.37669   0.41412   0.48339   0.00000  Uiso   1.00
H1033  H     0.65111   0.39244   0.45250   0.00000  Uiso   1.00
H1034  H     0.66198   0.56573   0.54744   0.00000  Uiso   1.00
H1035  H     0.39735   0.52833   0.60926   0.00000  Uiso   1.00
H1036  H     0.34338   0.49062   0.60140   0.00000  Uiso   1.00
H1037  H     0.33626   0.54201   0.62195   0.00000  Uiso   1.00
H1038  H     0.54101   0.40695   0.36428   0.00000  Uiso   1.00
N1039  N     0.50001   0.50001   0.61736   0.00000  Uiso   1.00
N1040  N     0.49999   0.49999   0.38264   0.00000  Uiso   1.00
N1041  N     0.65688   0.45699   0.45666   0.00000  Uiso   1.00
N1042  N     0.34440   0.53752   0.55034   0.00000  Uiso   1.00
N1043  N     0.48177   0.62421   0.41249   0.00000  Uiso   1.00
N1044  N     0.52968   0.37380   0.58588   0.00000  Uiso   1.00
O1045  O     0.50000   0.43989   0.53958   0.00000  Uiso   1.00
O1046  O     0.51843   0.39998   0.38929   0.00000  Uiso   1.00
O1047  O     0.42050   0.60438   0.55948   0.00000  Uiso   1.00
O1048  O     0.46163   0.64170   0.62030   0.00000  Uiso   1.00
O1049  O     0.37773   0.46893   0.35734   0.00000  Uiso   1.00
O1050  O     0.42229   0.41917   0.39565   0.00000  Uiso   1.00
O1051  O     0.54707   0.59994   0.64704   0.00000  Uiso   1.00
O1052  O     0.58548   0.56689   0.59402   0.00000  Uiso   1.00
O1053  O     0.41024   0.44013   0.57821   0.00000  Uiso   1.00
O1054  O     0.44311   0.39702   0.63320   0.00000  Uiso   1.00
O1055  O     0.57480   0.57670   0.41378   0.00000  Uiso   1.00
O1056  O     0.50000   0.56011   0.46042   0.00000  Uiso   1.00
O1057  O     0.62829   0.53282   0.38703   0.00000  Uiso   1.00
O1058  O     0.50000   0.43988   0.46039   0.00000  Uiso   1.00
O1059  O     0.50000   0.56012   0.53961   0.00000  Uiso   1.00
O1060  O     0.42495   0.50000   0.53046   0.00000  Uiso   1.00
O1061  O     0.57505   0.50000   0.46954   0.00000  Uiso   1.00
O1062  O     0.42494   0.49999   0.45127   0.00000  Uiso   1.00
O1063  O     0.57506   0.50001   0.54873   0.00000  Uiso   1.00
O1064  O     0.57669   0.35360   0.41196   0.00000  Uiso   1.00
C1065  C     0.83815   0.42108   0.50024   0.00000  Uiso   1.00
C1066  C     0.84154   0.35462   0.54234   0.00000  Uiso   1.00
C1067  C     0.82519   0.62405   0.49840   0.00000  Uiso   1.00
C1068  C     0.84346   0.37616   0.50016   0.00000  Uiso   1.00
C1069  C     0.79864   0.47537   0.35361   0.00000  Uiso   1.00
C1070  C     0.86360   0.52849   0.64627   0.00000  Uiso   1.00
C1071  C     0.80268   0.47180   0.63848   0.00000  Uiso   1.00
C1072  C     0.86792   0.52477   0.36233   0.00000  Uiso   1.00
C1073  C     0.66796   0.41738   0.47680   0.00000  Uiso   1.00
C1074  C     0.68894   0.52364   0.59791   0.00000  Uiso   1.00
C1075  C     0.87127   0.36990   0.41948   0.00000  Uiso   1.00
C1076  C     0.82936   0.57901   0.49951   0.00000  Uiso   1.00
C1077  C     0.78931   0.62907   0.57373   0.00000  Uiso   1.00
C1078  C     0.76074   0.61324   0.40124   0.00000  Uiso   1.00
C1079  C     0.91681   0.38740   0.58914   0.00000  Uiso   1.00
C1080  C     0.75273   0.45543   0.37024   0.00000  Uiso   1.00
C1081  C     0.88707   0.56711   0.62866   0.00000  Uiso   1.00
C1082  C     0.77360   0.43589   0.61322   0.00000  Uiso   1.00
C1083  C     0.91283   0.54608   0.39056   0.00000  Uiso   1.00
C1084  C     0.73479   0.49907   0.48849   0.00000  Uiso   1.00
C1085  C     0.93182   0.50116   0.51180   0.00000  Uiso   1.00
C1086  C     0.67974   0.49078   0.48511   0.00000  Uiso   1.00
C1087  C     0.98702   0.50753   0.51706   0.00000  Uiso   1.00
C1088  C     0.84351   0.35386   0.45789   0.00000  Uiso   1.00
C1089  C     0.82327   0.64629   0.54000   0.00000  Uiso   1.00
C1090  C     0.82910   0.64508   0.45643   0.00000  Uiso   1.00
Cu1091 Cu    0.83333   0.50001   0.54689   0.00000  Uiso   1.00
Cu1092 Cu    0.83333   0.49999   0.45311   0.00000  Uiso   1.00
H1093  H     0.99724   0.45891   0.42270   0.00000  Uiso   1.00
H1094  H     0.76723   0.62874   0.63763   0.00000  Uiso   1.00
H1095  H     0.83086   0.63625   0.38440   0.00000  Uiso   1.00
H1096  H     0.73977   0.64124   0.39179   0.00000  Uiso   1.00
H1097  H     0.74491   0.59809   0.43101   0.00000  Uiso   1.00
H1098  H     0.75446   0.59109   0.37142   0.00000  Uiso   1.00
H1099  H     0.85656   0.35840   0.61548   0.00000  Uiso   1.00
H1100  H     0.94027   0.36073   0.58478   0.00000  Uiso   1.00
H1101  H     0.92969   0.40190   0.62389   0.00000  Uiso   1.00
H1102  H     0.92341   0.41073   0.56253   0.00000  Uiso   1.00
H1103  H     0.72068   0.40594   0.39945   0.00000  Uiso   1.00
H1104  H     0.98486   0.41382   0.51000   0.00000  Uiso   1.00
H1105  H     0.93163   0.59566   0.58597   0.00000  Uiso   1.00
H1106  H     0.75139   0.37579   0.61549   0.00000  Uiso   1.00
H1107  H     0.98982   0.55036   0.40642   0.00000  Uiso   1.00
H1108  H     0.71003   0.41412   0.48339   0.00000  Uiso   1.00
H1109  H     0.98444   0.39244   0.45250   0.00000  Uiso   1.00
H1110  H     0.99531   0.56573   0.54744   0.00000  Uiso   1.00
H1111  H     0.73069   0.52833   0.60926   0.00000  Uiso   1.00
H1112  H     0.67671   0.49062   0.60140   0.00000  Uiso   1.00
H1113  H     0.66960   0.54201   0.62195   0.00000  Uiso   1.00
H1114  H     0.87435   0.40695   0.36428   0.00000  Uiso   1.00
N1115  N     0.83335   0.50001   0.61736   0.00000  Uiso   1.00
N1116  N     0.83332   0.49999   0.38264   0.00000  Uiso   1.00
N1117  N     0.99022   0.45699   0.45666   0.00000  Uiso   1.00
N1118  N     0.67774   0.53752   0.55034   0.00000  Uiso   1.00
N1119  N     0.81510   0.62421   0.41249   0.00000  Uiso   1.00
N1120  N     0.86301   0.37380   0.58588   0.00000  Uiso   1.00
O1121  O     0.83333   0.43989   0.53958   0.00000  Uiso   1.00
O1122  O     0.85176   0.39998   0.38929   0.00000  Uiso   1.00
O1123  O     0.75383   0.60438   0.55948   0.00000  Uiso   1.00
O1124  O     0.79497   0.64170   0.62030   0.00000  Uiso   1.00
O1125  O     0.71106   0.46893   0.35734   0.00000  Uiso   1.00
O1126  O     0.75563   0.41917   0.39565   0.00000  Uiso   1.00
O1127  O     0.88040   0.59994   0.64704   0.00000  Uiso   1.00
O1128  O     0.91881   0.56689   0.59402   0.00000  Uiso   1.00
O1129  O     0.74357   0.44013   0.57821   0.00000  Uiso   1.00
O1130  O     0.77645   0.39702   0.63320   0.00000  Uiso   1.00
O1131  O     0.90813   0.57670   0.41378   0.00000  Uiso   1.00
O1132  O     0.83334   0.56011   0.46042   0.00000  Uiso   1.00
O1133  O     0.96162   0.53282   0.38703   0.00000  Uiso   1.00
O1134  O     0.83333   0.43988   0.46039   0.00000  Uiso   1.00
O1135  O     0.83334   0.56012   0.53961   0.00000  Uiso   1.00
O1136  O     0.75828   0.50000   0.53046   0.00000  Uiso   1.00
O1137  O     0.90839   0.50000   0.46954   0.00000  Uiso   1.00
O1138  O     0.75828   0.49999   0.45127   0.00000  Uiso   1.00
O1139  O     0.90839   0.50001   0.54873   0.00000  Uiso   1.00
O1140  O     0.91002   0.35360   0.41196   0.00000  Uiso   1.00
C1141  C     0.17148   0.75442   0.50024   0.00000  Uiso   1.00
C1142  C     0.17487   0.68795   0.54234   0.00000  Uiso   1.00
C1143  C     0.15852   0.95738   0.49840   0.00000  Uiso   1.00
C1144  C     0.17679   0.70950   0.50016   0.00000  Uiso   1.00
C1145  C     0.13197   0.80870   0.35361   0.00000  Uiso   1.00
C1146  C     0.19693   0.86182   0.64627   0.00000  Uiso   1.00
C1147  C     0.13601   0.80513   0.63848   0.00000  Uiso   1.00
C1148  C     0.20125   0.85810   0.36233   0.00000  Uiso   1.00
C1149  C     0.00130   0.75072   0.47680   0.00000  Uiso   1.00
C1150  C     0.02228   0.85697   0.59791   0.00000  Uiso   1.00
C1151  C     0.20461   0.70324   0.41948   0.00000  Uiso   1.00
C1152  C     0.16269   0.91235   0.49951   0.00000  Uiso   1.00
C1153  C     0.12265   0.96240   0.57373   0.00000  Uiso   1.00
C1154  C     0.09407   0.94657   0.40124   0.00000  Uiso   1.00
C1155  C     0.25014   0.72074   0.58914   0.00000  Uiso   1.00
C1156  C     0.08606   0.78877   0.37024   0.00000  Uiso   1.00
C1157  C     0.22041   0.90045   0.62866   0.00000  Uiso   1.00
C1158  C     0.10693   0.76922   0.61322   0.00000  Uiso   1.00
C1159  C     0.24617   0.87941   0.39056   0.00000  Uiso   1.00
C1160  C     0.06813   0.83240   0.48849   0.00000  Uiso   1.00
C1161  C     0.26515   0.83450   0.51180   0.00000  Uiso   1.00
C1162  C     0.01307   0.82412   0.48511   0.00000  Uiso   1.00
C1163  C     0.32035   0.84087   0.51706   0.00000  Uiso   1.00
C1164  C     0.17684   0.68719   0.45789   0.00000  Uiso   1.00
C1165  C     0.15660   0.97963   0.54000   0.00000  Uiso   1.00
C1166  C     0.16243   0.97842   0.45643   0.00000  Uiso   1.00
Cu1167 Cu    0.16667   0.83334   0.54689   0.00000  Uiso   1.00
Cu1168 Cu    0.16667   0.83333   0.45311   0.00000  Uiso   1.00
H1169  H     0.33058   0.79224   0.42270   0.00000  Uiso   1.00
H1170  H     0.10056   0.96208   0.63763   0.00000  Uiso   1.00
H1171  H     0.16419   0.96958   0.38440   0.00000  Uiso   1.00
H1172  H     0.07310   0.97457   0.39179   0.00000  Uiso   1.00
H1173  H     0.07824   0.93142   0.43101   0.00000  Uiso   1.00
H1174  H     0.08779   0.92442   0.37142   0.00000  Uiso   1.00
H1175  H     0.18990   0.69173   0.61548   0.00000  Uiso   1.00
H1176  H     0.27360   0.69407   0.58478   0.00000  Uiso   1.00
H1177  H     0.26302   0.73524   0.62389   0.00000  Uiso   1.00
H1178  H     0.25675   0.74406   0.56253   0.00000  Uiso   1.00
H1179  H     0.05401   0.73927   0.39945   0.00000  Uiso   1.00
H1180  H     0.31819   0.74715   0.51000   0.00000  Uiso   1.00
H1181  H     0.26497   0.92899   0.58597   0.00000  Uiso   1.00
H1182  H     0.08472   0.70913   0.61549   0.00000  Uiso   1.00
H1183  H     0.32315   0.88369   0.40642   0.00000  Uiso   1.00
H1184  H     0.04336   0.74745   0.48339   0.00000  Uiso   1.00
H1185  H     0.31777   0.72577   0.45250   0.00000  Uiso   1.00
H1186  H     0.32865   0.89907   0.54744   0.00000  Uiso   1.00
H1187  H     0.06402   0.86167   0.60926   0.00000  Uiso   1.00
H1188  H     0.01004   0.82395   0.60140   0.00000  Uiso   1.00
H1189  H     0.00293   0.87534   0.62195   0.00000  Uiso   1.00
H1190  H     0.20768   0.74028   0.36428   0.00000  Uiso   1.00
N1191  N     0.16668   0.83334   0.61736   0.00000  Uiso   1.00
N1192  N     0.16665   0.83332   0.38264   0.00000  Uiso   1.00
N1193  N     0.32355   0.79032   0.45666   0.00000  Uiso   1.00
N1194  N     0.01107   0.87085   0.55034   0.00000  Uiso   1.00
N1195  N     0.14843   0.95755   0.41249   0.00000  Uiso   1.00
N1196  N     0.19635   0.70713   0.58588   0.00000  Uiso   1.00
O1197  O     0.16666   0.77322   0.53958   0.00000  Uiso   1.00
O1198  O     0.18510   0.73331   0.38929   0.00000  Uiso   1.00
O1199  O     0.08716   0.93772   0.55948   0.00000  Uiso   1.00
O1200  O     0.12830   0.97503   0.62030   0.00000  Uiso   1.00
O1201  O     0.04439   0.80226   0.35734   0.00000  Uiso   1.00
O1202  O     0.08896   0.75251   0.39565   0.00000  Uiso   1.00
O1203  O     0.21374   0.93327   0.64704   0.00000  Uiso   1.00
O1204  O     0.25214   0.90022   0.59402   0.00000  Uiso   1.00
O1205  O     0.07691   0.77346   0.57821   0.00000  Uiso   1.00
O1206  O     0.10978   0.73035   0.63320   0.00000  Uiso   1.00
O1207  O     0.24147   0.91003   0.41378   0.00000  Uiso   1.00
O1208  O     0.16667   0.89345   0.46042   0.00000  Uiso   1.00
O1209  O     0.29495   0.86615   0.38703   0.00000  Uiso   1.00
O1210  O     0.16666   0.77321   0.46039   0.00000  Uiso   1.00
O1211  O     0.16667   0.89346   0.53961   0.00000  Uiso   1.00
O1212  O     0.09161   0.83334   0.53046   0.00000  Uiso   1.00
O1213  O     0.24172   0.83333   0.46954   0.00000  Uiso   1.00
O1214  O     0.09161   0.83333   0.45127   0.00000  Uiso   1.00
O1215  O     0.24172   0.83334   0.54873   0.00000  Uiso   1.00
O1216  O     0.24335   0.68693   0.41196   0.00000  Uiso   1.00
C1217  C     0.50481   0.75442   0.50024   0.00000  Uiso   1.00
C1218  C     0.50820   0.68795   0.54234   0.00000  Uiso   1.00
C1219  C     0.49186   0.95738   0.49840   0.00000  Uiso   1.00
C1220  C     0.51012   0.70950   0.50016   0.00000  Uiso   1.00
C1221  C     0.46530   0.80870   0.35361   0.00000  Uiso   1.00
C1222  C     0.53027   0.86182   0.64627   0.00000  Uiso   1.00
C1223  C     0.46935   0.80513   0.63848   0.00000  Uiso   1.00
C1224  C     0.53458   0.85810   0.36233   0.00000  Uiso   1.00
C1225  C     0.33463   0.75072   0.47680   0.00000  Uiso   1.00
C1226  C     0.35561   0.85697   0.59791   0.00000  Uiso   1.00
C1227  C     0.53794   0.70324   0.41948   0.00000  Uiso   1.00
C1228  C     0.49603   0.91235   0.49951   0.00000  Uiso   1.00
C1229  C     0.45598   0.96240   0.57373   0.00000  Uiso   1.00
C1230  C     0.42741   0.94657   0.40124   0.00000  Uiso   1.00
C1231  C     0.58347   0.72074   0.58914   0.00000  Uiso   1.00
C1232  C     0.41940   0.78877   0.37024   0.00000  Uiso   1.00
C1233  C     0.55374   0.90045   0.62866   0.00000  Uiso   1.00
C1234  C     0.44027   0.76922   0.61322   0.00000  Uiso   1.00
C1235  C     0.57950   0.87941   0.39056   0.00000  Uiso   1.00
C1236  C     0.40146   0.83240   0.48849   0.00000  Uiso   1.00
C1237  C     0.59848   0.83450   0.51180   0.00000  Uiso   1.00
C1238  C     0.34640   0.82412   0.48511   0.00000  Uiso   1.00
C1239  C     0.65369   0.84087   0.51706   0.00000  Uiso   1.00
C1240  C     0.51018   0.68719   0.45789   0.00000  Uiso   1.00
C1241  C     0.48993   0.97963   0.54000   0.00000  Uiso   1.00
C1242  C     0.49577   0.97842   0.45643   0.00000  Uiso   1.00
Cu1243 Cu    0.50000   0.83334   0.54689   0.00000  Uiso   1.00
Cu1244 Cu    0.50000   0.83333   0.45311   0.00000  Uiso   1.00
H1245  H     0.66391   0.79224   0.42270   0.00000  Uiso   1.00
H1246  H     0.43390   0.96208   0.63763   0.00000  Uiso   1.00
H1247  H     0.49753   0.96958   0.38440   0.00000  Uiso   1.00
H1248  H     0.40644   0.97457   0.39179   0.00000  Uiso   1.00
H1249  H     0.41157   0.93142   0.43101   0.00000  Uiso   1.00
H1250  H     0.42113   0.92442   0.37142   0.00000  Uiso   1.00
H1251  H     0.52323   0.69173   0.61548   0.00000  Uiso   1.00
H1252  H     0.60694   0.69407   0.58478   0.00000  Uiso   1.00
H1253  H     0.59635   0.73524   0.62389   0.00000  Uiso   1.00
H1254  H     0.59008   0.74406   0.56253   0.00000  Uiso   1.00
H1255  H     0.38735   0.73927   0.39945   0.00000  Uiso   1.00
H1256  H     0.65152   0.74715   0.51000   0.00000  Uiso   1.00
H1257  H     0.59830   0.92899   0.58597   0.00000  Uiso   1.00
H1258  H     0.41805   0.70913   0.61549   0.00000  Uiso   1.00
H1259  H     0.65648   0.88369   0.40642   0.00000  Uiso   1.00
H1260  H     0.37669   0.74745   0.48339   0.00000  Uiso   1.00
H1261  H     0.65111   0.72577   0.45250   0.00000  Uiso   1.00
H1262  H     0.66198   0.89907   0.54744   0.00000  Uiso   1.00
H1263  H     0.39735   0.86167   0.60926   0.00000  Uiso   1.00
H1264  H     0.34338   0.82395   0.60140   0.00000  Uiso   1.00
H1265  H     0.33626   0.87534   0.62195   0.00000  Uiso   1.00
H1266  H     0.54101   0.74028   0.36428   0.00000  Uiso   1.00
N1267  N     0.50001   0.83334   0.61736   0.00000  Uiso   1.00
N1268  N     0.49999   0.83332   0.38264   0.00000  Uiso   1.00
N1269  N     0.65688   0.79032   0.45666   0.00000  Uiso   1.00
N1270  N     0.34440   0.87085   0.55034   0.00000  Uiso   1.00
N1271  N     0.48177   0.95755   0.41249   0.00000  Uiso   1.00
N1272  N     0.52968   0.70713   0.58588   0.00000  Uiso   1.00
O1273  O     0.50000   0.77322   0.53958   0.00000  Uiso   1.00
O1274  O     0.51843   0.73331   0.38929   0.00000  Uiso   1.00
O1275  O     0.42050   0.93772   0.55948   0.00000  Uiso   1.00
O1276  O     0.46163   0.97503   0.62030   0.00000  Uiso   1.00
O1277  O     0.37773   0.80226   0.35734   0.00000  Uiso   1.00
O1278  O     0.42229   0.75251   0.39565   0.00000  Uiso   1.00
O1279  O     0.54707   0.93327   0.64704   0.00000  Uiso   1.00
O1280  O     0.58548   0.90022   0.59402   0.00000  Uiso   1.00
O1281  O     0.41024   0.77346   0.57821   0.00000  Uiso   1.00
O1282  O     0.44311   0.73035   0.63320   0.00000  Uiso   1.00
O1283  O     0.57480   0.91003   0.41378   0.00000  Uiso   1.00
O1284  O     0.50000   0.89345   0.46042   0.00000  Uiso   1.00
O1285  O     0.62829   0.86615   0.38703   0.00000  Uiso   1.00
O1286  O     0.50000   0.77321   0.46039   0.00000  Uiso   1.00
O1287  O     0.50000   0.89346   0.53961   0.00000  Uiso   1.00
O1288  O     0.42495   0.83334   0.53046   0.00000  Uiso   1.00
O1289  O     0.57505   0.83333   0.46954   0.00000  Uiso   1.00
O1290  O     0.42494   0.83333   0.45127   0.00000  Uiso   1.00
O1291  O     0.57506   0.83334   0.54873   0.00000  Uiso   1.00
O1292  O     0.57669   0.68693   0.41196   0.00000  Uiso   1.00
C1293  C     0.83815   0.75442   0.50024   0.00000  Uiso   1.00
C1294  C     0.84154   0.68795   0.54234   0.00000  Uiso   1.00
C1295  C     0.82519   0.95738   0.49840   0.00000  Uiso   1.00
C1296  C     0.84346   0.70950   0.50016   0.00000  Uiso   1.00
C1297  C     0.79864   0.80870   0.35361   0.00000  Uiso   1.00
C1298  C     0.86360   0.86182   0.64627   0.00000  Uiso   1.00
C1299  C     0.80268   0.80513   0.63848   0.00000  Uiso   1.00
C1300  C     0.86792   0.85810   0.36233   0.00000  Uiso   1.00
C1301  C     0.66796   0.75072   0.47680   0.00000  Uiso   1.00
C1302  C     0.68894   0.85697   0.59791   0.00000  Uiso   1.00
C1303  C     0.87127   0.70324   0.41948   0.00000  Uiso   1.00
C1304  C     0.82936   0.91235   0.49951   0.00000  Uiso   1.00
C1305  C     0.78931   0.96240   0.57373   0.00000  Uiso   1.00
C1306  C     0.76074   0.94657   0.40124   0.00000  Uiso   1.00
C1307  C     0.91681   0.72074   0.58914   0.00000  Uiso   1.00
C1308  C     0.75273   0.78877   0.37024   0.00000  Uiso   1.00
C1309  C     0.88707   0.90045   0.62866   0.00000  Uiso   1.00
C1310  C     0.77360   0.76922   0.61322   0.00000  Uiso   1.00
C1311  C     0.91283   0.87941   0.39056   0.00000  Uiso   1.00
C1312  C     0.73479   0.83240   0.48849   0.00000  Uiso   1.00
C1313  C     0.93182   0.83450   0.51180   0.00000  Uiso   1.00
C1314  C     0.67974   0.82412   0.48511   0.00000  Uiso   1.00
C1315  C     0.98702   0.84087   0.51706   0.00000  Uiso   1.00
C1316  C     0.84351   0.68719   0.45789   0.00000  Uiso   1.00
C1317  C     0.82327   0.97963   0.54000   0.00000  Uiso   1.00
C1318  C     0.82910   0.97842   0.45643   0.00000  Uiso   1.00
Cu1319 Cu    0.83333   0.83334   0.54689   0.00000  Uiso   1.00
Cu1320 Cu    0.83333   0.83333   0.45311   0.00000  Uiso   1.00
H1321  H     0.99724   0.79224   0.42270   0.00000  Uiso   1.00
H1322  H     0.76723   0.96208   0.63763   0.00000  Uiso   1.00
H1323  H     0.83086   0.96958   0.38440   0.00000  Uiso   1.00
H1324  H     0.73977   0.97457   0.39179   0.00000  Uiso   1.00
H1325  H     0.74491   0.93142   0.43101   0.00000  Uiso   1.00
H1326  H     0.75446   0.92442   0.37142   0.00000  Uiso   1.00
H1327  H     0.85656   0.69173   0.61548   0.00000  Uiso   1.00
H1328  H     0.94027   0.69407   0.58478   0.00000  Uiso   1.00
H1329  H     0.92969   0.73524   0.62389   0.00000  Uiso   1.00
H1330  H     0.92341   0.74406   0.56253   0.00000  Uiso   1.00
H1331  H     0.72068   0.73927   0.39945   0.00000  Uiso   1.00
H1332  H     0.98486   0.74715   0.51000   0.00000  Uiso   1.00
H1333  H     0.93163   0.92899   0.58597   0.00000  Uiso   1.00
H1334  H     0.75139   0.70913   0.61549   0.00000  Uiso   1.00
H1335  H     0.98982   0.88369   0.40642   0.00000  Uiso   1.00
H1336  H     0.71003   0.74745   0.48339   0.00000  Uiso   1.00
H1337  H     0.98444   0.72577   0.45250   0.00000  Uiso   1.00
H1338  H     0.99531   0.89907   0.54744   0.00000  Uiso   1.00
H1339  H     0.73069   0.86167   0.60926   0.00000  Uiso   1.00
H1340  H     0.67671   0.82395   0.60140   0.00000  Uiso   1.00
H1341  H     0.66960   0.87534   0.62195   0.00000  Uiso   1.00
H1342  H     0.87435   0.74028   0.36428   0.00000  Uiso   1.00
N1343  N     0.83335   0.83334   0.61736   0.00000  Uiso   1.00
N1344  N     0.83332   0.83332   0.38264   0.00000  Uiso   1.00
N1345  N     0.99022   0.79032   0.45666   0.00000  Uiso   1.00
N1346  N     0.67774   0.87085   0.55034   0.00000  Uiso   1.00
N1347  N     0.81510   0.95755   0.41249   0.00000  Uiso   1.00
N1348  N     0.86301   0.70713   0.58588   0.00000  Uiso   1.00
O1349  O     0.83333   0.77322   0.53958   0.00000  Uiso   1.00
O1350  O     0.85176   0.73331   0.38929   0.00000  Uiso   1.00
O1351  O     0.75383   0.93772   0.55948   0.00000  Uiso   1.00
O1352  O     0.79497   0.97503   0.62030   0.00000  Uiso   1.00
O1353  O     0.71106   0.80226   0.35734   0.00000  Uiso   1.00
O1354  O     0.75563   0.75251   0.39565   0.00000  Uiso   1.00
O1355  O     0.88040   0.93327   0.64704   0.00000  Uiso   1.00
O1356  O     0.91881   0.90022   0.59402   0.00000  Uiso   1.00
O1357  O     0.74357   0.77346   0.57821   0.00000  Uiso   1.00
O1358  O     0.77645   0.73035   0.63320   0.00000  Uiso   1.00
O1359  O     0.90813   0.91003   0.41378   0.00000  Uiso   1.00
O1360  O     0.83334   0.89345   0.46042   0.00000  Uiso   1.00
O1361  O     0.96162   0.86615   0.38703   0.00000  Uiso   1.00
O1362  O     0.83333   0.77321   0.46039   0.00000  Uiso   1.00
O1363  O     0.83334   0.89346   0.53961   0.00000  Uiso   1.00
O1364  O     0.75828   0.83334   0.53046   0.00000  Uiso   1.00
O1365  O     0.90839   0.83333   0.46954   0.00000  Uiso   1.00
O1366  O     0.75828   0.83333   0.45127   0.00000  Uiso   1.00
O1367  O     0.90839   0.83334   0.54873   0.00000  Uiso   1.00
O1368  O     0.91002   0.68693   0.41196   0.00000  Uiso   1.00
C1369  C     0.17148   0.08775   0.83357   0.00000  Uiso   1.00
C1370  C     0.17487   0.02129   0.87568   0.00000  Uiso   1.00
C1371  C     0.15852   0.29071   0.83174   0.00000  Uiso   1.00
C1372  C     0.17679   0.04283   0.83349   0.00000  Uiso   1.00
C1373  C     0.13197   0.14203   0.68694   0.00000  Uiso   1.00
C1374  C     0.19693   0.19515   0.97961   0.00000  Uiso   1.00
C1375  C     0.13601   0.13846   0.97181   0.00000  Uiso   1.00
C1376  C     0.20125   0.19144   0.69567   0.00000  Uiso   1.00
C1377  C     0.00130   0.08405   0.81014   0.00000  Uiso   1.00
C1378  C     0.02228   0.19030   0.93125   0.00000  Uiso   1.00
C1379  C     0.20461   0.03657   0.75281   0.00000  Uiso   1.00
C1380  C     0.16269   0.24568   0.83284   0.00000  Uiso   1.00
C1381  C     0.12265   0.29573   0.90706   0.00000  Uiso   1.00
C1382  C     0.09407   0.27991   0.73457   0.00000  Uiso   1.00
C1383  C     0.25014   0.05407   0.92248   0.00000  Uiso   1.00
C1384  C     0.08606   0.12210   0.70358   0.00000  Uiso   1.00
C1385  C     0.22041   0.23378   0.96199   0.00000  Uiso   1.00
C1386  C     0.10693   0.10256   0.94655   0.00000  Uiso   1.00
C1387  C     0.24617   0.21275   0.72390   0.00000  Uiso   1.00
C1388  C     0.06813   0.16574   0.82182   0.00000  Uiso   1.00
C1389  C     0.26515   0.16783   0.84514   0.00000  Uiso   1.00
C1390  C     0.01307   0.15745   0.81845   0.00000  Uiso   1.00
C1391  C     0.32035   0.17420   0.85039   0.00000  Uiso   1.00
C1392  C     0.17684   0.02053   0.79123   0.00000  Uiso   1.00
C1393  C     0.15660   0.31296   0.87333   0.00000  Uiso   1.00
C1394  C     0.16243   0.31175   0.78976   0.00000  Uiso   1.00
Cu1395 Cu    0.16667   0.16667   0.88022   0.00000  Uiso   1.00
Cu1396 Cu    0.16667   0.16666   0.78645   0.00000  Uiso   1.00
H1397  H     0.33058   0.12557   0.75604   0.00000  Uiso   1.00
H1398  H     0.10056   0.29541   0.97096   0.00000  Uiso   1.00
H1399  H     0.16419   0.30291   0.71774   0.00000  Uiso   1.00
H1400  H     0.07310   0.30791   0.72513   0.00000  Uiso   1.00
H1401  H     0.07824   0.26476   0.76435   0.00000  Uiso   1.00
H1402  H     0.08779   0.25776   0.70476   0.00000  Uiso   1.00
H1403  H     0.18990   0.02507   0.94882   0.00000  Uiso   1.00
H1404  H     0.27360   0.02740   0.91811   0.00000  Uiso   1.00
H1405  H     0.26302   0.06857   0.95722   0.00000  Uiso   1.00
H1406  H     0.25675   0.07739   0.89586   0.00000  Uiso   1.00
H1407  H     0.05401   0.07261   0.73279   0.00000  Uiso   1.00
H1408  H     0.31819   0.08048   0.84333   0.00000  Uiso   1.00
H1409  H     0.26497   0.26233   0.91931   0.00000  Uiso   1.00
H1410  H     0.08472   0.04246   0.94883   0.00000  Uiso   1.00
H1411  H     0.32315   0.21703   0.73975   0.00000  Uiso   1.00
H1412  H     0.04336   0.08078   0.81673   0.00000  Uiso   1.00
H1413  H     0.31777   0.05911   0.78583   0.00000  Uiso   1.00
H1414  H     0.32865   0.23240   0.88077   0.00000  Uiso   1.00
H1415  H     0.06402   0.19500   0.94259   0.00000  Uiso   1.00
H1416  H     0.01004   0.15729   0.93474   0.00000  Uiso   1.00
H1417  H     0.00293   0.20868   0.95528   0.00000  Uiso   1.00
H1418  H     0.20768   0.07361   0.69761   0.00000  Uiso   1.00
N1419  N     0.16668   0.16668   0.95069   0.00000  Uiso   1.00
N1420  N     0.16665   0.16666   0.71597   0.00000  Uiso   1.00
N1421  N     0.32355   0.12366   0.79000   0.00000  Uiso   1.00
N1422  N     0.01107   0.20418   0.88368   0.00000  Uiso   1.00
N1423  N     0.14843   0.29088   0.74583   0.00000  Uiso   1.00
N1424  N     0.19635   0.04046   0.91922   0.00000  Uiso   1.00
O1425  O     0.16666   0.10655   0.87291   0.00000  Uiso   1.00
O1426  O     0.18510   0.06664   0.72263   0.00000  Uiso   1.00
O1427  O     0.08716   0.27105   0.89281   0.00000  Uiso   1.00
O1428  O     0.12830   0.30837   0.95363   0.00000  Uiso   1.00
O1429  O     0.04439   0.13559   0.69067   0.00000  Uiso   1.00
O1430  O     0.08896   0.08584   0.72898   0.00000  Uiso   1.00
O1431  O     0.21374   0.26660   0.98037   0.00000  Uiso   1.00
O1432  O     0.25214   0.23355   0.92736   0.00000  Uiso   1.00
O1433  O     0.07691   0.10680   0.91154   0.00000  Uiso   1.00
O1434  O     0.10978   0.06368   0.96654   0.00000  Uiso   1.00
O1435  O     0.24147   0.24336   0.74712   0.00000  Uiso   1.00
O1436  O     0.16667   0.22678   0.79375   0.00000  Uiso   1.00
O1437  O     0.29495   0.19949   0.72036   0.00000  Uiso   1.00
O1438  O     0.16666   0.10654   0.79372   0.00000  Uiso   1.00
O1439  O     0.16667   0.22679   0.87294   0.00000  Uiso   1.00
O1440  O     0.09161   0.16667   0.86379   0.00000  Uiso   1.00
O1441  O     0.24172   0.16666   0.80288   0.00000  Uiso   1.00
O1442  O     0.09161   0.16666   0.78460   0.00000  Uiso   1.00
O1443  O     0.24172   0.16667   0.88207   0.00000  Uiso   1.00
O1444  O     0.24335   0.02027   0.74529   0.00000  Uiso   1.00
C1445  C     0.50481   0.08775   0.83357   0.00000  Uiso   1.00
C1446  C     0.50820   0.02129   0.87568   0.00000  Uiso   1.00
C1447  C     0.49186   0.29071   0.83174   0.00000  Uiso   1.00
C1448  C     0.51012   0.04283   0.83349   0.00000  Uiso   1.00
C1449  C     0.46530   0.14203   0.68694   0.00000  Uiso   1.00
C1450  C     0.53027   0.19515   0.97961   0.00000  Uiso   1.00
C1451  C     0.46935   0.13846   0.97181   0.00000  Uiso   1.00
C1452  C     0.53458   0.19144   0.69567   0.00000  Uiso   1.00
C1453  C     0.33463   0.08405   0.81014   0.00000  Uiso   1.00
C1454  C     0.35561   0.19030   0.93125   0.00000  Uiso   1.00
C1455  C     0.53794   0.03657   0.75281   0.00000  Uiso   1.00
C1456  C     0.49603   0.24568   0.83284   0.00000  Uiso   1.00
C1457  C     0.45598   0.29573   0.90706   0.00000  Uiso   1.00
C1458  C     0.42741   0.27991   0.73457   0.00000  Uiso   1.00
C1459  C     0.58347   0.05407   0.92248   0.00000  Uiso   1.00
C1460  C     0.41940   0.12210   0.70358   0.00000  Uiso   1.00
C1461  C     0.55374   0.23378   0.96199   0.00000  Uiso   1.00
C1462  C     0.44027   0.10256   0.94655   0.00000  Uiso   1.00
C1463  C     0.57950   0.21275   0.72390   0.00000  Uiso   1.00
C1464  C     0.40146   0.16574   0.82182   0.00000  Uiso   1.00
C1465  C     0.59848   0.16783   0.84514   0.00000  Uiso   1.00
C1466  C     0.34640   0.15745   0.81845   0.00000  Uiso   1.00
C1467  C     0.65369   0.17420   0.85039   0.00000  Uiso   1.00
C1468  C     0.51018   0.02053   0.79123   0.00000  Uiso   1.00
C1469  C     0.48993   0.31296   0.87333   0.00000  Uiso   1.00
C1470  C     0.49577   0.31175   0.78976   0.00000  Uiso   1.00
Cu1471 Cu    0.50000   0.16667   0.88022   0.00000  Uiso   1.00
Cu1472 Cu    0.50000   0.16666   0.78645   0.00000  Uiso   1.00
H1473  H     0.66391   0.12557   0.75604   0.00000  Uiso   1.00
H1474  H     0.43390   0.29541   0.97096   0.00000  Uiso   1.00
H1475  H     0.49753   0.30291   0.71774   0.00000  Uiso   1.00
H1476  H     0.40644   0.30791   0.72513   0.00000  Uiso   1.00
H1477  H     0.41157   0.26476   0.76435   0.00000  Uiso   1.00
H1478  H     0.42113   0.25776   0.70476   0.00000  Uiso   1.00
H1479  H     0.52323   0.02507   0.94882   0.00000  Uiso   1.00
H1480  H     0.60694   0.02740   0.91811   0.00000  Uiso   1.00
H1481  H     0.59635   0.06857   0.95722   0.00000  Uiso   1.00
H1482  H     0.59008   0.07739   0.89586   0.00000  Uiso   1.00
H1483  H     0.38735   0.07261   0.73279   0.00000  Uiso   1.00
H1484  H     0.65152   0.08048   0.84333   0.00000  Uiso   1.00
H1485  H     0.59830   0.26233   0.91931   0.00000  Uiso   1.00
H1486  H     0.41805   0.04246   0.94883   0.00000  Uiso   1.00
H1487  H     0.65648   0.21703   0.73975   0.00000  Uiso   1.00
H1488  H     0.37669   0.08078   0.81673   0.00000  Uiso   1.00
H1489  H     0.65111   0.05911   0.78583   0.00000  Uiso   1.00
H1490  H     0.66198   0.23240   0.88077   0.00000  Uiso   1.00
H1491  H     0.39735   0.19500   0.94259   0.00000  Uiso   1.00
H1492  H     0.34338   0.15729   0.93474   0.00000  Uiso   1.00
H1493  H     0.33626   0.20868   0.95528   0.00000  Uiso   1.00
H1494  H     0.54101   0.07361   0.69761   0.00000  Uiso   1.00
N1495  N     0.50001   0.16668   0.95069   0.00000  Uiso   1.00
N1496  N     0.49999   0.16666   0.71597   0.00000  Uiso   1.00
N1497  N     0.65688   0.12366   0.79000   0.00000  Uiso   1.00
N1498  N     0.34440   0.20418   0.88368   0.00000  Uiso   1.00
N1499  N     0.48177   0.29088   0.74583   0.00000  Uiso   1.00
N1500  N     0.52968   0.04046   0.91922   0.00000  Uiso   1.00
O1501  O     0.50000   0.10655   0.87291   0.00000  Uiso   1.00
O1502  O     0.51843   0.06664   0.72263   0.00000  Uiso   1.00
O1503  O     0.42050   0.27105   0.89281   0.00000  Uiso   1.00
O1504  O     0.46163   0.30837   0.95363   0.00000  Uiso   1.00
O1505  O     0.37773   0.13559   0.69067   0.00000  Uiso   1.00
O1506  O     0.42229   0.08584   0.72898   0.00000  Uiso   1.00
O1507  O     0.54707   0.26660   0.98037   0.00000  Uiso   1.00
O1508  O     0.58548   0.23355   0.92736   0.00000  Uiso   1.00
O1509  O     0.41024   0.10680   0.91154   0.00000  Uiso   1.00
O1510  O     0.44311   0.06368   0.96654   0.00000  Uiso   1.00
O1511  O     0.57480   0.24336   0.74712   0.00000  Uiso   1.00
O1512  O     0.50000   0.22678   0.79375   0.00000  Uiso   1.00
O1513  O     0.62829   0.19949   0.72036   0.00000  Uiso   1.00
O1514  O     0.50000   0.10654   0.79372   0.00000  Uiso   1.00
O1515  O     0.50000   0.22679   0.87294   0.00000  Uiso   1.00
O1516  O     0.42495   0.16667   0.86379   0.00000  Uiso   1.00
O1517  O     0.57505   0.16666   0.80288   0.00000  Uiso   1.00
O1518  O     0.42494   0.16666   0.78460   0.00000  Uiso   1.00
O1519  O     0.57506   0.16667   0.88207   0.00000  Uiso   1.00
O1520  O     0.57669   0.02027   0.74529   0.00000  Uiso   1.00
C1521  C     0.83815   0.08775   0.83357   0.00000  Uiso   1.00
C1522  C     0.84154   0.02129   0.87568   0.00000  Uiso   1.00
C1523  C     0.82519   0.29071   0.83174   0.00000  Uiso   1.00
C1524  C     0.84346   0.04283   0.83349   0.00000  Uiso   1.00
C1525  C     0.79864   0.14203   0.68694   0.00000  Uiso   1.00
C1526  C     0.86360   0.19515   0.97961   0.00000  Uiso   1.00
C1527  C     0.80268   0.13846   0.97181   0.00000  Uiso   1.00
C1528  C     0.86792   0.19144   0.69567   0.00000  Uiso   1.00
C1529  C     0.66796   0.08405   0.81014   0.00000  Uiso   1.00
C1530  C     0.68894   0.19030   0.93125   0.00000  Uiso   1.00
C1531  C     0.87127   0.03657   0.75281   0.00000  Uiso   1.00
C1532  C     0.82936   0.24568   0.83284   0.00000  Uiso   1.00
C1533  C     0.78931   0.29573   0.90706   0.00000  Uiso   1.00
C1534  C     0.76074   0.27991   0.73457   0.00000  Uiso   1.00
C1535  C     0.91681   0.05407   0.92248   0.00000  Uiso   1.00
C1536  C     0.75273   0.12210   0.70358   0.00000  Uiso   1.00
C1537  C     0.88707   0.23378   0.96199   0.00000  Uiso   1.00
C1538  C     0.77360   0.10256   0.94655   0.00000  Uiso   1.00
C1539  C     0.91283   0.21275   0.72390   0.00000  Uiso   1.00
C1540  C     0.73479   0.16574   0.82182   0.00000  Uiso   1.00
C1541  C     0.93182   0.16783   0.84514   0.00000  Uiso   1.00
C1542  C     0.67974   0.15745   0.81845   0.00000  Uiso   1.00
C1543  C     0.98702   0.17420   0.85039   0.00000  Uiso   1.00
C1544  C     0.84351   0.02053   0.79123   0.00000  Uiso   1.00
C1545  C     0.82327   0.31296   0.87333   0.00000  Uiso   1.00
C1546  C     0.82910   0.31175   0.78976   0.00000  Uiso   1.00
Cu1547 Cu    0.83333   0.16667   0.88022   0.00000  Uiso   1.00
Cu1548 Cu    0.83333   0.16666   0.78645   0.00000  Uiso   1.00
H1549  H     0.99724   0.12557   0.75604   0.00000  Uiso   1.00
H1550  H     0.76723   0.29541   0.97096   0.00000  Uiso   1.00
H1551  H     0.83086   0.30291   0.71774   0.00000  Uiso   1.00
H1552  H     0.73977   0.30791   0.72513   0.00000  Uiso   1.00
H1553  H     0.74491   0.26476   0.76435   0.00000  Uiso   1.00
H1554  H     0.75446   0.25776   0.70476   0.00000  Uiso   1.00
H1555  H     0.85656   0.02507   0.94882   0.00000  Uiso   1.00
H1556  H     0.94027   0.02740   0.91811   0.00000  Uiso   1.00
H1557  H     0.92969   0.06857   0.95722   0.00000  Uiso   1.00
H1558  H     0.92341   0.07739   0.89586   0.00000  Uiso   1.00
H1559  H     0.72068   0.07261   0.73279   0.00000  Uiso   1.00
H1560  H     0.98486   0.08048   0.84333   0.00000  Uiso   1.00
H1561  H     0.93163   0.26233   0.91931   0.00000  Uiso   1.00
H1562  H     0.75139   0.04246   0.94883   0.00000  Uiso   1.00
H1563  H     0.98982   0.21703   0.73975   0.00000  Uiso   1.00
H1564  H     0.71003   0.08078   0.81673   0.00000  Uiso   1.00
H1565  H     0.98444   0.05911   0.78583   0.00000  Uiso   1.00
H1566  H     0.99531   0.23240   0.88077   0.00000  Uiso   1.00
H1567  H     0.73069   0.19500   0.94259   0.00000  Uiso   1.00
H1568  H     0.67671   0.15729   0.93474   0.00000  Uiso   1.00
H1569  H     0.66960   0.20868   0.95528   0.00000  Uiso   1.00
H1570  H     0.87435   0.07361   0.69761   0.00000  Uiso   1.00
N1571  N     0.83335   0.16668   0.95069   0.00000  Uiso   1.00
N1572  N     0.83332   0.16666   0.71597   0.00000  Uiso   1.00
N1573  N     0.99022   0.12366   0.79000   0.00000  Uiso   1.00
N1574  N     0.67774   0.20418   0.88368   0.00000  Uiso   1.00
N1575  N     0.81510   0.29088   0.74583   0.00000  Uiso   1.00
N1576  N     0.86301   0.04046   0.91922   0.00000  Uiso   1.00
O1577  O     0.83333   0.10655   0.87291   0.00000  Uiso   1.00
O1578  O     0.85176   0.06664   0.72263   0.00000  Uiso   1.00
O1579  O     0.75383   0.27105   0.89281   0.00000  Uiso   1.00
O1580  O     0.79497   0.30837   0.95363   0.00000  Uiso   1.00
O1581  O     0.71106   0.13559   0.69067   0.00000  Uiso   1.00
O1582  O     0.75563   0.08584   0.72898   0.00000  Uiso   1.00
O1583  O     0.88040   0.26660   0.98037   0.00000  Uiso   1.00
O1584  O     0.91881   0.23355   0.92736   0.00000  Uiso   1.00
O1585  O     0.74357   0.10680   0.91154   0.00000  Uiso   1.00
O1586  O     0.77645   0.06368   0.96654   0.00000  Uiso   1.00
O1587  O     0.90813   0.24336   0.74712   0.00000  Uiso   1.00
O1588  O     0.83334   0.22678   0.79375   0.00000  Uiso   1.00
O1589  O     0.96162   0.19949   0.72036   0.00000  Uiso   1.00
O1590  O     0.83333   0.10654   0.79372   0.00000  Uiso   1.00
O1591  O     0.83334   0.22679   0.87294   0.00000  Uiso   1.00
O1592  O     0.75828   0.16667   0.86379   0.00000  Uiso   1.00
O1593  O     0.90839   0.16666   0.80288   0.00000  Uiso   1.00
O1594  O     0.75828   0.16666   0.78460   0.00000  Uiso   1.00
O1595  O     0.90839   0.16667   0.88207   0.00000  Uiso   1.00
O1596  O     0.91002   0.02027   0.74529   0.00000  Uiso   1.00
C1597  C     0.17148   0.42108   0.83357   0.00000  Uiso   1.00
C1598  C     0.17487   0.35462   0.87568   0.00000  Uiso   1.00
C1599  C     0.15852   0.62405   0.83174   0.00000  Uiso   1.00
C1600  C     0.17679   0.37616   0.83349   0.00000  Uiso   1.00
C1601  C     0.13197   0.47537   0.68694   0.00000  Uiso   1.00
C1602  C     0.19693   0.52849   0.97961   0.00000  Uiso   1.00
C1603  C     0.13601   0.47180   0.97181   0.00000  Uiso   1.00
C1604  C     0.20125   0.52477   0.69567   0.00000  Uiso   1.00
C1605  C     0.00130   0.41738   0.81014   0.00000  Uiso   1.00
C1606  C     0.02228   0.52364   0.93125   0.00000  Uiso   1.00
C1607  C     0.20461   0.36990   0.75281   0.00000  Uiso   1.00
C1608  C     0.16269   0.57901   0.83284   0.00000  Uiso   1.00
C1609  C     0.12265   0.62907   0.90706   0.00000  Uiso   1.00
C1610  C     0.09407   0.61324   0.73457   0.00000  Uiso   1.00
C1611  C     0.25014   0.38740   0.92248   0.00000  Uiso   1.00
C1612  C     0.08606   0.45543   0.70358   0.00000  Uiso   1.00
C1613  C     0.22041   0.56711   0.96199   0.00000  Uiso   1.00
C1614  C     0.10693   0.43589   0.94655   0.00000  Uiso   1.00
C1615  C     0.24617   0.54608   0.72390   0.00000  Uiso   1.00
C1616  C     0.06813   0.49907   0.82182   0.00000  Uiso   1.00
C1617  C     0.26515   0.50116   0.84514   0.00000  Uiso   1.00
C1618  C     0.01307   0.49078   0.81845   0.00000  Uiso   1.00
C1619  C     0.32035   0.50753   0.85039   0.00000  Uiso   1.00
C1620  C     0.17684   0.35386   0.79123   0.00000  Uiso   1.00
C1621  C     0.15660   0.64629   0.87333   0.00000  Uiso   1.00
C1622  C     0.16243   0.64508   0.78976   0.00000  Uiso   1.00
Cu1623 Cu    0.16667   0.50001   0.88022   0.00000  Uiso   1.00
Cu1624 Cu    0.16667   0.49999   0.78645   0.00000  Uiso   1.00
H1625  H     0.33058   0.45891   0.75604   0.00000  Uiso   1.00
H1626  H     0.10056   0.62874   0.97096   0.00000  Uiso   1.00
H1627  H     0.16419   0.63625   0.71774   0.00000  Uiso   1.00
H1628  H     0.07310   0.64124   0.72513   0.00000  Uiso   1.00
H1629  H     0.07824   0.59809   0.76435   0.00000  Uiso   1.00
H1630  H     0.08779   0.59109   0.70476   0.00000  Uiso   1.00
H1631  H     0.18990   0.35840   0.94882   0.00000  Uiso   1.00
H1632  H     0.27360   0.36073   0.91811   0.00000  Uiso   1.00
H1633  H     0.26302   0.40190   0.95722   0.00000  Uiso   1.00
H1634  H     0.25675   0.41073   0.89586   0.00000  Uiso   1.00
H1635  H     0.05401   0.40594   0.73279   0.00000  Uiso   1.00
H1636  H     0.31819   0.41382   0.84333   0.00000  Uiso   1.00
H1637  H     0.26497   0.59566   0.91931   0.00000  Uiso   1.00
H1638  H     0.08472   0.37579   0.94883   0.00000  Uiso   1.00
H1639  H     0.32315   0.55036   0.73975   0.00000  Uiso   1.00
H1640  H     0.04336   0.41412   0.81673   0.00000  Uiso   1.00
H1641  H     0.31777   0.39244   0.78583   0.00000  Uiso   1.00
H1642  H     0.32865   0.56573   0.88077   0.00000  Uiso   1.00
H1643  H     0.06402   0.52833   0.94259   0.00000  Uiso   1.00
H1644  H     0.01004   0.49062   0.93474   0.00000  Uiso   1.00
H1645  H     0.00293   0.54201   0.95528   0.00000  Uiso   1.00
H1646  H     0.20768   0.40695   0.69761   0.00000  Uiso   1.00
N1647  N     0.16668   0.50001   0.95069   0.00000  Uiso   1.00
N1648  N     0.16665   0.49999   0.71597   0.00000  Uiso   1.00
N1649  N     0.32355   0.45699   0.79000   0.00000  Uiso   1.00
N1650  N     0.01107   0.53752   0.88368   0.00000  Uiso   1.00
N1651  N     0.14843   0.62421   0.74583   0.00000  Uiso   1.00
N1652  N     0.19635   0.37380   0.91922   0.00000  Uiso   1.00
O1653  O     0.16666   0.43989   0.87291   0.00000  Uiso   1.00
O1654  O     0.18510   0.39998   0.72263   0.00000  Uiso   1.00
O1655  O     0.08716   0.60438   0.89281   0.00000  Uiso   1.00
O1656  O     0.12830   0.64170   0.95363   0.00000  Uiso   1.00
O1657  O     0.04439   0.46893   0.69067   0.00000  Uiso   1.00
O1658  O     0.08896   0.41917   0.72898   0.00000  Uiso   1.00
O1659  O     0.21374   0.59994   0.98037   0.00000  Uiso   1.00
O1660  O     0.25214   0.56689   0.92736   0.00000  Uiso   1.00
O1661  O     0.07691   0.44013   0.91154   0.00000  Uiso   1.00
O1662  O     0.10978   0.39702   0.96654   0.00000  Uiso   1.00
O1663  O     0.24147   0.57670   0.74712   0.00000  Uiso   1.00
O1664  O     0.16667   0.56011   0.79375   0.00000  Uiso   1.00
O1665  O     0.29495   0.53282   0.72036   0.00000  Uiso   1.00
O1666  O     0.16666   0.43988   0.79372   0.00000  Uiso   1.00
O1667  O     0.16667   0.56012   0.87294   0.00000  Uiso   1.00
O1668  O     0.09161   0.50000   0.86379   0.00000  Uiso   1.00
O1669  O     0.24172   0.50000   0.80288   0.00000  Uiso   1.00
O1670  O     0.09161   0.49999   0.78460   0.00000  Uiso   1.00
O1671  O     0.24172   0.50001   0.88207   0.00000  Uiso   1.00
O1672  O     0.24335   0.35360   0.74529   0.00000  Uiso   1.00
C1673  C     0.50481   0.42108   0.83357   0.00000  Uiso   1.00
C1674  C     0.50820   0.35462   0.87568   0.00000  Uiso   1.00
C1675  C     0.49186   0.62405   0.83174   0.00000  Uiso   1.00
C1676  C     0.51012   0.37616   0.83349   0.00000  Uiso   1.00
C1677  C     0.46530   0.47537   0.68694   0.00000  Uiso   1.00
C1678  C     0.53027   0.52849   0.97961   0.00000  Uiso   1.00
C1679  C     0.46935   0.47180   0.97181   0.00000  Uiso   1.00
C1680  C     0.53458   0.52477   0.69567   0.00000  Uiso   1.00
C1681  C     0.33463   0.41738   0.81014   0.00000  Uiso   1.00
C1682  C     0.35561   0.52364   0.93125   0.00000  Uiso   1.00
C1683  C     0.53794   0.36990   0.75281   0.00000  Uiso   1.00
C1684  C     0.49603   0.57901   0.83284   0.00000  Uiso   1.00
C1685  C     0.45598   0.62907   0.90706   0.00000  Uiso   1.00
C1686  C     0.42741   0.61324   0.73457   0.00000  Uiso   1.00
C1687  C     0.58347   0.38740   0.92248   0.00000  Uiso   1.00
C1688  C     0.41940   0.45543   0.70358   0.00000  Uiso   1.00
C1689  C     0.55374   0.56711   0.96199   0.00000  Uiso   1.00
C1690  C     0.44027   0.43589   0.94655   0.00000  Uiso   1.00
C1691  C     0.57950   0.54608   0.72390   0.00000  Uiso   1.00
C1692  C     0.40146   0.49907   0.82182   0.00000  Uiso   1.00
C1693  C     0.59848   0.50116   0.84514   0.00000  Uiso   1.00
C1694  C     0.34640   0.49078   0.81845   0.00000  Uiso   1.00
C1695  C     0.65369   0.50753   0.85039   0.00000  Uiso   1.00
C1696  C     0.51018   0.35386   0.79123   0.00000  Uiso   1.00
C1697  C     0.48993   0.64629   0.87333   0.00000  Uiso   1.00
C1698  C     0.49577   0.64508   0.78976   0.00000  Uiso   1.00
Cu1699 Cu    0.50000   0.50001   0.88022   0.00000  Uiso   1.00
Cu1700 Cu    0.50000   0.49999   0.78645   0.00000  Uiso   1.00
H1701  H     0.66391   0.45891   0.75604   0.00000  Uiso   1.00
H1702  H     0.43390   0.62874   0.97096   0.00000  Uiso   1.00
H1703  H     0.49753   0.63625   0.71774   0.00000  Uiso   1.00
H1704  H     0.40644   0.64124   0.72513   0.00000  Uiso   1.00
H1705  H     0.41157   0.59809   0.76435   0.00000  Uiso   1.00
H1706  H     0.42113   0.59109   0.70476   0.00000  Uiso   1.00
H1707  H     0.52323   0.35840   0.94882   0.00000  Uiso   1.00
H1708  H     0.60694   0.36073   0.91811   0.00000  Uiso   1.00
H1709  H     0.59635   0.40190   0.95722   0.00000  Uiso   1.00
H1710  H     0.59008   0.41073   0.89586   0.00000  Uiso   1.00
H1711  H     0.38735   0.40594   0.73279   0.00000  Uiso   1.00
H1712  H     0.65152   0.41382   0.84333   0.00000  Uiso   1.00
H1713  H     0.59830   0.59566   0.91931   0.00000  Uiso   1.00
H1714  H     0.41805   0.37579   0.94883   0.00000  Uiso   1.00
H1715  H     0.65648   0.55036   0.73975   0.00000  Uiso   1.00
H1716  H     0.37669   0.41412   0.81673   0.00000  Uiso   1.00
H1717  H     0.65111   0.39244   0.78583   0.00000  Uiso   1.00
H1718  H     0.66198   0.56573   0.88077   0.00000  Uiso   1.00
H1719  H     0.39735   0.52833   0.94259   0.00000  Uiso   1.00
H1720  H     0.34338   0.49062   0.93474   0.00000  Uiso   1.00
H1721  H     0.33626   0.54201   0.95528   0.00000  Uiso   1.00
H1722  H     0.54101   0.40695   0.69761   0.00000  Uiso   1.00
N1723  N     0.50001   0.50001   0.95069   0.00000  Uiso   1.00
N1724  N     0.49999   0.49999   0.71597   0.00000  Uiso   1.00
N1725  N     0.65688   0.45699   0.79000   0.00000  Uiso   1.00
N1726  N     0.34440   0.53752   0.88368   0.00000  Uiso   1.00
N1727  N     0.48177   0.62421   0.74583   0.00000  Uiso   1.00
N1728  N     0.52968   0.37380   0.91922   0.00000  Uiso   1.00
O1729  O     0.50000   0.43989   0.87291   0.00000  Uiso   1.00
O1730  O     0.51843   0.39998   0.72263   0.00000  Uiso   1.00
O1731  O     0.42050   0.60438   0.89281   0.00000  Uiso   1.00
O1732  O     0.46163   0.64170   0.95363   0.00000  Uiso   1.00
O1733  O     0.37773   0.46893   0.69067   0.00000  Uiso   1.00
O1734  O     0.42229   0.41917   0.72898   0.00000  Uiso   1.00
O1735  O     0.54707   0.59994   0.98037   0.00000  Uiso   1.00
O1736  O     0.58548   0.56689   0.92736   0.00000  Uiso   1.00
O1737  O     0.41024   0.44013   0.91154   0.00000  Uiso   1.00
O1738  O     0.44311   0.39702   0.96654   0.00000  Uiso   1.00
O1739  O     0.57480   0.57670   0.74712   0.00000  Uiso   1.00
O1740  O     0.50000   0.56011   0.79375   0.00000  Uiso   1.00
O1741  O     0.62829   0.53282   0.72036   0.00000  Uiso   1.00
O1742  O     0.50000   0.43988   0.79372   0.00000  Uiso   1.00
O1743  O     0.50000   0.56012   0.87294   0.00000  Uiso   1.00
O1744  O     0.42495   0.50000   0.86379   0.00000  Uiso   1.00
O1745  O     0.57505   0.50000   0.80288   0.00000  Uiso   1.00
O1746  O     0.42494   0.49999   0.78460   0.00000  Uiso   1.00
O1747  O     0.57506   0.50001   0.88207   0.00000  Uiso   1.00
O1748  O     0.57669   0.35360   0.74529   0.00000  Uiso   1.00
C1749  C     0.83815   0.42108   0.83357   0.00000  Uiso   1.00
C1750  C     0.84154   0.35462   0.87568   0.00000  Uiso   1.00
C1751  C     0.82519   0.62405   0.83174   0.00000  Uiso   1.00
C1752  C     0.84346   0.37616   0.83349   0.00000  Uiso   1.00
C1753  C     0.79864   0.47537   0.68694   0.00000  Uiso   1.00
C1754  C     0.86360   0.52849   0.97961   0.00000  Uiso   1.00
C1755  C     0.80268   0.47180   0.97181   0.00000  Uiso   1.00
C1756  C     0.86792   0.52477   0.69567   0.00000  Uiso   1.00
C1757  C     0.66796   0.41738   0.81014   0.00000  Uiso   1.00
C1758  C     0.68894   0.52364   0.93125   0.00000  Uiso   1.00
C1759  C     0.87127   0.36990   0.75281   0.00000  Uiso   1.00
C1760  C     0.82936   0.57901   0.83284   0.00000  Uiso   1.00
C1761  C     0.78931   0.62907   0.90706   0.00000  Uiso   1.00
C1762  C     0.76074   0.61324   0.73457   0.00000  Uiso   1.00
C1763  C     0.91681   0.38740   0.92248   0.00000  Uiso   1.00
C1764  C     0.75273   0.45543   0.70358   0.00000  Uiso   1.00
C1765  C     0.88707   0.56711   0.96199   0.00000  Uiso   1.00
C1766  C     0.77360   0.43589   0.94655   0.00000  Uiso   1.00
C1767  C     0.91283   0.54608   0.72390   0.00000  Uiso   1.00
C1768  C     0.73479   0.49907   0.82182   0.00000  Uiso   1.00
C1769  C     0.93182   0.50116   0.84514   0.00000  Uiso   1.00
C1770  C     0.67974   0.49078   0.81845   0.00000  Uiso   1.00
C1771  C     0.98702   0.50753   0.85039   0.00000  Uiso   1.00
C1772  C     0.84351   0.35386   0.79123   0.00000  Uiso   1.00
C1773  C     0.82327   0.64629   0.87333   0.00000  Uiso   1.00
C1774  C     0.82910   0.64508   0.78976   0.00000  Uiso   1.00
Cu1775 Cu    0.83333   0.50001   0.88022   0.00000  Uiso   1.00
Cu1776 Cu    0.83333   0.49999   0.78645   0.00000  Uiso   1.00
H1777  H     0.99724   0.45891   0.75604   0.00000  Uiso   1.00
H1778  H     0.76723   0.62874   0.97096   0.00000  Uiso   1.00
H1779  H     0.83086   0.63625   0.71774   0.00000  Uiso   1.00
H1780  H     0.73977   0.64124   0.72513   0.00000  Uiso   1.00
H1781  H     0.74491   0.59809   0.76435   0.00000  Uiso   1.00
H1782  H     0.75446   0.59109   0.70476   0.00000  Uiso   1.00
H1783  H     0.85656   0.35840   0.94882   0.00000  Uiso   1.00
H1784  H     0.94027   0.36073   0.91811   0.00000  Uiso   1.00
H1785  H     0.92969   0.40190   0.95722   0.00000  Uiso   1.00
H1786  H     0.92341   0.41073   0.89586   0.00000  Uiso   1.00
H1787  H     0.72068   0.40594   0.73279   0.00000  Uiso   1.00
H1788  H     0.98486   0.41382   0.84333   0.00000  Uiso   1.00
H1789  H     0.93163   0.59566   0.91931   0.00000  Uiso   1.00
H1790  H     0.75139   0.37579   0.94883   0.00000  Uiso   1.00
H1791  H     0.98982   0.55036   0.73975   0.00000  Uiso   1.00
H1792  H     0.71003   0.41412   0.81673   0.00000  Uiso   1.00
H1793  H     0.98444   0.39244   0.78583   0.00000  Uiso   1.00
H1794  H     0.99531   0.56573   0.88077   0.00000  Uiso   1.00
H1795  H     0.73069   0.52833   0.94259   0.00000  Uiso   1.00
H1796  H     0.67671   0.49062   0.93474   0.00000  Uiso   1.00
H1797  H     0.66960   0.54201   0.95528   0.00000  Uiso   1.00
H1798  H     0.87435   0.40695   0.69761   0.00000  Uiso   1.00
N1799  N     0.83335   0.50001   0.95069   0.00000  Uiso   1.00
N1800  N     0.83332   0.49999   0.71597   0.00000  Uiso   1.00
N1801  N     0.99022   0.45699   0.79000   0.00000  Uiso   1.00
N1802  N     0.67774   0.53752   0.88368   0.00000  Uiso   1.00
N1803  N     0.81510   0.62421   0.74583   0.00000  Uiso   1.00
N1804  N     0.86301   0.37380   0.91922   0.00000  Uiso   1.00
O1805  O     0.83333   0.43989   0.87291   0.00000  Uiso   1.00
O1806  O     0.85176   0.39998   0.72263   0.00000  Uiso   1.00
O1807  O     0.75383   0.60438   0.89281   0.00000  Uiso   1.00
O1808  O     0.79497   0.64170   0.95363   0.00000  Uiso   1.00
O1809  O     0.71106   0.46893   0.69067   0.00000  Uiso   1.00
O1810  O     0.75563   0.41917   0.72898   0.00000  Uiso   1.00
O1811  O     0.88040   0.59994   0.98037   0.00000  Uiso   1.00
O1812  O     0.91881   0.56689   0.92736   0.00000  Uiso   1.00
O1813  O     0.74357   0.44013   0.91154   0.00000  Uiso   1.00
O1814  O     0.77645   0.39702   0.96654   0.00000  Uiso   1.00
O1815  O     0.90813   0.57670   0.74712   0.00000  Uiso   1.00
O1816  O     0.83334   0.56011   0.79375   0.00000  Uiso   1.00
O1817  O     0.96162   0.53282   0.72036   0.00000  Uiso   1.00
O1818  O     0.83333   0.43988   0.79372   0.00000  Uiso   1.00
O1819  O     0.83334   0.56012   0.87294   0.00000  Uiso   1.00
O1820  O     0.75828   0.50000   0.86379   0.00000  Uiso   1.00
O1821  O     0.90839   0.50000   0.80288   0.00000  Uiso   1.00
O1822  O     0.75828   0.49999   0.78460   0.00000  Uiso   1.00
O1823  O     0.90839   0.50001   0.88207   0.00000  Uiso   1.00
O1824  O     0.91002   0.35360   0.74529   0.00000  Uiso   1.00
C1825  C     0.17148   0.75442   0.83357   0.00000  Uiso   1.00
C1826  C     0.17487   0.68795   0.87568   0.00000  Uiso   1.00
C1827  C     0.15852   0.95738   0.83174   0.00000  Uiso   1.00
C1828  C     0.17679   0.70950   0.83349   0.00000  Uiso   1.00
C1829  C     0.13197   0.80870   0.68694   0.00000  Uiso   1.00
C1830  C     0.19693   0.86182   0.97961   0.00000  Uiso   1.00
C1831  C     0.13601   0.80513   0.97181   0.00000  Uiso   1.00
C1832  C     0.20125   0.85810   0.69567   0.00000  Uiso   1.00
C1833  C     0.00130   0.75072   0.81014   0.00000  Uiso   1.00
C1834  C     0.02228   0.85697   0.93125   0.00000  Uiso   1.00
C1835  C     0.20461   0.70324   0.75281   0.00000  Uiso   1.00
C1836  C     0.16269   0.91235   0.83284   0.00000  Uiso   1.00
C1837  C     0.12265   0.96240   0.90706   0.00000  Uiso   1.00
C1838  C     0.09407   0.94657   0.73457   0.00000  Uiso   1.00
C1839  C     0.25014   0.72074   0.92248   0.00000  Uiso   1.00
C1840  C     0.08606   0.78877   0.70358   0.00000  Uiso   1.00
C1841  C     0.22041   0.90045   0.96199   0.00000  Uiso   1.00
C1842  C     0.10693   0.76922   0.94655   0.00000  Uiso   1.00
C1843  C     0.24617   0.87941   0.72390   0.00000  Uiso   1.00
C1844  C     0.06813   0.83240   0.82182   0.00000  Uiso   1.00
C1845  C     0.26515   0.83450   0.84514   0.00000  Uiso   1.00
C1846  C     0.01307   0.82412   0.81845   0.00000  Uiso   1.00
C1847  C     0.32035   0.84087   0.85039   0.00000  Uiso   1.00
C1848  C     0.17684   0.68719   0.79123   0.00000  Uiso   1.00
C1849  C     0.15660   0.97963   0.87333   0.00000  Uiso   1.00
C1850  C     0.16243   0.97842   0.78976   0.00000  Uiso   1.00
Cu1851 Cu    0.16667   0.83334   0.88022   0.00000  Uiso   1.00
Cu1852 Cu    0.16667   0.83333   0.78645   0.00000  Uiso   1.00
H1853  H     0.33058   0.79224   0.75604   0.00000  Uiso   1.00
H1854  H     0.10056   0.96208   0.97096   0.00000  Uiso   1.00
H1855  H     0.16419   0.96958   0.71774   0.00000  Uiso   1.00
H1856  H     0.07310   0.97457   0.72513   0.00000  Uiso   1.00
H1857  H     0.07824   0.93142   0.76435   0.00000  Uiso   1.00
H1858  H     0.08779   0.92442   0.70476   0.00000  Uiso   1.00
H1859  H     0.18990   0.69173   0.94882   0.00000  Uiso   1.00
H1860  H     0.27360   0.69407   0.91811   0.00000  Uiso   1.00
H1861  H     0.26302   0.73524   0.95722   0.00000  Uiso   1.00
H1862  H     0.25675   0.74406   0.89586   0.00000  Uiso   1.00
H1863  H     0.05401   0.73927   0.73279   0.00000  Uiso   1.00
H1864  H     0.31819   0.74715   0.84333   0.00000  Uiso   1.00
H1865  H     0.26497   0.92899   0.91931   0.00000  Uiso   1.00
H1866  H     0.08472   0.70913   0.94883   0.00000  Uiso   1.00
H1867  H     0.32315   0.88369   0.73975   0.00000  Uiso   1.00
H1868  H     0.04336   0.74745   0.81673   0.00000  Uiso   1.00
H1869  H     0.31777   0.72577   0.78583   0.00000  Uiso   1.00
H1870  H     0.32865   0.89907   0.88077   0.00000  Uiso   1.00
H1871  H     0.06402   0.86167   0.94259   0.00000  Uiso   1.00
H1872  H     0.01004   0.82395   0.93474   0.00000  Uiso   1.00
H1873  H     0.00293   0.87534   0.95528   0.00000  Uiso   1.00
H1874  H     0.20768   0.74028   0.69761   0.00000  Uiso   1.00
N1875  N     0.16668   0.83334   0.95069   0.00000  Uiso   1.00
N1876  N     0.16665   0.83332   0.71597   0.00000  Uiso   1.00
N1877  N     0.32355   0.79032   0.79000   0.00000  Uiso   1.00
N1878  N     0.01107   0.87085   0.88368   0.00000  Uiso   1.00
N1879  N     0.14843   0.95755   0.74583   0.00000  Uiso   1.00
N1880  N     0.19635   0.70713   0.91922   0.00000  Uiso   1.00
O1881  O     0.16666   0.77322   0.87291   0.00000  Uiso   1.00
O1882  O     0.18510   0.73331   0.72263   0.00000  Uiso   1.00
O1883  O     0.08716   0.93772   0.89281   0.00000  Uiso   1.00
O1884  O     0.12830   0.97503   0.95363   0.00000  Uiso   1.00
O1885  O     0.04439   0.80226   0.69067   0.00000  Uiso   1.00
O1886  O     0.08896   0.75251   0.72898   0.00000  Uiso   1.00
O1887  O     0.21374   0.93327   0.98037   0.00000  Uiso   1.00
O1888  O     0.25214   0.90022   0.92736   0.00000  Uiso   1.00
O1889  O     0.07691   0.77346   0.91154   0.00000  Uiso   1.00
O1890  O     0.10978   0.73035   0.96654   0.00000  Uiso   1.00
O1891  O     0.24147   0.91003   0.74712   0.00000  Uiso   1.00
O1892  O     0.16667   0.89345   0.79375   0.00000  Uiso   1.00
O1893  O     0.29495   0.86615   0.72036   0.00000  Uiso   1.00
O1894  O     0.16666   0.77321   0.79372   0.00000  Uiso   1.00
O1895  O     0.16667   0.89346   0.87294   0.00000  Uiso   1.00
O1896  O     0.09161   0.83334   0.86379   0.00000  Uiso   1.00
O1897  O     0.24172   0.83333   0.80288   0.00000  Uiso   1.00
O1898  O     0.09161   0.83333   0.78460   0.00000  Uiso   1.00
O1899  O     0.24172   0.83334   0.88207   0.00000  Uiso   1.00
O1900  O     0.24335   0.68693   0.74529   0.00000  Uiso   1.00
C1901  C     0.50481   0.75442   0.83357   0.00000  Uiso   1.00
C1902  C     0.50820   0.68795   0.87568   0.00000  Uiso   1.00
C1903  C     0.49186   0.95738   0.83174   0.00000  Uiso   1.00
C1904  C     0.51012   0.70950   0.83349   0.00000  Uiso   1.00
C1905  C     0.46530   0.80870   0.68694   0.00000  Uiso   1.00
C1906  C     0.53027   0.86182   0.97961   0.00000  Uiso   1.00
C1907  C     0.46935   0.80513   0.97181   0.00000  Uiso   1.00
C1908  C     0.53458   0.85810   0.69567   0.00000  Uiso   1.00
C1909  C     0.33463   0.75072   0.81014   0.00000  Uiso   1.00
C1910  C     0.35561   0.85697   0.93125   0.00000  Uiso   1.00
C1911  C     0.53794   0.70324   0.75281   0.00000  Uiso   1.00
C1912  C     0.49603   0.91235   0.83284   0.00000  Uiso   1.00
C1913  C     0.45598   0.96240   0.90706   0.00000  Uiso   1.00
C1914  C     0.42741   0.94657   0.73457   0.00000  Uiso   1.00
C1915  C     0.58347   0.72074   0.92248   0.00000  Uiso   1.00
C1916  C     0.41940   0.78877   0.70358   0.00000  Uiso   1.00
C1917  C     0.55374   0.90045   0.96199   0.00000  Uiso   1.00
C1918  C     0.44027   0.76922   0.94655   0.00000  Uiso   1.00
C1919  C     0.57950   0.87941   0.72390   0.00000  Uiso   1.00
C1920  C     0.40146   0.83240   0.82182   0.00000  Uiso   1.00
C1921  C     0.59848   0.83450   0.84514   0.00000  Uiso   1.00
C1922  C     0.34640   0.82412   0.81845   0.00000  Uiso   1.00
C1923  C     0.65369   0.84087   0.85039   0.00000  Uiso   1.00
C1924  C     0.51018   0.68719   0.79123   0.00000  Uiso   1.00
C1925  C     0.48993   0.97963   0.87333   0.00000  Uiso   1.00
C1926  C     0.49577   0.97842   0.78976   0.00000  Uiso   1.00
Cu1927 Cu    0.50000   0.83334   0.88022   0.00000  Uiso   1.00
Cu1928 Cu    0.50000   0.83333   0.78645   0.00000  Uiso   1.00
H1929  H     0.66391   0.79224   0.75604   0.00000  Uiso   1.00
H1930  H     0.43390   0.96208   0.97096   0.00000  Uiso   1.00
H1931  H     0.49753   0.96958   0.71774   0.00000  Uiso   1.00
H1932  H     0.40644   0.97457   0.72513   0.00000  Uiso   1.00
H1933  H     0.41157   0.93142   0.76435   0.00000  Uiso   1.00
H1934  H     0.42113   0.92442   0.70476   0.00000  Uiso   1.00
H1935  H     0.52323   0.69173   0.94882   0.00000  Uiso   1.00
H1936  H     0.60694   0.69407   0.91811   0.00000  Uiso   1.00
H1937  H     0.59635   0.73524   0.95722   0.00000  Uiso   1.00
H1938  H     0.59008   0.74406   0.89586   0.00000  Uiso   1.00
H1939  H     0.38735   0.73927   0.73279   0.00000  Uiso   1.00
H1940  H     0.65152   0.74715   0.84333   0.00000  Uiso   1.00
H1941  H     0.59830   0.92899   0.91931   0.00000  Uiso   1.00
H1942  H     0.41805   0.70913   0.94883   0.00000  Uiso   1.00
H1943  H     0.65648   0.88369   0.73975   0.00000  Uiso   1.00
H1944  H     0.37669   0.74745   0.81673   0.00000  Uiso   1.00
H1945  H     0.65111   0.72577   0.78583   0.00000  Uiso   1.00
H1946  H     0.66198   0.89907   0.88077   0.00000  Uiso   1.00
H1947  H     0.39735   0.86167   0.94259   0.00000  Uiso   1.00
H1948  H     0.34338   0.82395   0.93474   0.00000  Uiso   1.00
H1949  H     0.33626   0.87534   0.95528   0.00000  Uiso   1.00
H1950  H     0.54101   0.74028   0.69761   0.00000  Uiso   1.00
N1951  N     0.50001   0.83334   0.95069   0.00000  Uiso   1.00
N1952  N     0.49999   0.83332   0.71597   0.00000  Uiso   1.00
N1953  N     0.65688   0.79032   0.79000   0.00000  Uiso   1.00
N1954  N     0.34440   0.87085   0.88368   0.00000  Uiso   1.00
N1955  N     0.48177   0.95755   0.74583   0.00000  Uiso   1.00
N1956  N     0.52968   0.70713   0.91922   0.00000  Uiso   1.00
O1957  O     0.50000   0.77322   0.87291   0.00000  Uiso   1.00
O1958  O     0.51843   0.73331   0.72263   0.00000  Uiso   1.00
O1959  O     0.42050   0.93772   0.89281   0.00000  Uiso   1.00
O1960  O     0.46163   0.97503   0.95363   0.00000  Uiso   1.00
O1961  O     0.37773   0.80226   0.69067   0.00000  Uiso   1.00
O1962  O     0.42229   0.75251   0.72898   0.00000  Uiso   1.00
O1963  O     0.54707   0.93327   0.98037   0.00000  Uiso   1.00
O1964  O     0.58548   0.90022   0.92736   0.00000  Uiso   1.00
O1965  O     0.41024   0.77346   0.91154   0.00000  Uiso   1.00
O1966  O     0.44311   0.73035   0.96654   0.00000  Uiso   1.00
O1967  O     0.57480   0.91003   0.74712   0.00000  Uiso   1.00
O1968  O     0.50000   0.89345   0.79375   0.00000  Uiso   1.00
O1969  O     0.62829   0.86615   0.72036   0.00000  Uiso   1.00
O1970  O     0.50000   0.77321   0.79372   0.00000  Uiso   1.00
O1971  O     0.50000   0.89346   0.87294   0.00000  Uiso   1.00
O1972  O     0.42495   0.83334   0.86379   0.00000  Uiso   1.00
O1973  O     0.57505   0.83333   0.80288   0.00000  Uiso   1.00
O1974  O     0.42494   0.83333   0.78460   0.00000  Uiso   1.00
O1975  O     0.57506   0.83334   0.88207   0.00000  Uiso   1.00
O1976  O     0.57669   0.68693   0.74529   0.00000  Uiso   1.00
C1977  C     0.83815   0.75442   0.83357   0.00000  Uiso   1.00
C1978  C     0.84154   0.68795   0.87568   0.00000  Uiso   1.00
C1979  C     0.82519   0.95738   0.83174   0.00000  Uiso   1.00
C1980  C     0.84346   0.70950   0.83349   0.00000  Uiso   1.00
C1981  C     0.79864   0.80870   0.68694   0.00000  Uiso   1.00
C1982  C     0.86360   0.86182   0.97961   0.00000  Uiso   1.00
C1983  C     0.80268   0.80513   0.97181   0.00000  Uiso   1.00
C1984  C     0.86792   0.85810   0.69567   0.00000  Uiso   1.00
C1985  C     0.66796   0.75072   0.81014   0.00000  Uiso   1.00
C1986  C     0.68894   0.85697   0.93125   0.00000  Uiso   1.00
C1987  C     0.87127   0.70324   0.75281   0.00000  Uiso   1.00
C1988  C     0.82936   0.91235   0.83284   0.00000  Uiso   1.00
C1989  C     0.78931   0.96240   0.90706   0.00000  Uiso   1.00
C1990  C     0.76074   0.94657   0.73457   0.00000  Uiso   1.00
C1991  C     0.91681   0.72074   0.92248   0.00000  Uiso   1.00
C1992  C     0.75273   0.78877   0.70358   0.00000  Uiso   1.00
C1993  C     0.88707   0.90045   0.96199   0.00000  Uiso   1.00
C1994  C     0.77360   0.76922   0.94655   0.00000  Uiso   1.00
C1995  C     0.91283   0.87941   0.72390   0.00000  Uiso   1.00
C1996  C     0.73479   0.83240   0.82182   0.00000  Uiso   1.00
C1997  C     0.93182   0.83450   0.84514   0.00000  Uiso   1.00
C1998  C     0.67974   0.82412   0.81845   0.00000  Uiso   1.00
C1999  C     0.98702   0.84087   0.85039   0.00000  Uiso   1.00
C2000  C     0.84351   0.68719   0.79123   0.00000  Uiso   1.00
C2001  C     0.82327   0.97963   0.87333   0.00000  Uiso   1.00
C2002  C     0.82910   0.97842   0.78976   0.00000  Uiso   1.00
Cu2003 Cu    0.83333   0.83334   0.88022   0.00000  Uiso   1.00
Cu2004 Cu    0.83333   0.83333   0.78645   0.00000  Uiso   1.00
H2005  H     0.99724   0.79224   0.75604   0.00000  Uiso   1.00
H2006  H     0.76723   0.96208   0.97096   0.00000  Uiso   1.00
H2007  H     0.83086   0.96958   0.71774   0.00000  Uiso   1.00
H2008  H     0.73977   0.97457   0.72513   0.00000  Uiso   1.00
H2009  H     0.74491   0.93142   0.76435   0.00000  Uiso   1.00
H2010  H     0.75446   0.92442   0.70476   0.00000  Uiso   1.00
H2011  H     0.85656   0.69173   0.94882   0.00000  Uiso   1.00
H2012  H     0.94027   0.69407   0.91811   0.00000  Uiso   1.00
H2013  H     0.92969   0.73524   0.95722   0.00000  Uiso   1.00
H2014  H     0.92341   0.74406   0.89586   0.00000  Uiso   1.00
H2015  H     0.72068   0.73927   0.73279   0.00000  Uiso   1.00
H2016  H     0.98486   0.74715   0.84333   0.00000  Uiso   1.00
H2017  H     0.93163   0.92899   0.91931   0.00000  Uiso   1.00
H2018  H     0.75139   0.70913   0.94883   0.00000  Uiso   1.00
H2019  H     0.98982   0.88369   0.73975   0.00000  Uiso   1.00
H2020  H     0.71003   0.74745   0.81673   0.00000  Uiso   1.00
H2021  H     0.98444   0.72577   0.78583   0.00000  Uiso   1.00
H2022  H     0.99531   0.89907   0.88077   0.00000  Uiso   1.00
H2023  H     0.73069   0.86167   0.94259   0.00000  Uiso   1.00
H2024  H     0.67671   0.82395   0.93474   0.00000  Uiso   1.00
H2025  H     0.66960   0.87534   0.95528   0.00000  Uiso   1.00
H2026  H     0.87435   0.74028   0.69761   0.00000  Uiso   1.00
N2027  N     0.83335   0.83334   0.95069   0.00000  Uiso   1.00
N2028  N     0.83332   0.83332   0.71597   0.00000  Uiso   1.00
N2029  N     0.99022   0.79032   0.79000   0.00000  Uiso   1.00
N2030  N     0.67774   0.87085   0.88368   0.00000  Uiso   1.00
N2031  N     0.81510   0.95755   0.74583   0.00000  Uiso   1.00
N2032  N     0.86301   0.70713   0.91922   0.00000  Uiso   1.00
O2033  O     0.83333   0.77322   0.87291   0.00000  Uiso   1.00
O2034  O     0.85176   0.73331   0.72263   0.00000  Uiso   1.00
O2035  O     0.75383   0.93772   0.89281   0.00000  Uiso   1.00
O2036  O     0.79497   0.97503   0.95363   0.00000  Uiso   1.00
O2037  O     0.71106   0.80226   0.69067   0.00000  Uiso   1.00
O2038  O     0.75563   0.75251   0.72898   0.00000  Uiso   1.00
O2039  O     0.88040   0.93327   0.98037   0.00000  Uiso   1.00
O2040  O     0.91881   0.90022   0.92736   0.00000  Uiso   1.00
O2041  O     0.74357   0.77346   0.91154   0.00000  Uiso   1.00
O2042  O     0.77645   0.73035   0.96654   0.00000  Uiso   1.00
O2043  O     0.90813   0.91003   0.74712   0.00000  Uiso   1.00
O2044  O     0.83334   0.89345   0.79375   0.00000  Uiso   1.00
O2045  O     0.96162   0.86615   0.72036   0.00000  Uiso   1.00
O2046  O     0.83333   0.77321   0.79372   0.00000  Uiso   1.00
O2047  O     0.83334   0.89346   0.87294   0.00000  Uiso   1.00
O2048  O     0.75828   0.83334   0.86379   0.00000  Uiso   1.00
O2049  O     0.90839   0.83333   0.80288   0.00000  Uiso   1.00
O2050  O     0.75828   0.83333   0.78460   0.00000  Uiso   1.00
O2051  O     0.90839   0.83334   0.88207   0.00000  Uiso   1.00
O2052  O     0.91002   0.68693   0.74529   0.00000  Uiso   1.00
loop_
_geom_bond_atom_site_label_1
_geom_bond_atom_site_label_2
_geom_bond_distance
_geom_bond_site_symmetry_2
_ccdc_geom_bond_type
C1     O57     1.314   .     A
C1     O70     1.304   .     A
C1     C4      1.477   .     S
C2     C4      1.417   .     A
C2     N56     1.435   .     S
C2     C481    1.408   1_545 S
C3     C25     1.409   .     A
C3     C12     1.476   .     S
C3     C26     1.411   .     A
C4     C24     1.419   .     A
C5     C16     1.475   .     S
C5     N52     1.373   .     A
C5     C1375   1.426   1_554 S
C6     N51     1.386   .     A
C6     C17     1.489   .     S
C6     C692    1.426   .     S
C7     C18     1.490   .     S
C7     N51     1.384   .     A
C7     C689    1.426   .     S
C8     C19     1.480   .     S
C8     N52     1.372   .     A
C8     C1374   1.426   1_554 S
C9     H44     1.112   .     S
C9     H192    1.109   1_455 S
C9     H197    1.103   1_455 S
C9     N205    1.448   1_455 S
C10    N54     1.451   .     S
C10    H48     1.111   .     S
C10    H47     1.107   .     S
C10    H49     1.108   .     S
C11    O58     1.393   .     S
C11    O76     1.223   .     D
C11    C24     1.489   .     S
C12    O68     1.304   .     A
C12    O71     1.312   .     A
C13    O59     1.222   .     D
C13    O60     1.394   .     S
C13    C25     1.497   .     S
C14    H34     1.110   .     S
C14    H33     1.111   .     S
C14    N55     1.449   .     S
C14    H32     1.111   .     S
C15    H38     1.107   .     S
C15    N56     1.450   .     S
C15    H37     1.111   .     S
C15    H36     1.112   .     S
C16    O62     1.395   .     S
C16    O61     1.222   .     D
C17    O63     1.223   .     D
C17    O64     1.388   .     S
C18    O66     1.396   .     S
C18    O65     1.216   .     D
C19    O67     1.220   .     D
C19    O69     1.397   .     S
C20    C22     1.450   .     S
C20    O74     1.311   .     A
C20    O72     1.289   .     A
C21    O75     1.302   .     A
C21    C23     1.445   .     S
C21    O73     1.296   .     A
C22    C175    1.353   1_455 S
C22    N205    1.424   1_455 S
C23    C98     1.353   .     S
C23    N130    1.426   .     S
C24    C482    1.398   1_545 S
C25    C230    1.408   .     S
C26    N55     1.432   .     S
C26    C252    1.398   .     S
Cu27   Cu28    2.715   .     S
Cu27   N51     2.040   .     S
Cu27   O75     1.972   .     S
Cu27   O71     1.968   .     S
Cu27   O57     1.966   .     S
Cu27   O72     1.973   .     S
Cu28   N52     2.040   .     S
Cu28   O74     1.972   .     S
Cu28   O73     1.973   .     S
Cu28   O68     1.966   .     S
Cu28   O70     1.968   .     S
H29    N53     1.026   .     S
H30    O60     1.012   .     S
H31    N55     1.029   .     S
H35    N56     1.023   .     S
H39    O62     1.012   .     S
H40    C85     1.109   .     S
H41    O64     1.015   .     S
H42    O66     1.013   .     S
H43    O69     1.014   .     S
H45    C85     1.103   .     S
H46    N130    1.030   .     S
H50    O58     1.014   .     S
N53    C98     1.424   .     S
N53    C85     1.448   .     S
N54    H198    1.030   1_455 S
N54    C175    1.426   1_455 S
C77    O133    1.314   .     A
C77    O146    1.304   .     A
C77    C80     1.477   .     S
C78    C80     1.417   .     A
C78    N132    1.435   .     S
C78    C557    1.408   1_545 S
C79    C101    1.409   .     A
C79    C88     1.476   .     S
C79    C102    1.411   .     A
C80    C100    1.419   .     A
C81    C92     1.475   .     S
C81    N128    1.373   .     A
C81    C1451   1.426   1_554 S
C82    N127    1.386   .     A
C82    C93     1.489   .     S
C82    C768    1.426   .     S
C83    C94     1.490   .     S
C83    N127    1.384   .     A
C83    C765    1.426   .     S
C84    C95     1.480   .     S
C84    N128    1.372   .     A
C84    C1450   1.426   1_554 S
C85    H120    1.112   .     S
C86    N130    1.451   .     S
C86    H124    1.111   .     S
C86    H123    1.107   .     S
C86    H125    1.108   .     S
C87    O134    1.393   .     S
C87    O152    1.223   .     D
C87    C100    1.489   .     S
C88    O144    1.304   .     A
C88    O147    1.312   .     A
C89    O135    1.222   .     D
C89    O136    1.394   .     S
C89    C101    1.497   .     S
C90    H110    1.110   .     S
C90    H109    1.111   .     S
C90    N131    1.449   .     S
C90    H108    1.111   .     S
C91    H114    1.107   .     S
C91    N132    1.450   .     S
C91    H113    1.111   .     S
C91    H112    1.112   .     S
C92    O138    1.395   .     S
C92    O137    1.222   .     D
C93    O139    1.223   .     D
C93    O140    1.388   .     S
C94    O142    1.396   .     S
C94    O141    1.216   .     D
C95    O143    1.220   .     D
C95    O145    1.397   .     S
C96    C98     1.450   .     S
C96    O150    1.311   .     A
C96    O148    1.289   .     A
C97    O151    1.302   .     A
C97    C99     1.445   .     S
C97    O149    1.296   .     A
C99    C174    1.353   .     S
C99    N206    1.426   .     S
C100   C558    1.398   1_545 S
C101   C306    1.408   .     S
C102   N131    1.432   .     S
C102   C328    1.398   .     S
Cu103  Cu104   2.715   .     S
Cu103  N127    2.040   .     S
Cu103  O151    1.972   .     S
Cu103  O147    1.968   .     S
Cu103  O133    1.966   .     S
Cu103  O148    1.973   .     S
Cu104  N128    2.040   .     S
Cu104  O150    1.972   .     S
Cu104  O149    1.973   .     S
Cu104  O144    1.966   .     S
Cu104  O146    1.968   .     S
H105   N129    1.026   .     S
H106   O136    1.012   .     S
H107   N131    1.029   .     S
H111   N132    1.023   .     S
H115   O138    1.012   .     S
H116   C161    1.109   .     S
H117   O140    1.015   .     S
H118   O142    1.013   .     S
H119   O145    1.014   .     S
H121   C161    1.103   .     S
H122   N206    1.030   .     S
H126   O134    1.014   .     S
N129   C174    1.424   .     S
N129   C161    1.448   .     S
C153   O209    1.314   .     A
C153   O222    1.304   .     A
C153   C156    1.477   .     S
C154   C156    1.417   .     A
C154   N208    1.435   .     S
C154   C633    1.408   1_545 S
C155   C177    1.409   .     A
C155   C164    1.476   .     S
C155   C178    1.411   .     A
C156   C176    1.419   .     A
C157   C168    1.475   .     S
C157   N204    1.373   .     A
C157   C1527   1.426   1_554 S
C158   N203    1.386   .     A
C158   C169    1.489   .     S
C158   C844    1.426   .     S
C159   C170    1.490   .     S
C159   N203    1.384   .     A
C159   C841    1.426   .     S
C160   C171    1.480   .     S
C160   N204    1.372   .     A
C160   C1526   1.426   1_554 S
C161   H196    1.112   .     S
C162   N206    1.451   .     S
C162   H200    1.111   .     S
C162   H199    1.107   .     S
C162   H201    1.108   .     S
C163   O210    1.393   .     S
C163   O228    1.223   .     D
C163   C176    1.489   .     S
C164   O220    1.304   .     A
C164   O223    1.312   .     A
C165   O211    1.222   .     D
C165   O212    1.394   .     S
C165   C177    1.497   .     S
C166   H186    1.110   .     S
C166   H185    1.111   .     S
C166   N207    1.449   .     S
C166   H184    1.111   .     S
C167   H190    1.107   .     S
C167   N208    1.450   .     S
C167   H189    1.111   .     S
C167   H188    1.112   .     S
C168   O214    1.395   .     S
C168   O213    1.222   .     D
C169   O215    1.223   .     D
C169   O216    1.388   .     S
C170   O218    1.396   .     S
C170   O217    1.216   .     D
C171   O219    1.220   .     D
C171   O221    1.397   .     S
C172   C174    1.450   .     S
C172   O226    1.311   .     A
C172   O224    1.289   .     A
C173   O227    1.302   .     A
C173   C175    1.445   .     S
C173   O225    1.296   .     A
C175   C22     1.353   1_655 S
C175   N54     1.426   1_655 S
C176   C634    1.398   1_545 S
C177   C382    1.408   .     S
C178   N207    1.432   .     S
C178   C404    1.398   .     S
Cu179  Cu180   2.715   .     S
Cu179  N203    2.040   .     S
Cu179  O227    1.972   .     S
Cu179  O223    1.968   .     S
Cu179  O209    1.966   .     S
Cu179  O224    1.973   .     S
Cu180  N204    2.040   .     S
Cu180  O226    1.972   .     S
Cu180  O225    1.973   .     S
Cu180  O220    1.966   .     S
Cu180  O222    1.968   .     S
H181   N205    1.026   .     S
H182   O212    1.012   .     S
H183   N207    1.029   .     S
H187   N208    1.023   .     S
H191   O214    1.012   .     S
H192   C9      1.109   1_655 S
H193   O216    1.015   .     S
H194   O218    1.013   .     S
H195   O221    1.014   .     S
H197   C9      1.103   1_655 S
H198   N54     1.030   1_655 S
H202   O210    1.014   .     S
N205   C22     1.424   1_655 S
N205   C9      1.448   1_655 S
C229   O285    1.314   .     A
C229   O298    1.304   .     A
C229   C232    1.477   .     S
C230   C232    1.417   .     A
C230   N284    1.435   .     S
C231   C253    1.409   .     A
C231   C240    1.476   .     S
C231   C254    1.411   .     A
C232   C252    1.419   .     A
C233   C244    1.475   .     S
C233   N280    1.373   .     A
C233   C1603   1.426   1_554 S
C234   N279    1.386   .     A
C234   C245    1.489   .     S
C234   C920    1.426   .     S
C235   C246    1.490   .     S
C235   N279    1.384   .     A
C235   C917    1.426   .     S
C236   C247    1.480   .     S
C236   N280    1.372   .     A
C236   C1602   1.426   1_554 S
C237   H272    1.112   .     S
C237   H420    1.109   1_455 S
C237   H425    1.103   1_455 S
C237   N433    1.448   1_455 S
C238   N282    1.451   .     S
C238   H276    1.111   .     S
C238   H275    1.107   .     S
C238   H277    1.108   .     S
C239   O286    1.393   .     S
C239   O304    1.223   .     D
C239   C252    1.489   .     S
C240   O296    1.304   .     A
C240   O299    1.312   .     A
C241   O287    1.222   .     D
C241   O288    1.394   .     S
C241   C253    1.497   .     S
C242   H262    1.110   .     S
C242   H261    1.111   .     S
C242   N283    1.449   .     S
C242   H260    1.111   .     S
C243   H266    1.107   .     S
C243   N284    1.450   .     S
C243   H265    1.111   .     S
C243   H264    1.112   .     S
C244   O290    1.395   .     S
C244   O289    1.222   .     D
C245   O291    1.223   .     D
C245   O292    1.388   .     S
C246   O294    1.396   .     S
C246   O293    1.216   .     D
C247   O295    1.220   .     D
C247   O297    1.397   .     S
C248   C250    1.450   .     S
C248   O302    1.311   .     A
C248   O300    1.289   .     A
C249   O303    1.302   .     A
C249   C251    1.445   .     S
C249   O301    1.296   .     A
C250   C403    1.353   1_455 S
C250   N433    1.424   1_455 S
C251   C326    1.353   .     S
C251   N358    1.426   .     S
C253   C458    1.408   .     S
C254   N283    1.432   .     S
C254   C480    1.398   .     S
Cu255  Cu256   2.715   .     S
Cu255  N279    2.040   .     S
Cu255  O303    1.972   .     S
Cu255  O299    1.968   .     S
Cu255  O285    1.966   .     S
Cu255  O300    1.973   .     S
Cu256  N280    2.040   .     S
Cu256  O302    1.972   .     S
Cu256  O301    1.973   .     S
Cu256  O296    1.966   .     S
Cu256  O298    1.968   .     S
H257   N281    1.026   .     S
H258   O288    1.012   .     S
H259   N283    1.029   .     S
H263   N284    1.023   .     S
H267   O290    1.012   .     S
H268   C313    1.109   .     S
H269   O292    1.015   .     S
H270   O294    1.013   .     S
H271   O297    1.014   .     S
H273   C313    1.103   .     S
H274   N358    1.030   .     S
H278   O286    1.014   .     S
N281   C326    1.424   .     S
N281   C313    1.448   .     S
N282   H426    1.030   1_455 S
N282   C403    1.426   1_455 S
C305   O361    1.314   .     A
C305   O374    1.304   .     A
C305   C308    1.477   .     S
C306   C308    1.417   .     A
C306   N360    1.435   .     S
C307   C329    1.409   .     A
C307   C316    1.476   .     S
C307   C330    1.411   .     A
C308   C328    1.419   .     A
C309   C320    1.475   .     S
C309   N356    1.373   .     A
C309   C1679   1.426   1_554 S
C310   N355    1.386   .     A
C310   C321    1.489   .     S
C310   C996    1.426   .     S
C311   C322    1.490   .     S
C311   N355    1.384   .     A
C311   C993    1.426   .     S
C312   C323    1.480   .     S
C312   N356    1.372   .     A
C312   C1678   1.426   1_554 S
C313   H348    1.112   .     S
C314   N358    1.451   .     S
C314   H352    1.111   .     S
C314   H351    1.107   .     S
C314   H353    1.108   .     S
C315   O362    1.393   .     S
C315   O380    1.223   .     D
C315   C328    1.489   .     S
C316   O372    1.304   .     A
C316   O375    1.312   .     A
C317   O363    1.222   .     D
C317   O364    1.394   .     S
C317   C329    1.497   .     S
C318   H338    1.110   .     S
C318   H337    1.111   .     S
C318   N359    1.449   .     S
C318   H336    1.111   .     S
C319   H342    1.107   .     S
C319   N360    1.450   .     S
C319   H341    1.111   .     S
C319   H340    1.112   .     S
C320   O366    1.395   .     S
C320   O365    1.222   .     D
C321   O367    1.223   .     D
C321   O368    1.388   .     S
C322   O370    1.396   .     S
C322   O369    1.216   .     D
C323   O371    1.220   .     D
C323   O373    1.397   .     S
C324   C326    1.450   .     S
C324   O378    1.311   .     A
C324   O376    1.289   .     A
C325   O379    1.302   .     A
C325   C327    1.445   .     S
C325   O377    1.296   .     A
C327   C402    1.353   .     S
C327   N434    1.426   .     S
C329   C534    1.408   .     S
C330   N359    1.432   .     S
C330   C556    1.398   .     S
Cu331  Cu332   2.715   .     S
Cu331  N355    2.040   .     S
Cu331  O379    1.972   .     S
Cu331  O375    1.968   .     S
Cu331  O361    1.966   .     S
Cu331  O376    1.973   .     S
Cu332  N356    2.040   .     S
Cu332  O378    1.972   .     S
Cu332  O377    1.973   .     S
Cu332  O372    1.966   .     S
Cu332  O374    1.968   .     S
H333   N357    1.026   .     S
H334   O364    1.012   .     S
H335   N359    1.029   .     S
H339   N360    1.023   .     S
H343   O366    1.012   .     S
H344   C389    1.109   .     S
H345   O368    1.015   .     S
H346   O370    1.013   .     S
H347   O373    1.014   .     S
H349   C389    1.103   .     S
H350   N434    1.030   .     S
H354   O362    1.014   .     S
N357   C402    1.424   .     S
N357   C389    1.448   .     S
C381   O437    1.314   .     A
C381   O450    1.304   .     A
C381   C384    1.477   .     S
C382   C384    1.417   .     A
C382   N436    1.435   .     S
C383   C405    1.409   .     A
C383   C392    1.476   .     S
C383   C406    1.411   .     A
C384   C404    1.419   .     A
C385   C396    1.475   .     S
C385   N432    1.373   .     A
C385   C1755   1.426   1_554 S
C386   N431    1.386   .     A
C386   C397    1.489   .     S
C386   C1072   1.426   .     S
C387   C398    1.490   .     S
C387   N431    1.384   .     A
C387   C1069   1.426   .     S
C388   C399    1.480   .     S
C388   N432    1.372   .     A
C388   C1754   1.426   1_554 S
C389   H424    1.112   .     S
C390   N434    1.451   .     S
C390   H428    1.111   .     S
C390   H427    1.107   .     S
C390   H429    1.108   .     S
C391   O438    1.393   .     S
C391   O456    1.223   .     D
C391   C404    1.489   .     S
C392   O448    1.304   .     A
C392   O451    1.312   .     A
C393   O439    1.222   .     D
C393   O440    1.394   .     S
C393   C405    1.497   .     S
C394   H414    1.110   .     S
C394   H413    1.111   .     S
C394   N435    1.449   .     S
C394   H412    1.111   .     S
C395   H418    1.107   .     S
C395   N436    1.450   .     S
C395   H417    1.111   .     S
C395   H416    1.112   .     S
C396   O442    1.395   .     S
C396   O441    1.222   .     D
C397   O443    1.223   .     D
C397   O444    1.388   .     S
C398   O446    1.396   .     S
C398   O445    1.216   .     D
C399   O447    1.220   .     D
C399   O449    1.397   .     S
C400   C402    1.450   .     S
C400   O454    1.311   .     A
C400   O452    1.289   .     A
C401   O455    1.302   .     A
C401   C403    1.445   .     S
C401   O453    1.296   .     A
C403   C250    1.353   1_655 S
C403   N282    1.426   1_655 S
C405   C610    1.408   .     S
C406   N435    1.432   .     S
C406   C632    1.398   .     S
Cu407  Cu408   2.715   .     S
Cu407  N431    2.040   .     S
Cu407  O455    1.972   .     S
Cu407  O451    1.968   .     S
Cu407  O437    1.966   .     S
Cu407  O452    1.973   .     S
Cu408  N432    2.040   .     S
Cu408  O454    1.972   .     S
Cu408  O453    1.973   .     S
Cu408  O448    1.966   .     S
Cu408  O450    1.968   .     S
H409   N433    1.026   .     S
H410   O440    1.012   .     S
H411   N435    1.029   .     S
H415   N436    1.023   .     S
H419   O442    1.012   .     S
H420   C237    1.109   1_655 S
H421   O444    1.015   .     S
H422   O446    1.013   .     S
H423   O449    1.014   .     S
H425   C237    1.103   1_655 S
H426   N282    1.030   1_655 S
H430   O438    1.014   .     S
N433   C250    1.424   1_655 S
N433   C237    1.448   1_655 S
C457   O513    1.314   .     A
C457   O526    1.304   .     A
C457   C460    1.477   .     S
C458   C460    1.417   .     A
C458   N512    1.435   .     S
C459   C481    1.409   .     A
C459   C468    1.476   .     S
C459   C482    1.411   .     A
C460   C480    1.419   .     A
C461   C472    1.475   .     S
C461   N508    1.373   .     A
C461   C1831   1.426   1_554 S
C462   N507    1.386   .     A
C462   C473    1.489   .     S
C462   C1148   1.426   .     S
C463   C474    1.490   .     S
C463   N507    1.384   .     A
C463   C1145   1.426   .     S
C464   C475    1.480   .     S
C464   N508    1.372   .     A
C464   C1830   1.426   1_554 S
C465   H500    1.112   .     S
C465   H648    1.109   1_455 S
C465   H653    1.103   1_455 S
C465   N661    1.448   1_455 S
C466   N510    1.451   .     S
C466   H504    1.111   .     S
C466   H503    1.107   .     S
C466   H505    1.108   .     S
C467   O514    1.393   .     S
C467   O532    1.223   .     D
C467   C480    1.489   .     S
C468   O524    1.304   .     A
C468   O527    1.312   .     A
C469   O515    1.222   .     D
C469   O516    1.394   .     S
C469   C481    1.497   .     S
C470   H490    1.110   .     S
C470   H489    1.111   .     S
C470   N511    1.449   .     S
C470   H488    1.111   .     S
C471   H494    1.107   .     S
C471   N512    1.450   .     S
C471   H493    1.111   .     S
C471   H492    1.112   .     S
C472   O518    1.395   .     S
C472   O517    1.222   .     D
C473   O519    1.223   .     D
C473   O520    1.388   .     S
C474   O522    1.396   .     S
C474   O521    1.216   .     D
C475   O523    1.220   .     D
C475   O525    1.397   .     S
C476   C478    1.450   .     S
C476   O530    1.311   .     A
C476   O528    1.289   .     A
C477   O531    1.302   .     A
C477   C479    1.445   .     S
C477   O529    1.296   .     A
C478   C631    1.353   1_455 S
C478   N661    1.424   1_455 S
C479   C554    1.353   .     S
C479   N586    1.426   .     S
C481   C2      1.408   1_565 S
C482   N511    1.432   .     S
C482   C24     1.398   1_565 S
Cu483  Cu484   2.715   .     S
Cu483  N507    2.040   .     S
Cu483  O531    1.972   .     S
Cu483  O527    1.968   .     S
Cu483  O513    1.966   .     S
Cu483  O528    1.973   .     S
Cu484  N508    2.040   .     S
Cu484  O530    1.972   .     S
Cu484  O529    1.973   .     S
Cu484  O524    1.966   .     S
Cu484  O526    1.968   .     S
H485   N509    1.026   .     S
H486   O516    1.012   .     S
H487   N511    1.029   .     S
H491   N512    1.023   .     S
H495   O518    1.012   .     S
H496   C541    1.109   .     S
H497   O520    1.015   .     S
H498   O522    1.013   .     S
H499   O525    1.014   .     S
H501   C541    1.103   .     S
H502   N586    1.030   .     S
H506   O514    1.014   .     S
N509   C554    1.424   .     S
N509   C541    1.448   .     S
N510   H654    1.030   1_455 S
N510   C631    1.426   1_455 S
C533   O589    1.314   .     A
C533   O602    1.304   .     A
C533   C536    1.477   .     S
C534   C536    1.417   .     A
C534   N588    1.435   .     S
C535   C557    1.409   .     A
C535   C544    1.476   .     S
C535   C558    1.411   .     A
C536   C556    1.419   .     A
C537   C548    1.475   .     S
C537   N584    1.373   .     A
C537   C1907   1.426   1_554 S
C538   N583    1.386   .     A
C538   C549    1.489   .     S
C538   C1224   1.426   .     S
C539   C550    1.490   .     S
C539   N583    1.384   .     A
C539   C1221   1.426   .     S
C540   C551    1.480   .     S
C540   N584    1.372   .     A
C540   C1906   1.426   1_554 S
C541   H576    1.112   .     S
C542   N586    1.451   .     S
C542   H580    1.111   .     S
C542   H579    1.107   .     S
C542   H581    1.108   .     S
C543   O590    1.393   .     S
C543   O608    1.223   .     D
C543   C556    1.489   .     S
C544   O600    1.304   .     A
C544   O603    1.312   .     A
C545   O591    1.222   .     D
C545   O592    1.394   .     S
C545   C557    1.497   .     S
C546   H566    1.110   .     S
C546   H565    1.111   .     S
C546   N587    1.449   .     S
C546   H564    1.111   .     S
C547   H570    1.107   .     S
C547   N588    1.450   .     S
C547   H569    1.111   .     S
C547   H568    1.112   .     S
C548   O594    1.395   .     S
C548   O593    1.222   .     D
C549   O595    1.223   .     D
C549   O596    1.388   .     S
C550   O598    1.396   .     S
C550   O597    1.216   .     D
C551   O599    1.220   .     D
C551   O601    1.397   .     S
C552   C554    1.450   .     S
C552   O606    1.311   .     A
C552   O604    1.289   .     A
C553   O607    1.302   .     A
C553   C555    1.445   .     S
C553   O605    1.296   .     A
C555   C630    1.353   .     S
C555   N662    1.426   .     S
C557   C78     1.408   1_565 S
C558   N587    1.432   .     S
C558   C100    1.398   1_565 S
Cu559  Cu560   2.715   .     S
Cu559  N583    2.040   .     S
Cu559  O607    1.972   .     S
Cu559  O603    1.968   .     S
Cu559  O589    1.966   .     S
Cu559  O604    1.973   .     S
Cu560  N584    2.040   .     S
Cu560  O606    1.972   .     S
Cu560  O605    1.973   .     S
Cu560  O600    1.966   .     S
Cu560  O602    1.968   .     S
H561   N585    1.026   .     S
H562   O592    1.012   .     S
H563   N587    1.029   .     S
H567   N588    1.023   .     S
H571   O594    1.012   .     S
H572   C617    1.109   .     S
H573   O596    1.015   .     S
H574   O598    1.013   .     S
H575   O601    1.014   .     S
H577   C617    1.103   .     S
H578   N662    1.030   .     S
H582   O590    1.014   .     S
N585   C630    1.424   .     S
N585   C617    1.448   .     S
C609   O665    1.314   .     A
C609   O678    1.304   .     A
C609   C612    1.477   .     S
C610   C612    1.417   .     A
C610   N664    1.435   .     S
C611   C633    1.409   .     A
C611   C620    1.476   .     S
C611   C634    1.411   .     A
C612   C632    1.419   .     A
C613   C624    1.475   .     S
C613   N660    1.373   .     A
C613   C1983   1.426   1_554 S
C614   N659    1.386   .     A
C614   C625    1.489   .     S
C614   C1300   1.426   .     S
C615   C626    1.490   .     S
C615   N659    1.384   .     A
C615   C1297   1.426   .     S
C616   C627    1.480   .     S
C616   N660    1.372   .     A
C616   C1982   1.426   1_554 S
C617   H652    1.112   .     S
C618   N662    1.451   .     S
C618   H656    1.111   .     S
C618   H655    1.107   .     S
C618   H657    1.108   .     S
C619   O666    1.393   .     S
C619   O684    1.223   .     D
C619   C632    1.489   .     S
C620   O676    1.304   .     A
C620   O679    1.312   .     A
C621   O667    1.222   .     D
C621   O668    1.394   .     S
C621   C633    1.497   .     S
C622   H642    1.110   .     S
C622   H641    1.111   .     S
C622   N663    1.449   .     S
C622   H640    1.111   .     S
C623   H646    1.107   .     S
C623   N664    1.450   .     S
C623   H645    1.111   .     S
C623   H644    1.112   .     S
C624   O670    1.395   .     S
C624   O669    1.222   .     D
C625   O671    1.223   .     D
C625   O672    1.388   .     S
C626   O674    1.396   .     S
C626   O673    1.216   .     D
C627   O675    1.220   .     D
C627   O677    1.397   .     S
C628   C630    1.450   .     S
C628   O682    1.311   .     A
C628   O680    1.289   .     A
C629   O683    1.302   .     A
C629   C631    1.445   .     S
C629   O681    1.296   .     A
C631   C478    1.353   1_655 S
C631   N510    1.426   1_655 S
C633   C154    1.408   1_565 S
C634   N663    1.432   .     S
C634   C176    1.398   1_565 S
Cu635  Cu636   2.715   .     S
Cu635  N659    2.040   .     S
Cu635  O683    1.972   .     S
Cu635  O679    1.968   .     S
Cu635  O665    1.966   .     S
Cu635  O680    1.973   .     S
Cu636  N660    2.040   .     S
Cu636  O682    1.972   .     S
Cu636  O681    1.973   .     S
Cu636  O676    1.966   .     S
Cu636  O678    1.968   .     S
H637   N661    1.026   .     S
H638   O668    1.012   .     S
H639   N663    1.029   .     S
H643   N664    1.023   .     S
H647   O670    1.012   .     S
H648   C465    1.109   1_655 S
H649   O672    1.015   .     S
H650   O674    1.013   .     S
H651   O677    1.014   .     S
H653   C465    1.103   1_655 S
H654   N510    1.030   1_655 S
H658   O666    1.014   .     S
N661   C478    1.424   1_655 S
N661   C465    1.448   1_655 S
C685   O741    1.314   .     A
C685   O754    1.304   .     A
C685   C688    1.477   .     S
C686   C688    1.417   .     A
C686   N740    1.435   .     S
C686   C1165   1.408   1_545 S
C687   C709    1.409   .     A
C687   C696    1.476   .     S
C687   C710    1.411   .     A
C688   C708    1.419   .     A
C689   C700    1.475   .     S
C689   N736    1.373   .     A
C690   N735    1.386   .     A
C690   C701    1.489   .     S
C690   C1376   1.426   .     S
C691   C702    1.490   .     S
C691   N735    1.384   .     A
C691   C1373   1.426   .     S
C692   C703    1.480   .     S
C692   N736    1.372   .     A
C693   H728    1.112   .     S
C693   H876    1.109   1_455 S
C693   H881    1.103   1_455 S
C693   N889    1.448   1_455 S
C694   N738    1.451   .     S
C694   H732    1.111   .     S
C694   H731    1.107   .     S
C694   H733    1.108   .     S
C695   O742    1.393   .     S
C695   O760    1.223   .     D
C695   C708    1.489   .     S
C696   O752    1.304   .     A
C696   O755    1.312   .     A
C697   O743    1.222   .     D
C697   O744    1.394   .     S
C697   C709    1.497   .     S
C698   H718    1.110   .     S
C698   H717    1.111   .     S
C698   N739    1.449   .     S
C698   H716    1.111   .     S
C699   H722    1.107   .     S
C699   N740    1.450   .     S
C699   H721    1.111   .     S
C699   H720    1.112   .     S
C700   O746    1.395   .     S
C700   O745    1.222   .     D
C701   O747    1.223   .     D
C701   O748    1.388   .     S
C702   O750    1.396   .     S
C702   O749    1.216   .     D
C703   O751    1.220   .     D
C703   O753    1.397   .     S
C704   C706    1.450   .     S
C704   O758    1.311   .     A
C704   O756    1.289   .     A
C705   O759    1.302   .     A
C705   C707    1.445   .     S
C705   O757    1.296   .     A
C706   C859    1.353   1_455 S
C706   N889    1.424   1_455 S
C707   C782    1.353   .     S
C707   N814    1.426   .     S
C708   C1166   1.398   1_545 S
C709   C914    1.408   .     S
C710   N739    1.432   .     S
C710   C936    1.398   .     S
Cu711  Cu712   2.715   .     S
Cu711  N735    2.040   .     S
Cu711  O759    1.972   .     S
Cu711  O755    1.968   .     S
Cu711  O741    1.966   .     S
Cu711  O756    1.973   .     S
Cu712  N736    2.040   .     S
Cu712  O758    1.972   .     S
Cu712  O757    1.973   .     S
Cu712  O752    1.966   .     S
Cu712  O754    1.968   .     S
H713   N737    1.026   .     S
H714   O744    1.012   .     S
H715   N739    1.029   .     S
H719   N740    1.023   .     S
H723   O746    1.012   .     S
H724   C769    1.109   .     S
H725   O748    1.015   .     S
H726   O750    1.013   .     S
H727   O753    1.014   .     S
H729   C769    1.103   .     S
H730   N814    1.030   .     S
H734   O742    1.014   .     S
N737   C782    1.424   .     S
N737   C769    1.448   .     S
N738   H882    1.030   1_455 S
N738   C859    1.426   1_455 S
C761   O817    1.314   .     A
C761   O830    1.304   .     A
C761   C764    1.477   .     S
C762   C764    1.417   .     A
C762   N816    1.435   .     S
C762   C1241   1.408   1_545 S
C763   C785    1.409   .     A
C763   C772    1.476   .     S
C763   C786    1.411   .     A
C764   C784    1.419   .     A
C765   C776    1.475   .     S
C765   N812    1.373   .     A
C766   N811    1.386   .     A
C766   C777    1.489   .     S
C766   C1452   1.426   .     S
C767   C778    1.490   .     S
C767   N811    1.384   .     A
C767   C1449   1.426   .     S
C768   C779    1.480   .     S
C768   N812    1.372   .     A
C769   H804    1.112   .     S
C770   N814    1.451   .     S
C770   H808    1.111   .     S
C770   H807    1.107   .     S
C770   H809    1.108   .     S
C771   O818    1.393   .     S
C771   O836    1.223   .     D
C771   C784    1.489   .     S
C772   O828    1.304   .     A
C772   O831    1.312   .     A
C773   O819    1.222   .     D
C773   O820    1.394   .     S
C773   C785    1.497   .     S
C774   H794    1.110   .     S
C774   H793    1.111   .     S
C774   N815    1.449   .     S
C774   H792    1.111   .     S
C775   H798    1.107   .     S
C775   N816    1.450   .     S
C775   H797    1.111   .     S
C775   H796    1.112   .     S
C776   O822    1.395   .     S
C776   O821    1.222   .     D
C777   O823    1.223   .     D
C777   O824    1.388   .     S
C778   O826    1.396   .     S
C778   O825    1.216   .     D
C779   O827    1.220   .     D
C779   O829    1.397   .     S
C780   C782    1.450   .     S
C780   O834    1.311   .     A
C780   O832    1.289   .     A
C781   O835    1.302   .     A
C781   C783    1.445   .     S
C781   O833    1.296   .     A
C783   C858    1.353   .     S
C783   N890    1.426   .     S
C784   C1242   1.398   1_545 S
C785   C990    1.408   .     S
C786   N815    1.432   .     S
C786   C1012   1.398   .     S
Cu787  Cu788   2.715   .     S
Cu787  N811    2.040   .     S
Cu787  O835    1.972   .     S
Cu787  O831    1.968   .     S
Cu787  O817    1.966   .     S
Cu787  O832    1.973   .     S
Cu788  N812    2.040   .     S
Cu788  O834    1.972   .     S
Cu788  O833    1.973   .     S
Cu788  O828    1.966   .     S
Cu788  O830    1.968   .     S
H789   N813    1.026   .     S
H790   O820    1.012   .     S
H791   N815    1.029   .     S
H795   N816    1.023   .     S
H799   O822    1.012   .     S
H800   C845    1.109   .     S
H801   O824    1.015   .     S
H802   O826    1.013   .     S
H803   O829    1.014   .     S
H805   C845    1.103   .     S
H806   N890    1.030   .     S
H810   O818    1.014   .     S
N813   C858    1.424   .     S
N813   C845    1.448   .     S
C837   O893    1.314   .     A
C837   O906    1.304   .     A
C837   C840    1.477   .     S
C838   C840    1.417   .     A
C838   N892    1.435   .     S
C838   C1317   1.408   1_545 S
C839   C861    1.409   .     A
C839   C848    1.476   .     S
C839   C862    1.411   .     A
C840   C860    1.419   .     A
C841   C852    1.475   .     S
C841   N888    1.373   .     A
C842   N887    1.386   .     A
C842   C853    1.489   .     S
C842   C1528   1.426   .     S
C843   C854    1.490   .     S
C843   N887    1.384   .     A
C843   C1525   1.426   .     S
C844   C855    1.480   .     S
C844   N888    1.372   .     A
C845   H880    1.112   .     S
C846   N890    1.451   .     S
C846   H884    1.111   .     S
C846   H883    1.107   .     S
C846   H885    1.108   .     S
C847   O894    1.393   .     S
C847   O912    1.223   .     D
C847   C860    1.489   .     S
C848   O904    1.304   .     A
C848   O907    1.312   .     A
C849   O895    1.222   .     D
C849   O896    1.394   .     S
C849   C861    1.497   .     S
C850   H870    1.110   .     S
C850   H869    1.111   .     S
C850   N891    1.449   .     S
C850   H868    1.111   .     S
C851   H874    1.107   .     S
C851   N892    1.450   .     S
C851   H873    1.111   .     S
C851   H872    1.112   .     S
C852   O898    1.395   .     S
C852   O897    1.222   .     D
C853   O899    1.223   .     D
C853   O900    1.388   .     S
C854   O902    1.396   .     S
C854   O901    1.216   .     D
C855   O903    1.220   .     D
C855   O905    1.397   .     S
C856   C858    1.450   .     S
C856   O910    1.311   .     A
C856   O908    1.289   .     A
C857   O911    1.302   .     A
C857   C859    1.445   .     S
C857   O909    1.296   .     A
C859   C706    1.353   1_655 S
C859   N738    1.426   1_655 S
C860   C1318   1.398   1_545 S
C861   C1066   1.408   .     S
C862   N891    1.432   .     S
C862   C1088   1.398   .     S
Cu863  Cu864   2.715   .     S
Cu863  N887    2.040   .     S
Cu863  O911    1.972   .     S
Cu863  O907    1.968   .     S
Cu863  O893    1.966   .     S
Cu863  O908    1.973   .     S
Cu864  N888    2.040   .     S
Cu864  O910    1.972   .     S
Cu864  O909    1.973   .     S
Cu864  O904    1.966   .     S
Cu864  O906    1.968   .     S
H865   N889    1.026   .     S
H866   O896    1.012   .     S
H867   N891    1.029   .     S
H871   N892    1.023   .     S
H875   O898    1.012   .     S
H876   C693    1.109   1_655 S
H877   O900    1.015   .     S
H878   O902    1.013   .     S
H879   O905    1.014   .     S
H881   C693    1.103   1_655 S
H882   N738    1.030   1_655 S
H886   O894    1.014   .     S
N889   C706    1.424   1_655 S
N889   C693    1.448   1_655 S
C913   O969    1.314   .     A
C913   O982    1.304   .     A
C913   C916    1.477   .     S
C914   C916    1.417   .     A
C914   N968    1.435   .     S
C915   C937    1.409   .     A
C915   C924    1.476   .     S
C915   C938    1.411   .     A
C916   C936    1.419   .     A
C917   C928    1.475   .     S
C917   N964    1.373   .     A
C918   N963    1.386   .     A
C918   C929    1.489   .     S
C918   C1604   1.426   .     S
C919   C930    1.490   .     S
C919   N963    1.384   .     A
C919   C1601   1.426   .     S
C920   C931    1.480   .     S
C920   N964    1.372   .     A
C921   H956    1.112   .     S
C921   H1104   1.109   1_455 S
C921   H1109   1.103   1_455 S
C921   N1117   1.448   1_455 S
C922   N966    1.451   .     S
C922   H960    1.111   .     S
C922   H959    1.107   .     S
C922   H961    1.108   .     S
C923   O970    1.393   .     S
C923   O988    1.223   .     D
C923   C936    1.489   .     S
C924   O980    1.304   .     A
C924   O983    1.312   .     A
C925   O971    1.222   .     D
C925   O972    1.394   .     S
C925   C937    1.497   .     S
C926   H946    1.110   .     S
C926   H945    1.111   .     S
C926   N967    1.449   .     S
C926   H944    1.111   .     S
C927   H950    1.107   .     S
C927   N968    1.450   .     S
C927   H949    1.111   .     S
C927   H948    1.112   .     S
C928   O974    1.395   .     S
C928   O973    1.222   .     D
C929   O975    1.223   .     D
C929   O976    1.388   .     S
C930   O978    1.396   .     S
C930   O977    1.216   .     D
C931   O979    1.220   .     D
C931   O981    1.397   .     S
C932   C934    1.450   .     S
C932   O986    1.311   .     A
C932   O984    1.289   .     A
C933   O987    1.302   .     A
C933   C935    1.445   .     S
C933   O985    1.296   .     A
C934   C1087   1.353   1_455 S
C934   N1117   1.424   1_455 S
C935   C1010   1.353   .     S
C935   N1042   1.426   .     S
C937   C1142   1.408   .     S
C938   N967    1.432   .     S
C938   C1164   1.398   .     S
Cu939  Cu940   2.715   .     S
Cu939  N963    2.040   .     S
Cu939  O987    1.972   .     S
Cu939  O983    1.968   .     S
Cu939  O969    1.966   .     S
Cu939  O984    1.973   .     S
Cu940  N964    2.040   .     S
Cu940  O986    1.972   .     S
Cu940  O985    1.973   .     S
Cu940  O980    1.966   .     S
Cu940  O982    1.968   .     S
H941   N965    1.026   .     S
H942   O972    1.012   .     S
H943   N967    1.029   .     S
H947   N968    1.023   .     S
H951   O974    1.012   .     S
H952   C997    1.109   .     S
H953   O976    1.015   .     S
H954   O978    1.013   .     S
H955   O981    1.014   .     S
H957   C997    1.103   .     S
H958   N1042   1.030   .     S
H962   O970    1.014   .     S
N965   C1010   1.424   .     S
N965   C997    1.448   .     S
N966   H1110   1.030   1_455 S
N966   C1087   1.426   1_455 S
C989   O1045   1.314   .     A
C989   O1058   1.304   .     A
C989   C992    1.477   .     S
C990   C992    1.417   .     A
C990   N1044   1.435   .     S
C991   C1013   1.409   .     A
C991   C1000   1.476   .     S
C991   C1014   1.411   .     A
C992   C1012   1.419   .     A
C993   C1004   1.475   .     S
C993   N1040   1.373   .     A
C994   N1039   1.386   .     A
C994   C1005   1.489   .     S
C994   C1680   1.426   .     S
C995   C1006   1.490   .     S
C995   N1039   1.384   .     A
C995   C1677   1.426   .     S
C996   C1007   1.480   .     S
C996   N1040   1.372   .     A
C997   H1032   1.112   .     S
C998   N1042   1.451   .     S
C998   H1036   1.111   .     S
C998   H1035   1.107   .     S
C998   H1037   1.108   .     S
C999   O1046   1.393   .     S
C999   O1064   1.223   .     D
C999   C1012   1.489   .     S
C1000  O1056   1.304   .     A
C1000  O1059   1.312   .     A
C1001  O1047   1.222   .     D
C1001  O1048   1.394   .     S
C1001  C1013   1.497   .     S
C1002  H1022   1.110   .     S
C1002  H1021   1.111   .     S
C1002  N1043   1.449   .     S
C1002  H1020   1.111   .     S
C1003  H1026   1.107   .     S
C1003  N1044   1.450   .     S
C1003  H1025   1.111   .     S
C1003  H1024   1.112   .     S
C1004  O1050   1.395   .     S
C1004  O1049   1.222   .     D
C1005  O1051   1.223   .     D
C1005  O1052   1.388   .     S
C1006  O1054   1.396   .     S
C1006  O1053   1.216   .     D
C1007  O1055   1.220   .     D
C1007  O1057   1.397   .     S
C1008  C1010   1.450   .     S
C1008  O1062   1.311   .     A
C1008  O1060   1.289   .     A
C1009  O1063   1.302   .     A
C1009  C1011   1.445   .     S
C1009  O1061   1.296   .     A
C1011  C1086   1.353   .     S
C1011  N1118   1.426   .     S
C1013  C1218   1.408   .     S
C1014  N1043   1.432   .     S
C1014  C1240   1.398   .     S
Cu1015 Cu1016  2.715   .     S
Cu1015 N1039   2.040   .     S
Cu1015 O1063   1.972   .     S
Cu1015 O1059   1.968   .     S
Cu1015 O1045   1.966   .     S
Cu1015 O1060   1.973   .     S
Cu1016 N1040   2.040   .     S
Cu1016 O1062   1.972   .     S
Cu1016 O1061   1.973   .     S
Cu1016 O1056   1.966   .     S
Cu1016 O1058   1.968   .     S
H1017  N1041   1.026   .     S
H1018  O1048   1.012   .     S
H1019  N1043   1.029   .     S
H1023  N1044   1.023   .     S
H1027  O1050   1.012   .     S
H1028  C1073   1.109   .     S
H1029  O1052   1.015   .     S
H1030  O1054   1.013   .     S
H1031  O1057   1.014   .     S
H1033  C1073   1.103   .     S
H1034  N1118   1.030   .     S
H1038  O1046   1.014   .     S
N1041  C1086   1.424   .     S
N1041  C1073   1.448   .     S
C1065  O1121   1.314   .     A
C1065  O1134   1.304   .     A
C1065  C1068   1.477   .     S
C1066  C1068   1.417   .     A
C1066  N1120   1.435   .     S
C1067  C1089   1.409   .     A
C1067  C1076   1.476   .     S
C1067  C1090   1.411   .     A
C1068  C1088   1.419   .     A
C1069  C1080   1.475   .     S
C1069  N1116   1.373   .     A
C1070  N1115   1.386   .     A
C1070  C1081   1.489   .     S
C1070  C1756   1.426   .     S
C1071  C1082   1.490   .     S
C1071  N1115   1.384   .     A
C1071  C1753   1.426   .     S
C1072  C1083   1.480   .     S
C1072  N1116   1.372   .     A
C1073  H1108   1.112   .     S
C1074  N1118   1.451   .     S
C1074  H1112   1.111   .     S
C1074  H1111   1.107   .     S
C1074  H1113   1.108   .     S
C1075  O1122   1.393   .     S
C1075  O1140   1.223   .     D
C1075  C1088   1.489   .     S
C1076  O1132   1.304   .     A
C1076  O1135   1.312   .     A
C1077  O1123   1.222   .     D
C1077  O1124   1.394   .     S
C1077  C1089   1.497   .     S
C1078  H1098   1.110   .     S
C1078  H1097   1.111   .     S
C1078  N1119   1.449   .     S
C1078  H1096   1.111   .     S
C1079  H1102   1.107   .     S
C1079  N1120   1.450   .     S
C1079  H1101   1.111   .     S
C1079  H1100   1.112   .     S
C1080  O1126   1.395   .     S
C1080  O1125   1.222   .     D
C1081  O1127   1.223   .     D
C1081  O1128   1.388   .     S
C1082  O1130   1.396   .     S
C1082  O1129   1.216   .     D
C1083  O1131   1.220   .     D
C1083  O1133   1.397   .     S
C1084  C1086   1.450   .     S
C1084  O1138   1.311   .     A
C1084  O1136   1.289   .     A
C1085  O1139   1.302   .     A
C1085  C1087   1.445   .     S
C1085  O1137   1.296   .     A
C1087  C934    1.353   1_655 S
C1087  N966    1.426   1_655 S
C1089  C1294   1.408   .     S
C1090  N1119   1.432   .     S
C1090  C1316   1.398   .     S
Cu1091 Cu1092  2.715   .     S
Cu1091 N1115   2.040   .     S
Cu1091 O1139   1.972   .     S
Cu1091 O1135   1.968   .     S
Cu1091 O1121   1.966   .     S
Cu1091 O1136   1.973   .     S
Cu1092 N1116   2.040   .     S
Cu1092 O1138   1.972   .     S
Cu1092 O1137   1.973   .     S
Cu1092 O1132   1.966   .     S
Cu1092 O1134   1.968   .     S
H1093  N1117   1.026   .     S
H1094  O1124   1.012   .     S
H1095  N1119   1.029   .     S
H1099  N1120   1.023   .     S
H1103  O1126   1.012   .     S
H1104  C921    1.109   1_655 S
H1105  O1128   1.015   .     S
H1106  O1130   1.013   .     S
H1107  O1133   1.014   .     S
H1109  C921    1.103   1_655 S
H1110  N966    1.030   1_655 S
H1114  O1122   1.014   .     S
N1117  C934    1.424   1_655 S
N1117  C921    1.448   1_655 S
C1141  O1197   1.314   .     A
C1141  O1210   1.304   .     A
C1141  C1144   1.477   .     S
C1142  C1144   1.417   .     A
C1142  N1196   1.435   .     S
C1143  C1165   1.409   .     A
C1143  C1152   1.476   .     S
C1143  C1166   1.411   .     A
C1144  C1164   1.419   .     A
C1145  C1156   1.475   .     S
C1145  N1192   1.373   .     A
C1146  N1191   1.386   .     A
C1146  C1157   1.489   .     S
C1146  C1832   1.426   .     S
C1147  C1158   1.490   .     S
C1147  N1191   1.384   .     A
C1147  C1829   1.426   .     S
C1148  C1159   1.480   .     S
C1148  N1192   1.372   .     A
C1149  H1184   1.112   .     S
C1149  H1332   1.109   1_455 S
C1149  H1337   1.103   1_455 S
C1149  N1345   1.448   1_455 S
C1150  N1194   1.451   .     S
C1150  H1188   1.111   .     S
C1150  H1187   1.107   .     S
C1150  H1189   1.108   .     S
C1151  O1198   1.393   .     S
C1151  O1216   1.223   .     D
C1151  C1164   1.489   .     S
C1152  O1208   1.304   .     A
C1152  O1211   1.312   .     A
C1153  O1199   1.222   .     D
C1153  O1200   1.394   .     S
C1153  C1165   1.497   .     S
C1154  H1174   1.110   .     S
C1154  H1173   1.111   .     S
C1154  N1195   1.449   .     S
C1154  H1172   1.111   .     S
C1155  H1178   1.107   .     S
C1155  N1196   1.450   .     S
C1155  H1177   1.111   .     S
C1155  H1176   1.112   .     S
C1156  O1202   1.395   .     S
C1156  O1201   1.222   .     D
C1157  O1203   1.223   .     D
C1157  O1204   1.388   .     S
C1158  O1206   1.396   .     S
C1158  O1205   1.216   .     D
C1159  O1207   1.220   .     D
C1159  O1209   1.397   .     S
C1160  C1162   1.450   .     S
C1160  O1214   1.311   .     A
C1160  O1212   1.289   .     A
C1161  O1215   1.302   .     A
C1161  C1163   1.445   .     S
C1161  O1213   1.296   .     A
C1162  C1315   1.353   1_455 S
C1162  N1345   1.424   1_455 S
C1163  C1238   1.353   .     S
C1163  N1270   1.426   .     S
C1165  C686    1.408   1_565 S
C1166  N1195   1.432   .     S
C1166  C708    1.398   1_565 S
Cu1167 Cu1168  2.715   .     S
Cu1167 N1191   2.040   .     S
Cu1167 O1215   1.972   .     S
Cu1167 O1211   1.968   .     S
Cu1167 O1197   1.966   .     S
Cu1167 O1212   1.973   .     S
Cu1168 N1192   2.040   .     S
Cu1168 O1214   1.972   .     S
Cu1168 O1213   1.973   .     S
Cu1168 O1208   1.966   .     S
Cu1168 O1210   1.968   .     S
H1169  N1193   1.026   .     S
H1170  O1200   1.012   .     S
H1171  N1195   1.029   .     S
H1175  N1196   1.023   .     S
H1179  O1202   1.012   .     S
H1180  C1225   1.109   .     S
H1181  O1204   1.015   .     S
H1182  O1206   1.013   .     S
H1183  O1209   1.014   .     S
H1185  C1225   1.103   .     S
H1186  N1270   1.030   .     S
H1190  O1198   1.014   .     S
N1193  C1238   1.424   .     S
N1193  C1225   1.448   .     S
N1194  H1338   1.030   1_455 S
N1194  C1315   1.426   1_455 S
C1217  O1273   1.314   .     A
C1217  O1286   1.304   .     A
C1217  C1220   1.477   .     S
C1218  C1220   1.417   .     A
C1218  N1272   1.435   .     S
C1219  C1241   1.409   .     A
C1219  C1228   1.476   .     S
C1219  C1242   1.411   .     A
C1220  C1240   1.419   .     A
C1221  C1232   1.475   .     S
C1221  N1268   1.373   .     A
C1222  N1267   1.386   .     A
C1222  C1233   1.489   .     S
C1222  C1908   1.426   .     S
C1223  C1234   1.490   .     S
C1223  N1267   1.384   .     A
C1223  C1905   1.426   .     S
C1224  C1235   1.480   .     S
C1224  N1268   1.372   .     A
C1225  H1260   1.112   .     S
C1226  N1270   1.451   .     S
C1226  H1264   1.111   .     S
C1226  H1263   1.107   .     S
C1226  H1265   1.108   .     S
C1227  O1274   1.393   .     S
C1227  O1292   1.223   .     D
C1227  C1240   1.489   .     S
C1228  O1284   1.304   .     A
C1228  O1287   1.312   .     A
C1229  O1275   1.222   .     D
C1229  O1276   1.394   .     S
C1229  C1241   1.497   .     S
C1230  H1250   1.110   .     S
C1230  H1249   1.111   .     S
C1230  N1271   1.449   .     S
C1230  H1248   1.111   .     S
C1231  H1254   1.107   .     S
C1231  N1272   1.450   .     S
C1231  H1253   1.111   .     S
C1231  H1252   1.112   .     S
C1232  O1278   1.395   .     S
C1232  O1277   1.222   .     D
C1233  O1279   1.223   .     D
C1233  O1280   1.388   .     S
C1234  O1282   1.396   .     S
C1234  O1281   1.216   .     D
C1235  O1283   1.220   .     D
C1235  O1285   1.397   .     S
C1236  C1238   1.450   .     S
C1236  O1290   1.311   .     A
C1236  O1288   1.289   .     A
C1237  O1291   1.302   .     A
C1237  C1239   1.445   .     S
C1237  O1289   1.296   .     A
C1239  C1314   1.353   .     S
C1239  N1346   1.426   .     S
C1241  C762    1.408   1_565 S
C1242  N1271   1.432   .     S
C1242  C784    1.398   1_565 S
Cu1243 Cu1244  2.715   .     S
Cu1243 N1267   2.040   .     S
Cu1243 O1291   1.972   .     S
Cu1243 O1287   1.968   .     S
Cu1243 O1273   1.966   .     S
Cu1243 O1288   1.973   .     S
Cu1244 N1268   2.040   .     S
Cu1244 O1290   1.972   .     S
Cu1244 O1289   1.973   .     S
Cu1244 O1284   1.966   .     S
Cu1244 O1286   1.968   .     S
H1245  N1269   1.026   .     S
H1246  O1276   1.012   .     S
H1247  N1271   1.029   .     S
H1251  N1272   1.023   .     S
H1255  O1278   1.012   .     S
H1256  C1301   1.109   .     S
H1257  O1280   1.015   .     S
H1258  O1282   1.013   .     S
H1259  O1285   1.014   .     S
H1261  C1301   1.103   .     S
H1262  N1346   1.030   .     S
H1266  O1274   1.014   .     S
N1269  C1314   1.424   .     S
N1269  C1301   1.448   .     S
C1293  O1349   1.314   .     A
C1293  O1362   1.304   .     A
C1293  C1296   1.477   .     S
C1294  C1296   1.417   .     A
C1294  N1348   1.435   .     S
C1295  C1317   1.409   .     A
C1295  C1304   1.476   .     S
C1295  C1318   1.411   .     A
C1296  C1316   1.419   .     A
C1297  C1308   1.475   .     S
C1297  N1344   1.373   .     A
C1298  N1343   1.386   .     A
C1298  C1309   1.489   .     S
C1298  C1984   1.426   .     S
C1299  C1310   1.490   .     S
C1299  N1343   1.384   .     A
C1299  C1981   1.426   .     S
C1300  C1311   1.480   .     S
C1300  N1344   1.372   .     A
C1301  H1336   1.112   .     S
C1302  N1346   1.451   .     S
C1302  H1340   1.111   .     S
C1302  H1339   1.107   .     S
C1302  H1341   1.108   .     S
C1303  O1350   1.393   .     S
C1303  O1368   1.223   .     D
C1303  C1316   1.489   .     S
C1304  O1360   1.304   .     A
C1304  O1363   1.312   .     A
C1305  O1351   1.222   .     D
C1305  O1352   1.394   .     S
C1305  C1317   1.497   .     S
C1306  H1326   1.110   .     S
C1306  H1325   1.111   .     S
C1306  N1347   1.449   .     S
C1306  H1324   1.111   .     S
C1307  H1330   1.107   .     S
C1307  N1348   1.450   .     S
C1307  H1329   1.111   .     S
C1307  H1328   1.112   .     S
C1308  O1354   1.395   .     S
C1308  O1353   1.222   .     D
C1309  O1355   1.223   .     D
C1309  O1356   1.388   .     S
C1310  O1358   1.396   .     S
C1310  O1357   1.216   .     D
C1311  O1359   1.220   .     D
C1311  O1361   1.397   .     S
C1312  C1314   1.450   .     S
C1312  O1366   1.311   .     A
C1312  O1364   1.289   .     A
C1313  O1367   1.302   .     A
C1313  C1315   1.445   .     S
C1313  O1365   1.296   .     A
C1315  C1162   1.353   1_655 S
C1315  N1194   1.426   1_655 S
C1317  C838    1.408   1_565 S
C1318  N1347   1.432   .     S
C1318  C860    1.398   1_565 S
Cu1319 Cu1320  2.715   .     S
Cu1319 N1343   2.040   .     S
Cu1319 O1367   1.972   .     S
Cu1319 O1363   1.968   .     S
Cu1319 O1349   1.966   .     S
Cu1319 O1364   1.973   .     S
Cu1320 N1344   2.040   .     S
Cu1320 O1366   1.972   .     S
Cu1320 O1365   1.973   .     S
Cu1320 O1360   1.966   .     S
Cu1320 O1362   1.968   .     S
H1321  N1345   1.026   .     S
H1322  O1352   1.012   .     S
H1323  N1347   1.029   .     S
H1327  N1348   1.023   .     S
H1331  O1354   1.012   .     S
H1332  C1149   1.109   1_655 S
H1333  O1356   1.015   .     S
H1334  O1358   1.013   .     S
H1335  O1361   1.014   .     S
H1337  C1149   1.103   1_655 S
H1338  N1194   1.030   1_655 S
H1342  O1350   1.014   .     S
N1345  C1162   1.424   1_655 S
N1345  C1149   1.448   1_655 S
C1369  O1425   1.314   .     A
C1369  O1438   1.304   .     A
C1369  C1372   1.477   .     S
C1370  C1372   1.417   .     A
C1370  N1424   1.435   .     S
C1370  C1849   1.408   1_545 S
C1371  C1393   1.409   .     A
C1371  C1380   1.476   .     S
C1371  C1394   1.411   .     A
C1372  C1392   1.419   .     A
C1373  C1384   1.475   .     S
C1373  N1420   1.373   .     A
C1374  N1419   1.386   .     A
C1374  C1385   1.489   .     S
C1374  C8      1.426   1_556 S
C1375  C1386   1.490   .     S
C1375  N1419   1.384   .     A
C1375  C5      1.426   1_556 S
C1376  C1387   1.480   .     S
C1376  N1420   1.372   .     A
C1377  H1412   1.112   .     S
C1377  H1560   1.109   1_455 S
C1377  H1565   1.103   1_455 S
C1377  N1573   1.448   1_455 S
C1378  N1422   1.451   .     S
C1378  H1416   1.111   .     S
C1378  H1415   1.107   .     S
C1378  H1417   1.108   .     S
C1379  O1426   1.393   .     S
C1379  O1444   1.223   .     D
C1379  C1392   1.489   .     S
C1380  O1436   1.304   .     A
C1380  O1439   1.312   .     A
C1381  O1427   1.222   .     D
C1381  O1428   1.394   .     S
C1381  C1393   1.497   .     S
C1382  H1402   1.110   .     S
C1382  H1401   1.111   .     S
C1382  N1423   1.449   .     S
C1382  H1400   1.111   .     S
C1383  H1406   1.107   .     S
C1383  N1424   1.450   .     S
C1383  H1405   1.111   .     S
C1383  H1404   1.112   .     S
C1384  O1430   1.395   .     S
C1384  O1429   1.222   .     D
C1385  O1431   1.223   .     D
C1385  O1432   1.388   .     S
C1386  O1434   1.396   .     S
C1386  O1433   1.216   .     D
C1387  O1435   1.220   .     D
C1387  O1437   1.397   .     S
C1388  C1390   1.450   .     S
C1388  O1442   1.311   .     A
C1388  O1440   1.289   .     A
C1389  O1443   1.302   .     A
C1389  C1391   1.445   .     S
C1389  O1441   1.296   .     A
C1390  C1543   1.353   1_455 S
C1390  N1573   1.424   1_455 S
C1391  C1466   1.353   .     S
C1391  N1498   1.426   .     S
C1392  C1850   1.398   1_545 S
C1393  C1598   1.408   .     S
C1394  N1423   1.432   .     S
C1394  C1620   1.398   .     S
Cu1395 Cu1396  2.715   .     S
Cu1395 N1419   2.040   .     S
Cu1395 O1443   1.972   .     S
Cu1395 O1439   1.968   .     S
Cu1395 O1425   1.966   .     S
Cu1395 O1440   1.973   .     S
Cu1396 N1420   2.040   .     S
Cu1396 O1442   1.972   .     S
Cu1396 O1441   1.973   .     S
Cu1396 O1436   1.966   .     S
Cu1396 O1438   1.968   .     S
H1397  N1421   1.026   .     S
H1398  O1428   1.012   .     S
H1399  N1423   1.029   .     S
H1403  N1424   1.023   .     S
H1407  O1430   1.012   .     S
H1408  C1453   1.109   .     S
H1409  O1432   1.015   .     S
H1410  O1434   1.013   .     S
H1411  O1437   1.014   .     S
H1413  C1453   1.103   .     S
H1414  N1498   1.030   .     S
H1418  O1426   1.014   .     S
N1421  C1466   1.424   .     S
N1421  C1453   1.448   .     S
N1422  H1566   1.030   1_455 S
N1422  C1543   1.426   1_455 S
C1445  O1501   1.314   .     A
C1445  O1514   1.304   .     A
C1445  C1448   1.477   .     S
C1446  C1448   1.417   .     A
C1446  N1500   1.435   .     S
C1446  C1925   1.408   1_545 S
C1447  C1469   1.409   .     A
C1447  C1456   1.476   .     S
C1447  C1470   1.411   .     A
C1448  C1468   1.419   .     A
C1449  C1460   1.475   .     S
C1449  N1496   1.373   .     A
C1450  N1495   1.386   .     A
C1450  C1461   1.489   .     S
C1450  C84     1.426   1_556 S
C1451  C1462   1.490   .     S
C1451  N1495   1.384   .     A
C1451  C81     1.426   1_556 S
C1452  C1463   1.480   .     S
C1452  N1496   1.372   .     A
C1453  H1488   1.112   .     S
C1454  N1498   1.451   .     S
C1454  H1492   1.111   .     S
C1454  H1491   1.107   .     S
C1454  H1493   1.108   .     S
C1455  O1502   1.393   .     S
C1455  O1520   1.223   .     D
C1455  C1468   1.489   .     S
C1456  O1512   1.304   .     A
C1456  O1515   1.312   .     A
C1457  O1503   1.222   .     D
C1457  O1504   1.394   .     S
C1457  C1469   1.497   .     S
C1458  H1478   1.110   .     S
C1458  H1477   1.111   .     S
C1458  N1499   1.449   .     S
C1458  H1476   1.111   .     S
C1459  H1482   1.107   .     S
C1459  N1500   1.450   .     S
C1459  H1481   1.111   .     S
C1459  H1480   1.112   .     S
C1460  O1506   1.395   .     S
C1460  O1505   1.222   .     D
C1461  O1507   1.223   .     D
C1461  O1508   1.388   .     S
C1462  O1510   1.396   .     S
C1462  O1509   1.216   .     D
C1463  O1511   1.220   .     D
C1463  O1513   1.397   .     S
C1464  C1466   1.450   .     S
C1464  O1518   1.311   .     A
C1464  O1516   1.289   .     A
C1465  O1519   1.302   .     A
C1465  C1467   1.445   .     S
C1465  O1517   1.296   .     A
C1467  C1542   1.353   .     S
C1467  N1574   1.426   .     S
C1468  C1926   1.398   1_545 S
C1469  C1674   1.408   .     S
C1470  N1499   1.432   .     S
C1470  C1696   1.398   .     S
Cu1471 Cu1472  2.715   .     S
Cu1471 N1495   2.040   .     S
Cu1471 O1519   1.972   .     S
Cu1471 O1515   1.968   .     S
Cu1471 O1501   1.966   .     S
Cu1471 O1516   1.973   .     S
Cu1472 N1496   2.040   .     S
Cu1472 O1518   1.972   .     S
Cu1472 O1517   1.973   .     S
Cu1472 O1512   1.966   .     S
Cu1472 O1514   1.968   .     S
H1473  N1497   1.026   .     S
H1474  O1504   1.012   .     S
H1475  N1499   1.029   .     S
H1479  N1500   1.023   .     S
H1483  O1506   1.012   .     S
H1484  C1529   1.109   .     S
H1485  O1508   1.015   .     S
H1486  O1510   1.013   .     S
H1487  O1513   1.014   .     S
H1489  C1529   1.103   .     S
H1490  N1574   1.030   .     S
H1494  O1502   1.014   .     S
N1497  C1542   1.424   .     S
N1497  C1529   1.448   .     S
C1521  O1577   1.314   .     A
C1521  O1590   1.304   .     A
C1521  C1524   1.477   .     S
C1522  C1524   1.417   .     A
C1522  N1576   1.435   .     S
C1522  C2001   1.408   1_545 S
C1523  C1545   1.409   .     A
C1523  C1532   1.476   .     S
C1523  C1546   1.411   .     A
C1524  C1544   1.419   .     A
C1525  C1536   1.475   .     S
C1525  N1572   1.373   .     A
C1526  N1571   1.386   .     A
C1526  C1537   1.489   .     S
C1526  C160    1.426   1_556 S
C1527  C1538   1.490   .     S
C1527  N1571   1.384   .     A
C1527  C157    1.426   1_556 S
C1528  C1539   1.480   .     S
C1528  N1572   1.372   .     A
C1529  H1564   1.112   .     S
C1530  N1574   1.451   .     S
C1530  H1568   1.111   .     S
C1530  H1567   1.107   .     S
C1530  H1569   1.108   .     S
C1531  O1578   1.393   .     S
C1531  O1596   1.223   .     D
C1531  C1544   1.489   .     S
C1532  O1588   1.304   .     A
C1532  O1591   1.312   .     A
C1533  O1579   1.222   .     D
C1533  O1580   1.394   .     S
C1533  C1545   1.497   .     S
C1534  H1554   1.110   .     S
C1534  H1553   1.111   .     S
C1534  N1575   1.449   .     S
C1534  H1552   1.111   .     S
C1535  H1558   1.107   .     S
C1535  N1576   1.450   .     S
C1535  H1557   1.111   .     S
C1535  H1556   1.112   .     S
C1536  O1582   1.395   .     S
C1536  O1581   1.222   .     D
C1537  O1583   1.223   .     D
C1537  O1584   1.388   .     S
C1538  O1586   1.396   .     S
C1538  O1585   1.216   .     D
C1539  O1587   1.220   .     D
C1539  O1589   1.397   .     S
C1540  C1542   1.450   .     S
C1540  O1594   1.311   .     A
C1540  O1592   1.289   .     A
C1541  O1595   1.302   .     A
C1541  C1543   1.445   .     S
C1541  O1593   1.296   .     A
C1543  C1390   1.353   1_655 S
C1543  N1422   1.426   1_655 S
C1544  C2002   1.398   1_545 S
C1545  C1750   1.408   .     S
C1546  N1575   1.432   .     S
C1546  C1772   1.398   .     S
Cu1547 Cu1548  2.715   .     S
Cu1547 N1571   2.040   .     S
Cu1547 O1595   1.972   .     S
Cu1547 O1591   1.968   .     S
Cu1547 O1577   1.966   .     S
Cu1547 O1592   1.973   .     S
Cu1548 N1572   2.040   .     S
Cu1548 O1594   1.972   .     S
Cu1548 O1593   1.973   .     S
Cu1548 O1588   1.966   .     S
Cu1548 O1590   1.968   .     S
H1549  N1573   1.026   .     S
H1550  O1580   1.012   .     S
H1551  N1575   1.029   .     S
H1555  N1576   1.023   .     S
H1559  O1582   1.012   .     S
H1560  C1377   1.109   1_655 S
H1561  O1584   1.015   .     S
H1562  O1586   1.013   .     S
H1563  O1589   1.014   .     S
H1565  C1377   1.103   1_655 S
H1566  N1422   1.030   1_655 S
H1570  O1578   1.014   .     S
N1573  C1390   1.424   1_655 S
N1573  C1377   1.448   1_655 S
C1597  O1653   1.314   .     A
C1597  O1666   1.304   .     A
C1597  C1600   1.477   .     S
C1598  C1600   1.417   .     A
C1598  N1652   1.435   .     S
C1599  C1621   1.409   .     A
C1599  C1608   1.476   .     S
C1599  C1622   1.411   .     A
C1600  C1620   1.419   .     A
C1601  C1612   1.475   .     S
C1601  N1648   1.373   .     A
C1602  N1647   1.386   .     A
C1602  C1613   1.489   .     S
C1602  C236    1.426   1_556 S
C1603  C1614   1.490   .     S
C1603  N1647   1.384   .     A
C1603  C233    1.426   1_556 S
C1604  C1615   1.480   .     S
C1604  N1648   1.372   .     A
C1605  H1640   1.112   .     S
C1605  H1788   1.109   1_455 S
C1605  H1793   1.103   1_455 S
C1605  N1801   1.448   1_455 S
C1606  N1650   1.451   .     S
C1606  H1644   1.111   .     S
C1606  H1643   1.107   .     S
C1606  H1645   1.108   .     S
C1607  O1654   1.393   .     S
C1607  O1672   1.223   .     D
C1607  C1620   1.489   .     S
C1608  O1664   1.304   .     A
C1608  O1667   1.312   .     A
C1609  O1655   1.222   .     D
C1609  O1656   1.394   .     S
C1609  C1621   1.497   .     S
C1610  H1630   1.110   .     S
C1610  H1629   1.111   .     S
C1610  N1651   1.449   .     S
C1610  H1628   1.111   .     S
C1611  H1634   1.107   .     S
C1611  N1652   1.450   .     S
C1611  H1633   1.111   .     S
C1611  H1632   1.112   .     S
C1612  O1658   1.395   .     S
C1612  O1657   1.222   .     D
C1613  O1659   1.223   .     D
C1613  O1660   1.388   .     S
C1614  O1662   1.396   .     S
C1614  O1661   1.216   .     D
C1615  O1663   1.220   .     D
C1615  O1665   1.397   .     S
C1616  C1618   1.450   .     S
C1616  O1670   1.311   .     A
C1616  O1668   1.289   .     A
C1617  O1671   1.302   .     A
C1617  C1619   1.445   .     S
C1617  O1669   1.296   .     A
C1618  C1771   1.353   1_455 S
C1618  N1801   1.424   1_455 S
C1619  C1694   1.353   .     S
C1619  N1726   1.426   .     S
C1621  C1826   1.408   .     S
C1622  N1651   1.432   .     S
C1622  C1848   1.398   .     S
Cu1623 Cu1624  2.715   .     S
Cu1623 N1647   2.040   .     S
Cu1623 O1671   1.972   .     S
Cu1623 O1667   1.968   .     S
Cu1623 O1653   1.966   .     S
Cu1623 O1668   1.973   .     S
Cu1624 N1648   2.040   .     S
Cu1624 O1670   1.972   .     S
Cu1624 O1669   1.973   .     S
Cu1624 O1664   1.966   .     S
Cu1624 O1666   1.968   .     S
H1625  N1649   1.026   .     S
H1626  O1656   1.012   .     S
H1627  N1651   1.029   .     S
H1631  N1652   1.023   .     S
H1635  O1658   1.012   .     S
H1636  C1681   1.109   .     S
H1637  O1660   1.015   .     S
H1638  O1662   1.013   .     S
H1639  O1665   1.014   .     S
H1641  C1681   1.103   .     S
H1642  N1726   1.030   .     S
H1646  O1654   1.014   .     S
N1649  C1694   1.424   .     S
N1649  C1681   1.448   .     S
N1650  H1794   1.030   1_455 S
N1650  C1771   1.426   1_455 S
C1673  O1729   1.314   .     A
C1673  O1742   1.304   .     A
C1673  C1676   1.477   .     S
C1674  C1676   1.417   .     A
C1674  N1728   1.435   .     S
C1675  C1697   1.409   .     A
C1675  C1684   1.476   .     S
C1675  C1698   1.411   .     A
C1676  C1696   1.419   .     A
C1677  C1688   1.475   .     S
C1677  N1724   1.373   .     A
C1678  N1723   1.386   .     A
C1678  C1689   1.489   .     S
C1678  C312    1.426   1_556 S
C1679  C1690   1.490   .     S
C1679  N1723   1.384   .     A
C1679  C309    1.426   1_556 S
C1680  C1691   1.480   .     S
C1680  N1724   1.372   .     A
C1681  H1716   1.112   .     S
C1682  N1726   1.451   .     S
C1682  H1720   1.111   .     S
C1682  H1719   1.107   .     S
C1682  H1721   1.108   .     S
C1683  O1730   1.393   .     S
C1683  O1748   1.223   .     D
C1683  C1696   1.489   .     S
C1684  O1740   1.304   .     A
C1684  O1743   1.312   .     A
C1685  O1731   1.222   .     D
C1685  O1732   1.394   .     S
C1685  C1697   1.497   .     S
C1686  H1706   1.110   .     S
C1686  H1705   1.111   .     S
C1686  N1727   1.449   .     S
C1686  H1704   1.111   .     S
C1687  H1710   1.107   .     S
C1687  N1728   1.450   .     S
C1687  H1709   1.111   .     S
C1687  H1708   1.112   .     S
C1688  O1734   1.395   .     S
C1688  O1733   1.222   .     D
C1689  O1735   1.223   .     D
C1689  O1736   1.388   .     S
C1690  O1738   1.396   .     S
C1690  O1737   1.216   .     D
C1691  O1739   1.220   .     D
C1691  O1741   1.397   .     S
C1692  C1694   1.450   .     S
C1692  O1746   1.311   .     A
C1692  O1744   1.289   .     A
C1693  O1747   1.302   .     A
C1693  C1695   1.445   .     S
C1693  O1745   1.296   .     A
C1695  C1770   1.353   .     S
C1695  N1802   1.426   .     S
C1697  C1902   1.408   .     S
C1698  N1727   1.432   .     S
C1698  C1924   1.398   .     S
Cu1699 Cu1700  2.715   .     S
Cu1699 N1723   2.040   .     S
Cu1699 O1747   1.972   .     S
Cu1699 O1743   1.968   .     S
Cu1699 O1729   1.966   .     S
Cu1699 O1744   1.973   .     S
Cu1700 N1724   2.040   .     S
Cu1700 O1746   1.972   .     S
Cu1700 O1745   1.973   .     S
Cu1700 O1740   1.966   .     S
Cu1700 O1742   1.968   .     S
H1701  N1725   1.026   .     S
H1702  O1732   1.012   .     S
H1703  N1727   1.029   .     S
H1707  N1728   1.023   .     S
H1711  O1734   1.012   .     S
H1712  C1757   1.109   .     S
H1713  O1736   1.015   .     S
H1714  O1738   1.013   .     S
H1715  O1741   1.014   .     S
H1717  C1757   1.103   .     S
H1718  N1802   1.030   .     S
H1722  O1730   1.014   .     S
N1725  C1770   1.424   .     S
N1725  C1757   1.448   .     S
C1749  O1805   1.314   .     A
C1749  O1818   1.304   .     A
C1749  C1752   1.477   .     S
C1750  C1752   1.417   .     A
C1750  N1804   1.435   .     S
C1751  C1773   1.409   .     A
C1751  C1760   1.476   .     S
C1751  C1774   1.411   .     A
C1752  C1772   1.419   .     A
C1753  C1764   1.475   .     S
C1753  N1800   1.373   .     A
C1754  N1799   1.386   .     A
C1754  C1765   1.489   .     S
C1754  C388    1.426   1_556 S
C1755  C1766   1.490   .     S
C1755  N1799   1.384   .     A
C1755  C385    1.426   1_556 S
C1756  C1767   1.480   .     S
C1756  N1800   1.372   .     A
C1757  H1792   1.112   .     S
C1758  N1802   1.451   .     S
C1758  H1796   1.111   .     S
C1758  H1795   1.107   .     S
C1758  H1797   1.108   .     S
C1759  O1806   1.393   .     S
C1759  O1824   1.223   .     D
C1759  C1772   1.489   .     S
C1760  O1816   1.304   .     A
C1760  O1819   1.312   .     A
C1761  O1807   1.222   .     D
C1761  O1808   1.394   .     S
C1761  C1773   1.497   .     S
C1762  H1782   1.110   .     S
C1762  H1781   1.111   .     S
C1762  N1803   1.449   .     S
C1762  H1780   1.111   .     S
C1763  H1786   1.107   .     S
C1763  N1804   1.450   .     S
C1763  H1785   1.111   .     S
C1763  H1784   1.112   .     S
C1764  O1810   1.395   .     S
C1764  O1809   1.222   .     D
C1765  O1811   1.223   .     D
C1765  O1812   1.388   .     S
C1766  O1814   1.396   .     S
C1766  O1813   1.216   .     D
C1767  O1815   1.220   .     D
C1767  O1817   1.397   .     S
C1768  C1770   1.450   .     S
C1768  O1822   1.311   .     A
C1768  O1820   1.289   .     A
C1769  O1823   1.302   .     A
C1769  C1771   1.445   .     S
C1769  O1821   1.296   .     A
C1771  C1618   1.353   1_655 S
C1771  N1650   1.426   1_655 S
C1773  C1978   1.408   .     S
C1774  N1803   1.432   .     S
C1774  C2000   1.398   .     S
Cu1775 Cu1776  2.715   .     S
Cu1775 N1799   2.040   .     S
Cu1775 O1823   1.972   .     S
Cu1775 O1819   1.968   .     S
Cu1775 O1805   1.966   .     S
Cu1775 O1820   1.973   .     S
Cu1776 N1800   2.040   .     S
Cu1776 O1822   1.972   .     S
Cu1776 O1821   1.973   .     S
Cu1776 O1816   1.966   .     S
Cu1776 O1818   1.968   .     S
H1777  N1801   1.026   .     S
H1778  O1808   1.012   .     S
H1779  N1803   1.029   .     S
H1783  N1804   1.023   .     S
H1787  O1810   1.012   .     S
H1788  C1605   1.109   1_655 S
H1789  O1812   1.015   .     S
H1790  O1814   1.013   .     S
H1791  O1817   1.014   .     S
H1793  C1605   1.103   1_655 S
H1794  N1650   1.030   1_655 S
H1798  O1806   1.014   .     S
N1801  C1618   1.424   1_655 S
N1801  C1605   1.448   1_655 S
C1825  O1881   1.314   .     A
C1825  O1894   1.304   .     A
C1825  C1828   1.477   .     S
C1826  C1828   1.417   .     A
C1826  N1880   1.435   .     S
C1827  C1849   1.409   .     A
C1827  C1836   1.476   .     S
C1827  C1850   1.411   .     A
C1828  C1848   1.419   .     A
C1829  C1840   1.475   .     S
C1829  N1876   1.373   .     A
C1830  N1875   1.386   .     A
C1830  C1841   1.489   .     S
C1830  C464    1.426   1_556 S
C1831  C1842   1.490   .     S
C1831  N1875   1.384   .     A
C1831  C461    1.426   1_556 S
C1832  C1843   1.480   .     S
C1832  N1876   1.372   .     A
C1833  H1868   1.112   .     S
C1833  H2016   1.109   1_455 S
C1833  H2021   1.103   1_455 S
C1833  N2029   1.448   1_455 S
C1834  N1878   1.451   .     S
C1834  H1872   1.111   .     S
C1834  H1871   1.107   .     S
C1834  H1873   1.108   .     S
C1835  O1882   1.393   .     S
C1835  O1900   1.223   .     D
C1835  C1848   1.489   .     S
C1836  O1892   1.304   .     A
C1836  O1895   1.312   .     A
C1837  O1883   1.222   .     D
C1837  O1884   1.394   .     S
C1837  C1849   1.497   .     S
C1838  H1858   1.110   .     S
C1838  H1857   1.111   .     S
C1838  N1879   1.449   .     S
C1838  H1856   1.111   .     S
C1839  H1862   1.107   .     S
C1839  N1880   1.450   .     S
C1839  H1861   1.111   .     S
C1839  H1860   1.112   .     S
C1840  O1886   1.395   .     S
C1840  O1885   1.222   .     D
C1841  O1887   1.223   .     D
C1841  O1888   1.388   .     S
C1842  O1890   1.396   .     S
C1842  O1889   1.216   .     D
C1843  O1891   1.220   .     D
C1843  O1893   1.397   .     S
C1844  C1846   1.450   .     S
C1844  O1898   1.311   .     A
C1844  O1896   1.289   .     A
C1845  O1899   1.302   .     A
C1845  C1847   1.445   .     S
C1845  O1897   1.296   .     A
C1846  C1999   1.353   1_455 S
C1846  N2029   1.424   1_455 S
C1847  C1922   1.353   .     S
C1847  N1954   1.426   .     S
C1849  C1370   1.408   1_565 S
C1850  N1879   1.432   .     S
C1850  C1392   1.398   1_565 S
Cu1851 Cu1852  2.715   .     S
Cu1851 N1875   2.040   .     S
Cu1851 O1899   1.972   .     S
Cu1851 O1895   1.968   .     S
Cu1851 O1881   1.966   .     S
Cu1851 O1896   1.973   .     S
Cu1852 N1876   2.040   .     S
Cu1852 O1898   1.972   .     S
Cu1852 O1897   1.973   .     S
Cu1852 O1892   1.966   .     S
Cu1852 O1894   1.968   .     S
H1853  N1877   1.026   .     S
H1854  O1884   1.012   .     S
H1855  N1879   1.029   .     S
H1859  N1880   1.023   .     S
H1863  O1886   1.012   .     S
H1864  C1909   1.109   .     S
H1865  O1888   1.015   .     S
H1866  O1890   1.013   .     S
H1867  O1893   1.014   .     S
H1869  C1909   1.103   .     S
H1870  N1954   1.030   .     S
H1874  O1882   1.014   .     S
N1877  C1922   1.424   .     S
N1877  C1909   1.448   .     S
N1878  H2022   1.030   1_455 S
N1878  C1999   1.426   1_455 S
C1901  O1957   1.314   .     A
C1901  O1970   1.304   .     A
C1901  C1904   1.477   .     S
C1902  C1904   1.417   .     A
C1902  N1956   1.435   .     S
C1903  C1925   1.409   .     A
C1903  C1912   1.476   .     S
C1903  C1926   1.411   .     A
C1904  C1924   1.419   .     A
C1905  C1916   1.475   .     S
C1905  N1952   1.373   .     A
C1906  N1951   1.386   .     A
C1906  C1917   1.489   .     S
C1906  C540    1.426   1_556 S
C1907  C1918   1.490   .     S
C1907  N1951   1.384   .     A
C1907  C537    1.426   1_556 S
C1908  C1919   1.480   .     S
C1908  N1952   1.372   .     A
C1909  H1944   1.112   .     S
C1910  N1954   1.451   .     S
C1910  H1948   1.111   .     S
C1910  H1947   1.107   .     S
C1910  H1949   1.108   .     S
C1911  O1958   1.393   .     S
C1911  O1976   1.223   .     D
C1911  C1924   1.489   .     S
C1912  O1968   1.304   .     A
C1912  O1971   1.312   .     A
C1913  O1959   1.222   .     D
C1913  O1960   1.394   .     S
C1913  C1925   1.497   .     S
C1914  H1934   1.110   .     S
C1914  H1933   1.111   .     S
C1914  N1955   1.449   .     S
C1914  H1932   1.111   .     S
C1915  H1938   1.107   .     S
C1915  N1956   1.450   .     S
C1915  H1937   1.111   .     S
C1915  H1936   1.112   .     S
C1916  O1962   1.395   .     S
C1916  O1961   1.222   .     D
C1917  O1963   1.223   .     D
C1917  O1964   1.388   .     S
C1918  O1966   1.396   .     S
C1918  O1965   1.216   .     D
C1919  O1967   1.220   .     D
C1919  O1969   1.397   .     S
C1920  C1922   1.450   .     S
C1920  O1974   1.311   .     A
C1920  O1972   1.289   .     A
C1921  O1975   1.302   .     A
C1921  C1923   1.445   .     S
C1921  O1973   1.296   .     A
C1923  C1998   1.353   .     S
C1923  N2030   1.426   .     S
C1925  C1446   1.408   1_565 S
C1926  N1955   1.432   .     S
C1926  C1468   1.398   1_565 S
Cu1927 Cu1928  2.715   .     S
Cu1927 N1951   2.040   .     S
Cu1927 O1975   1.972   .     S
Cu1927 O1971   1.968   .     S
Cu1927 O1957   1.966   .     S
Cu1927 O1972   1.973   .     S
Cu1928 N1952   2.040   .     S
Cu1928 O1974   1.972   .     S
Cu1928 O1973   1.973   .     S
Cu1928 O1968   1.966   .     S
Cu1928 O1970   1.968   .     S
H1929  N1953   1.026   .     S
H1930  O1960   1.012   .     S
H1931  N1955   1.029   .     S
H1935  N1956   1.023   .     S
H1939  O1962   1.012   .     S
H1940  C1985   1.109   .     S
H1941  O1964   1.015   .     S
H1942  O1966   1.013   .     S
H1943  O1969   1.014   .     S
H1945  C1985   1.103   .     S
H1946  N2030   1.030   .     S
H1950  O1958   1.014   .     S
N1953  C1998   1.424   .     S
N1953  C1985   1.448   .     S
C1977  O2033   1.314   .     A
C1977  O2046   1.304   .     A
C1977  C1980   1.477   .     S
C1978  C1980   1.417   .     A
C1978  N2032   1.435   .     S
C1979  C2001   1.409   .     A
C1979  C1988   1.476   .     S
C1979  C2002   1.411   .     A
C1980  C2000   1.419   .     A
C1981  C1992   1.475   .     S
C1981  N2028   1.373   .     A
C1982  N2027   1.386   .     A
C1982  C1993   1.489   .     S
C1982  C616    1.426   1_556 S
C1983  C1994   1.490   .     S
C1983  N2027   1.384   .     A
C1983  C613    1.426   1_556 S
C1984  C1995   1.480   .     S
C1984  N2028   1.372   .     A
C1985  H2020   1.112   .     S
C1986  N2030   1.451   .     S
C1986  H2024   1.111   .     S
C1986  H2023   1.107   .     S
C1986  H2025   1.108   .     S
C1987  O2034   1.393   .     S
C1987  O2052   1.223   .     D
C1987  C2000   1.489   .     S
C1988  O2044   1.304   .     A
C1988  O2047   1.312   .     A
C1989  O2035   1.222   .     D
C1989  O2036   1.394   .     S
C1989  C2001   1.497   .     S
C1990  H2010   1.110   .     S
C1990  H2009   1.111   .     S
C1990  N2031   1.449   .     S
C1990  H2008   1.111   .     S
C1991  H2014   1.107   .     S
C1991  N2032   1.450   .     S
C1991  H2013   1.111   .     S
C1991  H2012   1.112   .     S
C1992  O2038   1.395   .     S
C1992  O2037   1.222   .     D
C1993  O2039   1.223   .     D
C1993  O2040   1.388   .     S
C1994  O2042   1.396   .     S
C1994  O2041   1.216   .     D
C1995  O2043   1.220   .     D
C1995  O2045   1.397   .     S
C1996  C1998   1.450   .     S
C1996  O2050   1.311   .     A
C1996  O2048   1.289   .     A
C1997  O2051   1.302   .     A
C1997  C1999   1.445   .     S
C1997  O2049   1.296   .     A
C1999  C1846   1.353   1_655 S
C1999  N1878   1.426   1_655 S
C2001  C1522   1.408   1_565 S
C2002  N2031   1.432   .     S
C2002  C1544   1.398   1_565 S
Cu2003 Cu2004  2.715   .     S
Cu2003 N2027   2.040   .     S
Cu2003 O2051   1.972   .     S
Cu2003 O2047   1.968   .     S
Cu2003 O2033   1.966   .     S
Cu2003 O2048   1.973   .     S
Cu2004 N2028   2.040   .     S
Cu2004 O2050   1.972   .     S
Cu2004 O2049   1.973   .     S
Cu2004 O2044   1.966   .     S
Cu2004 O2046   1.968   .     S
H2005  N2029   1.026   .     S
H2006  O2036   1.012   .     S
H2007  N2031   1.029   .     S
H2011  N2032   1.023   .     S
H2015  O2038   1.012   .     S
H2016  C1833   1.109   1_655 S
H2017  O2040   1.015   .     S
H2018  O2042   1.013   .     S
H2019  O2045   1.014   .     S
H2021  C1833   1.103   1_655 S
H2022  N1878   1.030   1_655 S
H2026  O2034   1.014   .     S
N2029  C1846   1.424   1_655 S
N2029  C1833   1.448   1_655 S
