data_str_m2_o2_o10_pcu_sym.232
_audit_creation_date              2020-01-03
_audit_creation_method            'Materials Studio'
_symmetry_space_group_name_H-M    'P1'
_symmetry_Int_Tables_number       1
_symmetry_cell_setting            triclinic
loop_
_symmetry_equiv_pos_as_xyz
  x,y,z
_cell_length_a                    26.3998
_cell_length_b                    30.2491
_cell_length_c                    27.8936
_cell_angle_alpha                 89.7957
_cell_angle_beta                  97.9336
_cell_angle_gamma                 91.8907
loop_
_atom_site_label
_atom_site_type_symbol
_atom_site_fract_x
_atom_site_fract_y
_atom_site_fract_z
_atom_site_U_iso_or_equiv
_atom_site_adp_type
_atom_site_occupancy
C1     C     0.16668   0.16531   0.25015   0.00000  Uiso   1.00
C2     C     0.16561   0.33523   0.24967   0.00000  Uiso   1.00
C3     C     0.20429   0.27048   0.05804   0.00000  Uiso   1.00
C4     C     0.14285   0.21713   0.44368   0.00000  Uiso   1.00
C5     C     0.20386   0.27232   0.10827   0.00000  Uiso   1.00
C6     C     0.14106   0.21760   0.39311   0.00000  Uiso   1.00
C7     C     0.12795   0.22775   0.10015   0.00000  Uiso   1.00
C8     C     0.19137   0.28399   0.39819   0.00000  Uiso   1.00
C9     C     0.12114   0.23359   0.04882   0.00000  Uiso   1.00
C10    C     0.18466   0.28934   0.44781   0.00000  Uiso   1.00
C11    C     0.16197   0.25304   0.02681   0.00000  Uiso   1.00
C12    C     0.16259   0.25373   0.47209   0.00000  Uiso   1.00
C13    C     0.06812   0.24991   0.23774   0.00000  Uiso   1.00
C14    C     0.26522   0.25031   0.26226   0.00000  Uiso   1.00
C15    C     0.01329   0.24393   0.23202   0.00000  Uiso   1.00
C16    C     0.32001   0.25683   0.26790   0.00000  Uiso   1.00
C17    C     0.20712   0.04789   0.26850   0.00000  Uiso   1.00
C18    C     0.15882   0.45576   0.20878   0.00000  Uiso   1.00
C19    C     0.21004   0.09424   0.26685   0.00000  Uiso   1.00
C20    C     0.16015   0.40946   0.20615   0.00000  Uiso   1.00
C21    C     0.16567   0.11744   0.25089   0.00000  Uiso   1.00
C22    C     0.16262   0.38403   0.24924   0.00000  Uiso   1.00
C23    C     0.11865   0.09517   0.23832   0.00000  Uiso   1.00
C24    C     0.16122   0.40554   0.29356   0.00000  Uiso   1.00
C25    C     0.11455   0.04921   0.24100   0.00000  Uiso   1.00
C26    C     0.15836   0.45135   0.29648   0.00000  Uiso   1.00
C27    C     0.15943   0.02534   0.25552   0.00000  Uiso   1.00
C28    C     0.15800   0.47665   0.25376   0.00000  Uiso   1.00
Cu29   Cu    0.16667   0.24999   0.29822   0.00000  Uiso   1.00
Cu30   Cu    0.16667   0.25000   0.20179   0.00000  Uiso   1.00
H31    H     0.08475   0.11405   0.22731   0.00000  Uiso   1.00
H32    H     0.16182   0.38642   0.32655   0.00000  Uiso   1.00
H33    H     0.23721   0.28439   0.04336   0.00000  Uiso   1.00
H34    H     0.12688   0.18855   0.46050   0.00000  Uiso   1.00
N35    N     0.16667   0.25001   0.12935   0.00000  Uiso   1.00
N36    N     0.16667   0.24999   0.37066   0.00000  Uiso   1.00
O37    O     0.16667   0.18572   0.29072   0.00000  Uiso   1.00
O38    O     0.16666   0.31427   0.20929   0.00000  Uiso   1.00
O39    O     0.16667   0.18573   0.20928   0.00000  Uiso   1.00
O40    O     0.16666   0.31427   0.29072   0.00000  Uiso   1.00
O41    O     0.09161   0.24999   0.28132   0.00000  Uiso   1.00
O42    O     0.24172   0.25000   0.21868   0.00000  Uiso   1.00
O43    O     0.09161   0.25000   0.19989   0.00000  Uiso   1.00
O44    O     0.24172   0.25000   0.30012   0.00000  Uiso   1.00
C45    C     0.32408   0.21722   0.18909   0.00000  Uiso   1.00
H46    H     0.33279   0.22637   0.15343   0.00000  Uiso   1.00
O47    O     0.29762   0.18398   0.19358   0.00000  Uiso   1.00
C48    C     0.00882   0.28466   0.31016   0.00000  Uiso   1.00
H49    H     0.33100   0.27798   0.34556   0.00000  Uiso   1.00
O50    O     0.03711   0.31663   0.30516   0.00000  Uiso   1.00
C51    C     0.25303   0.02334   0.28309   0.00000  Uiso   1.00
N52    N     0.28959   0.00373   0.29475   0.00000  Uiso   1.00
C53    C     0.15862   0.48221   0.16513   0.00000  Uiso   1.00
N54    N     0.15846   0.00332   0.13043   0.00000  Uiso   1.00
C55    C     0.25837   0.11798   0.28130   0.00000  Uiso   1.00
N56    N     0.29691   0.13688   0.29294   0.00000  Uiso   1.00
C57    C     0.15791   0.38908   0.15885   0.00000  Uiso   1.00
N58    N     0.15585   0.37319   0.12091   0.00000  Uiso   1.00
C59    C     0.06267   0.02814   0.22843   0.00000  Uiso   1.00
H60    H     0.03085   0.04827   0.21388   0.00000  Uiso   1.00
O61    O     0.05424   0.48879   0.23478   0.00000  Uiso   1.00
C62    C     0.15586   0.47078   0.34505   0.00000  Uiso   1.00
H63    H     0.16151   0.44986   0.37693   0.00000  Uiso   1.00
O64    O     0.14663   0.00959   0.35036   0.00000  Uiso   1.00
C65    C     0.24303   0.29909   0.13651   0.00000  Uiso   1.00
N66    N     0.27456   0.32100   0.15873   0.00000  Uiso   1.00
C67    C     0.11046   0.18364   0.36576   0.00000  Uiso   1.00
N68    N     0.08550   0.15628   0.34417   0.00000  Uiso   1.00
C69    C     0.09662   0.19531   0.12143   0.00000  Uiso   1.00
N70    N     0.07187   0.16857   0.13798   0.00000  Uiso   1.00
C71    C     0.22587   0.31382   0.37708   0.00000  Uiso   1.00
N72    N     0.25386   0.33787   0.36066   0.00000  Uiso   1.00
C73    C     0.07053   0.22367   0.01899   0.00000  Uiso   1.00
H74    H     0.06163   0.23867   0.48359   0.00000  Uiso   1.00
O75    O     0.03776   0.19971   0.03345   0.00000  Uiso   1.00
C76    C     0.19571   0.33289   0.47291   0.00000  Uiso   1.00
H77    H     0.17616   0.34089   0.00337   0.00000  Uiso   1.00
O78    O     0.22613   0.36031   0.46030   0.00000  Uiso   1.00
C79    C     0.50001   0.16531   0.25015   0.00000  Uiso   1.00
C80    C     0.49894   0.33523   0.24967   0.00000  Uiso   1.00
C81    C     0.53762   0.27048   0.05804   0.00000  Uiso   1.00
C82    C     0.47619   0.21713   0.44368   0.00000  Uiso   1.00
C83    C     0.53719   0.27232   0.10827   0.00000  Uiso   1.00
C84    C     0.47439   0.21760   0.39311   0.00000  Uiso   1.00
C85    C     0.46128   0.22775   0.10015   0.00000  Uiso   1.00
C86    C     0.52470   0.28399   0.39819   0.00000  Uiso   1.00
C87    C     0.45447   0.23359   0.04882   0.00000  Uiso   1.00
C88    C     0.51799   0.28934   0.44781   0.00000  Uiso   1.00
C89    C     0.49530   0.25304   0.02681   0.00000  Uiso   1.00
C90    C     0.49592   0.25373   0.47209   0.00000  Uiso   1.00
C91    C     0.40146   0.24991   0.23774   0.00000  Uiso   1.00
C92    C     0.59855   0.25031   0.26226   0.00000  Uiso   1.00
C93    C     0.34663   0.24393   0.23202   0.00000  Uiso   1.00
C94    C     0.65335   0.25683   0.26790   0.00000  Uiso   1.00
C95    C     0.54045   0.04789   0.26850   0.00000  Uiso   1.00
C96    C     0.49215   0.45576   0.20878   0.00000  Uiso   1.00
C97    C     0.54338   0.09424   0.26685   0.00000  Uiso   1.00
C98    C     0.49348   0.40946   0.20615   0.00000  Uiso   1.00
C99    C     0.49900   0.11744   0.25089   0.00000  Uiso   1.00
C100   C     0.49596   0.38403   0.24924   0.00000  Uiso   1.00
C101   C     0.45198   0.09517   0.23832   0.00000  Uiso   1.00
C102   C     0.49455   0.40554   0.29356   0.00000  Uiso   1.00
C103   C     0.44788   0.04921   0.24100   0.00000  Uiso   1.00
C104   C     0.49169   0.45135   0.29648   0.00000  Uiso   1.00
C105   C     0.49276   0.02534   0.25552   0.00000  Uiso   1.00
C106   C     0.49133   0.47665   0.25376   0.00000  Uiso   1.00
Cu107  Cu    0.50000   0.24999   0.29822   0.00000  Uiso   1.00
Cu108  Cu    0.50000   0.25000   0.20179   0.00000  Uiso   1.00
H109   H     0.41808   0.11405   0.22731   0.00000  Uiso   1.00
H110   H     0.49515   0.38642   0.32655   0.00000  Uiso   1.00
H111   H     0.57054   0.28439   0.04336   0.00000  Uiso   1.00
H112   H     0.46021   0.18855   0.46050   0.00000  Uiso   1.00
N113   N     0.50000   0.25001   0.12935   0.00000  Uiso   1.00
N114   N     0.50000   0.24999   0.37066   0.00000  Uiso   1.00
O115   O     0.50000   0.18572   0.29072   0.00000  Uiso   1.00
O116   O     0.50000   0.31427   0.20929   0.00000  Uiso   1.00
O117   O     0.50000   0.18573   0.20928   0.00000  Uiso   1.00
O118   O     0.50000   0.31427   0.29072   0.00000  Uiso   1.00
O119   O     0.42495   0.24999   0.28132   0.00000  Uiso   1.00
O120   O     0.57505   0.25000   0.21868   0.00000  Uiso   1.00
O121   O     0.42495   0.25000   0.19989   0.00000  Uiso   1.00
O122   O     0.57505   0.25000   0.30012   0.00000  Uiso   1.00
C123   C     0.65741   0.21722   0.18909   0.00000  Uiso   1.00
H124   H     0.66612   0.22637   0.15343   0.00000  Uiso   1.00
O125   O     0.63095   0.18398   0.19358   0.00000  Uiso   1.00
C126   C     0.34215   0.28466   0.31016   0.00000  Uiso   1.00
H127   H     0.66434   0.27798   0.34556   0.00000  Uiso   1.00
O128   O     0.37044   0.31663   0.30516   0.00000  Uiso   1.00
C129   C     0.58636   0.02334   0.28309   0.00000  Uiso   1.00
N130   N     0.62292   0.00373   0.29475   0.00000  Uiso   1.00
C131   C     0.49195   0.48221   0.16513   0.00000  Uiso   1.00
N132   N     0.49179   0.00332   0.13043   0.00000  Uiso   1.00
C133   C     0.59170   0.11798   0.28130   0.00000  Uiso   1.00
N134   N     0.63025   0.13688   0.29294   0.00000  Uiso   1.00
C135   C     0.49125   0.38908   0.15885   0.00000  Uiso   1.00
N136   N     0.48918   0.37319   0.12091   0.00000  Uiso   1.00
C137   C     0.39600   0.02814   0.22843   0.00000  Uiso   1.00
H138   H     0.36418   0.04827   0.21388   0.00000  Uiso   1.00
O139   O     0.38757   0.48879   0.23478   0.00000  Uiso   1.00
C140   C     0.48919   0.47078   0.34505   0.00000  Uiso   1.00
H141   H     0.49485   0.44986   0.37693   0.00000  Uiso   1.00
O142   O     0.47996   0.00959   0.35036   0.00000  Uiso   1.00
C143   C     0.57637   0.29909   0.13651   0.00000  Uiso   1.00
N144   N     0.60789   0.32100   0.15873   0.00000  Uiso   1.00
C145   C     0.44380   0.18364   0.36576   0.00000  Uiso   1.00
N146   N     0.41883   0.15628   0.34417   0.00000  Uiso   1.00
C147   C     0.42995   0.19531   0.12143   0.00000  Uiso   1.00
N148   N     0.40520   0.16857   0.13798   0.00000  Uiso   1.00
C149   C     0.55920   0.31382   0.37708   0.00000  Uiso   1.00
N150   N     0.58719   0.33787   0.36066   0.00000  Uiso   1.00
C151   C     0.40386   0.22367   0.01899   0.00000  Uiso   1.00
H152   H     0.39496   0.23867   0.48359   0.00000  Uiso   1.00
O153   O     0.37109   0.19971   0.03345   0.00000  Uiso   1.00
C154   C     0.52904   0.33289   0.47291   0.00000  Uiso   1.00
H155   H     0.50949   0.34089   0.00337   0.00000  Uiso   1.00
O156   O     0.55946   0.36031   0.46030   0.00000  Uiso   1.00
C157   C     0.83334   0.16531   0.25015   0.00000  Uiso   1.00
C158   C     0.83228   0.33523   0.24967   0.00000  Uiso   1.00
C159   C     0.87095   0.27048   0.05804   0.00000  Uiso   1.00
C160   C     0.80952   0.21713   0.44368   0.00000  Uiso   1.00
C161   C     0.87052   0.27232   0.10827   0.00000  Uiso   1.00
C162   C     0.80772   0.21760   0.39311   0.00000  Uiso   1.00
C163   C     0.79462   0.22775   0.10015   0.00000  Uiso   1.00
C164   C     0.85803   0.28399   0.39819   0.00000  Uiso   1.00
C165   C     0.78781   0.23359   0.04882   0.00000  Uiso   1.00
C166   C     0.85132   0.28934   0.44781   0.00000  Uiso   1.00
C167   C     0.82864   0.25304   0.02681   0.00000  Uiso   1.00
C168   C     0.82926   0.25373   0.47209   0.00000  Uiso   1.00
C169   C     0.73479   0.24991   0.23774   0.00000  Uiso   1.00
C170   C     0.93188   0.25031   0.26226   0.00000  Uiso   1.00
C171   C     0.67996   0.24393   0.23202   0.00000  Uiso   1.00
C172   C     0.98668   0.25683   0.26790   0.00000  Uiso   1.00
C173   C     0.87378   0.04789   0.26850   0.00000  Uiso   1.00
C174   C     0.82549   0.45576   0.20878   0.00000  Uiso   1.00
C175   C     0.87671   0.09424   0.26685   0.00000  Uiso   1.00
C176   C     0.82681   0.40946   0.20615   0.00000  Uiso   1.00
C177   C     0.83233   0.11744   0.25089   0.00000  Uiso   1.00
C178   C     0.82929   0.38403   0.24924   0.00000  Uiso   1.00
C179   C     0.78532   0.09517   0.23832   0.00000  Uiso   1.00
C180   C     0.82789   0.40554   0.29356   0.00000  Uiso   1.00
C181   C     0.78122   0.04921   0.24100   0.00000  Uiso   1.00
C182   C     0.82502   0.45135   0.29648   0.00000  Uiso   1.00
C183   C     0.82610   0.02534   0.25552   0.00000  Uiso   1.00
C184   C     0.82467   0.47665   0.25376   0.00000  Uiso   1.00
Cu185  Cu    0.83333   0.24999   0.29822   0.00000  Uiso   1.00
Cu186  Cu    0.83333   0.25000   0.20179   0.00000  Uiso   1.00
H187   H     0.75142   0.11405   0.22731   0.00000  Uiso   1.00
H188   H     0.82849   0.38642   0.32655   0.00000  Uiso   1.00
H189   H     0.90387   0.28439   0.04336   0.00000  Uiso   1.00
H190   H     0.79354   0.18855   0.46050   0.00000  Uiso   1.00
N191   N     0.83333   0.25001   0.12935   0.00000  Uiso   1.00
N192   N     0.83333   0.24999   0.37066   0.00000  Uiso   1.00
O193   O     0.83334   0.18572   0.29072   0.00000  Uiso   1.00
O194   O     0.83333   0.31427   0.20929   0.00000  Uiso   1.00
O195   O     0.83334   0.18573   0.20928   0.00000  Uiso   1.00
O196   O     0.83333   0.31427   0.29072   0.00000  Uiso   1.00
O197   O     0.75828   0.24999   0.28132   0.00000  Uiso   1.00
O198   O     0.90839   0.25000   0.21868   0.00000  Uiso   1.00
O199   O     0.75828   0.25000   0.19989   0.00000  Uiso   1.00
O200   O     0.90839   0.25000   0.30012   0.00000  Uiso   1.00
C201   C     0.99075   0.21722   0.18909   0.00000  Uiso   1.00
H202   H     0.99946   0.22637   0.15343   0.00000  Uiso   1.00
O203   O     0.96429   0.18398   0.19358   0.00000  Uiso   1.00
C204   C     0.67549   0.28466   0.31016   0.00000  Uiso   1.00
H205   H     0.99767   0.27798   0.34556   0.00000  Uiso   1.00
O206   O     0.70377   0.31663   0.30516   0.00000  Uiso   1.00
C207   C     0.91970   0.02334   0.28309   0.00000  Uiso   1.00
N208   N     0.95626   0.00373   0.29475   0.00000  Uiso   1.00
C209   C     0.82529   0.48221   0.16513   0.00000  Uiso   1.00
N210   N     0.82513   0.00332   0.13043   0.00000  Uiso   1.00
C211   C     0.92504   0.11798   0.28130   0.00000  Uiso   1.00
N212   N     0.96358   0.13688   0.29294   0.00000  Uiso   1.00
C213   C     0.82458   0.38908   0.15885   0.00000  Uiso   1.00
N214   N     0.82252   0.37319   0.12091   0.00000  Uiso   1.00
C215   C     0.72934   0.02814   0.22843   0.00000  Uiso   1.00
H216   H     0.69751   0.04827   0.21388   0.00000  Uiso   1.00
O217   O     0.72090   0.48879   0.23478   0.00000  Uiso   1.00
C218   C     0.82253   0.47078   0.34505   0.00000  Uiso   1.00
H219   H     0.82818   0.44986   0.37693   0.00000  Uiso   1.00
O220   O     0.81329   0.00959   0.35036   0.00000  Uiso   1.00
C221   C     0.90970   0.29909   0.13651   0.00000  Uiso   1.00
N222   N     0.94123   0.32100   0.15873   0.00000  Uiso   1.00
C223   C     0.77713   0.18364   0.36576   0.00000  Uiso   1.00
N224   N     0.75216   0.15628   0.34417   0.00000  Uiso   1.00
C225   C     0.76328   0.19531   0.12143   0.00000  Uiso   1.00
N226   N     0.73854   0.16857   0.13798   0.00000  Uiso   1.00
C227   C     0.89253   0.31382   0.37708   0.00000  Uiso   1.00
N228   N     0.92053   0.33787   0.36066   0.00000  Uiso   1.00
C229   C     0.73720   0.22367   0.01899   0.00000  Uiso   1.00
H230   H     0.72829   0.23867   0.48359   0.00000  Uiso   1.00
O231   O     0.70443   0.19971   0.03345   0.00000  Uiso   1.00
C232   C     0.86237   0.33289   0.47291   0.00000  Uiso   1.00
H233   H     0.84283   0.34089   0.00337   0.00000  Uiso   1.00
O234   O     0.89280   0.36031   0.46030   0.00000  Uiso   1.00
C235   C     0.16668   0.66531   0.25015   0.00000  Uiso   1.00
C236   C     0.16561   0.83523   0.24967   0.00000  Uiso   1.00
C237   C     0.20429   0.77048   0.05804   0.00000  Uiso   1.00
C238   C     0.14285   0.71713   0.44368   0.00000  Uiso   1.00
C239   C     0.20386   0.77232   0.10827   0.00000  Uiso   1.00
C240   C     0.14106   0.71760   0.39311   0.00000  Uiso   1.00
C241   C     0.12795   0.72775   0.10015   0.00000  Uiso   1.00
C242   C     0.19137   0.78399   0.39819   0.00000  Uiso   1.00
C243   C     0.12114   0.73359   0.04882   0.00000  Uiso   1.00
C244   C     0.18466   0.78934   0.44781   0.00000  Uiso   1.00
C245   C     0.16197   0.75304   0.02681   0.00000  Uiso   1.00
C246   C     0.16259   0.75373   0.47209   0.00000  Uiso   1.00
C247   C     0.06812   0.74991   0.23774   0.00000  Uiso   1.00
C248   C     0.26522   0.75031   0.26226   0.00000  Uiso   1.00
C249   C     0.01329   0.74393   0.23202   0.00000  Uiso   1.00
C250   C     0.32001   0.75683   0.26790   0.00000  Uiso   1.00
C251   C     0.20712   0.54789   0.26850   0.00000  Uiso   1.00
C252   C     0.15882   0.95576   0.20878   0.00000  Uiso   1.00
C253   C     0.21004   0.59424   0.26685   0.00000  Uiso   1.00
C254   C     0.16015   0.90946   0.20615   0.00000  Uiso   1.00
C255   C     0.16567   0.61744   0.25089   0.00000  Uiso   1.00
C256   C     0.16262   0.88403   0.24924   0.00000  Uiso   1.00
C257   C     0.11865   0.59517   0.23832   0.00000  Uiso   1.00
C258   C     0.16122   0.90554   0.29356   0.00000  Uiso   1.00
C259   C     0.11455   0.54921   0.24100   0.00000  Uiso   1.00
C260   C     0.15836   0.95135   0.29648   0.00000  Uiso   1.00
C261   C     0.15943   0.52534   0.25552   0.00000  Uiso   1.00
C262   C     0.15800   0.97665   0.25376   0.00000  Uiso   1.00
Cu263  Cu    0.16667   0.74999   0.29822   0.00000  Uiso   1.00
Cu264  Cu    0.16667   0.75000   0.20179   0.00000  Uiso   1.00
H265   H     0.08475   0.61405   0.22731   0.00000  Uiso   1.00
H266   H     0.16182   0.88642   0.32655   0.00000  Uiso   1.00
H267   H     0.23721   0.78439   0.04336   0.00000  Uiso   1.00
H268   H     0.12688   0.68855   0.46050   0.00000  Uiso   1.00
N269   N     0.16667   0.75001   0.12935   0.00000  Uiso   1.00
N270   N     0.16667   0.74999   0.37066   0.00000  Uiso   1.00
O271   O     0.16667   0.68572   0.29072   0.00000  Uiso   1.00
O272   O     0.16666   0.81427   0.20929   0.00000  Uiso   1.00
O273   O     0.16667   0.68573   0.20928   0.00000  Uiso   1.00
O274   O     0.16666   0.81427   0.29072   0.00000  Uiso   1.00
O275   O     0.09161   0.74999   0.28132   0.00000  Uiso   1.00
O276   O     0.24172   0.75000   0.21868   0.00000  Uiso   1.00
O277   O     0.09161   0.75000   0.19989   0.00000  Uiso   1.00
O278   O     0.24172   0.75000   0.30012   0.00000  Uiso   1.00
C279   C     0.32408   0.71722   0.18909   0.00000  Uiso   1.00
H280   H     0.33279   0.72637   0.15343   0.00000  Uiso   1.00
O281   O     0.29762   0.68398   0.19358   0.00000  Uiso   1.00
C282   C     0.00882   0.78466   0.31016   0.00000  Uiso   1.00
H283   H     0.33100   0.77798   0.34556   0.00000  Uiso   1.00
O284   O     0.03711   0.81663   0.30516   0.00000  Uiso   1.00
C285   C     0.25303   0.52334   0.28309   0.00000  Uiso   1.00
N286   N     0.28959   0.50373   0.29475   0.00000  Uiso   1.00
C287   C     0.15862   0.98221   0.16513   0.00000  Uiso   1.00
N288   N     0.15846   0.50332   0.13043   0.00000  Uiso   1.00
C289   C     0.25837   0.61798   0.28130   0.00000  Uiso   1.00
N290   N     0.29691   0.63688   0.29294   0.00000  Uiso   1.00
C291   C     0.15791   0.88908   0.15885   0.00000  Uiso   1.00
N292   N     0.15585   0.87319   0.12091   0.00000  Uiso   1.00
C293   C     0.06267   0.52814   0.22843   0.00000  Uiso   1.00
H294   H     0.03085   0.54827   0.21388   0.00000  Uiso   1.00
O295   O     0.05424   0.98879   0.23478   0.00000  Uiso   1.00
C296   C     0.15586   0.97078   0.34505   0.00000  Uiso   1.00
H297   H     0.16151   0.94986   0.37693   0.00000  Uiso   1.00
O298   O     0.14663   0.50959   0.35036   0.00000  Uiso   1.00
C299   C     0.24303   0.79909   0.13651   0.00000  Uiso   1.00
N300   N     0.27456   0.82100   0.15873   0.00000  Uiso   1.00
C301   C     0.11046   0.68364   0.36576   0.00000  Uiso   1.00
N302   N     0.08550   0.65628   0.34417   0.00000  Uiso   1.00
C303   C     0.09662   0.69531   0.12143   0.00000  Uiso   1.00
N304   N     0.07187   0.66857   0.13798   0.00000  Uiso   1.00
C305   C     0.22587   0.81382   0.37708   0.00000  Uiso   1.00
N306   N     0.25386   0.83787   0.36066   0.00000  Uiso   1.00
C307   C     0.07053   0.72367   0.01899   0.00000  Uiso   1.00
H308   H     0.06163   0.73867   0.48359   0.00000  Uiso   1.00
O309   O     0.03776   0.69971   0.03345   0.00000  Uiso   1.00
C310   C     0.19571   0.83289   0.47291   0.00000  Uiso   1.00
H311   H     0.17616   0.84089   0.00337   0.00000  Uiso   1.00
O312   O     0.22613   0.86031   0.46030   0.00000  Uiso   1.00
C313   C     0.50001   0.66531   0.25015   0.00000  Uiso   1.00
C314   C     0.49894   0.83523   0.24967   0.00000  Uiso   1.00
C315   C     0.53762   0.77048   0.05804   0.00000  Uiso   1.00
C316   C     0.47619   0.71713   0.44368   0.00000  Uiso   1.00
C317   C     0.53719   0.77232   0.10827   0.00000  Uiso   1.00
C318   C     0.47439   0.71760   0.39311   0.00000  Uiso   1.00
C319   C     0.46128   0.72775   0.10015   0.00000  Uiso   1.00
C320   C     0.52470   0.78399   0.39819   0.00000  Uiso   1.00
C321   C     0.45447   0.73359   0.04882   0.00000  Uiso   1.00
C322   C     0.51799   0.78934   0.44781   0.00000  Uiso   1.00
C323   C     0.49530   0.75304   0.02681   0.00000  Uiso   1.00
C324   C     0.49592   0.75373   0.47209   0.00000  Uiso   1.00
C325   C     0.40146   0.74991   0.23774   0.00000  Uiso   1.00
C326   C     0.59855   0.75031   0.26226   0.00000  Uiso   1.00
C327   C     0.34663   0.74393   0.23202   0.00000  Uiso   1.00
C328   C     0.65335   0.75683   0.26790   0.00000  Uiso   1.00
C329   C     0.54045   0.54789   0.26850   0.00000  Uiso   1.00
C330   C     0.49215   0.95576   0.20878   0.00000  Uiso   1.00
C331   C     0.54338   0.59424   0.26685   0.00000  Uiso   1.00
C332   C     0.49348   0.90946   0.20615   0.00000  Uiso   1.00
C333   C     0.49900   0.61744   0.25089   0.00000  Uiso   1.00
C334   C     0.49596   0.88403   0.24924   0.00000  Uiso   1.00
C335   C     0.45198   0.59517   0.23832   0.00000  Uiso   1.00
C336   C     0.49455   0.90554   0.29356   0.00000  Uiso   1.00
C337   C     0.44788   0.54921   0.24100   0.00000  Uiso   1.00
C338   C     0.49169   0.95135   0.29648   0.00000  Uiso   1.00
C339   C     0.49276   0.52534   0.25552   0.00000  Uiso   1.00
C340   C     0.49133   0.97665   0.25376   0.00000  Uiso   1.00
Cu341  Cu    0.50000   0.74999   0.29822   0.00000  Uiso   1.00
Cu342  Cu    0.50000   0.75000   0.20179   0.00000  Uiso   1.00
H343   H     0.41808   0.61405   0.22731   0.00000  Uiso   1.00
H344   H     0.49515   0.88642   0.32655   0.00000  Uiso   1.00
H345   H     0.57054   0.78439   0.04336   0.00000  Uiso   1.00
H346   H     0.46021   0.68855   0.46050   0.00000  Uiso   1.00
N347   N     0.50000   0.75001   0.12935   0.00000  Uiso   1.00
N348   N     0.50000   0.74999   0.37066   0.00000  Uiso   1.00
O349   O     0.50000   0.68572   0.29072   0.00000  Uiso   1.00
O350   O     0.50000   0.81427   0.20929   0.00000  Uiso   1.00
O351   O     0.50000   0.68573   0.20928   0.00000  Uiso   1.00
O352   O     0.50000   0.81427   0.29072   0.00000  Uiso   1.00
O353   O     0.42495   0.74999   0.28132   0.00000  Uiso   1.00
O354   O     0.57505   0.75000   0.21868   0.00000  Uiso   1.00
O355   O     0.42495   0.75000   0.19989   0.00000  Uiso   1.00
O356   O     0.57505   0.75000   0.30012   0.00000  Uiso   1.00
C357   C     0.65741   0.71722   0.18909   0.00000  Uiso   1.00
H358   H     0.66612   0.72637   0.15343   0.00000  Uiso   1.00
O359   O     0.63095   0.68398   0.19358   0.00000  Uiso   1.00
C360   C     0.34215   0.78466   0.31016   0.00000  Uiso   1.00
H361   H     0.66434   0.77798   0.34556   0.00000  Uiso   1.00
O362   O     0.37044   0.81663   0.30516   0.00000  Uiso   1.00
C363   C     0.58636   0.52334   0.28309   0.00000  Uiso   1.00
N364   N     0.62292   0.50373   0.29475   0.00000  Uiso   1.00
C365   C     0.49195   0.98221   0.16513   0.00000  Uiso   1.00
N366   N     0.49179   0.50332   0.13043   0.00000  Uiso   1.00
C367   C     0.59170   0.61798   0.28130   0.00000  Uiso   1.00
N368   N     0.63025   0.63688   0.29294   0.00000  Uiso   1.00
C369   C     0.49125   0.88908   0.15885   0.00000  Uiso   1.00
N370   N     0.48918   0.87319   0.12091   0.00000  Uiso   1.00
C371   C     0.39600   0.52814   0.22843   0.00000  Uiso   1.00
H372   H     0.36418   0.54827   0.21388   0.00000  Uiso   1.00
O373   O     0.38757   0.98879   0.23478   0.00000  Uiso   1.00
C374   C     0.48919   0.97078   0.34505   0.00000  Uiso   1.00
H375   H     0.49485   0.94986   0.37693   0.00000  Uiso   1.00
O376   O     0.47996   0.50959   0.35036   0.00000  Uiso   1.00
C377   C     0.57637   0.79909   0.13651   0.00000  Uiso   1.00
N378   N     0.60789   0.82100   0.15873   0.00000  Uiso   1.00
C379   C     0.44380   0.68364   0.36576   0.00000  Uiso   1.00
N380   N     0.41883   0.65628   0.34417   0.00000  Uiso   1.00
C381   C     0.42995   0.69531   0.12143   0.00000  Uiso   1.00
N382   N     0.40520   0.66857   0.13798   0.00000  Uiso   1.00
C383   C     0.55920   0.81382   0.37708   0.00000  Uiso   1.00
N384   N     0.58719   0.83787   0.36066   0.00000  Uiso   1.00
C385   C     0.40386   0.72367   0.01899   0.00000  Uiso   1.00
H386   H     0.39496   0.73867   0.48359   0.00000  Uiso   1.00
O387   O     0.37109   0.69971   0.03345   0.00000  Uiso   1.00
C388   C     0.52904   0.83289   0.47291   0.00000  Uiso   1.00
H389   H     0.50949   0.84089   0.00337   0.00000  Uiso   1.00
O390   O     0.55946   0.86031   0.46030   0.00000  Uiso   1.00
C391   C     0.83334   0.66531   0.25015   0.00000  Uiso   1.00
C392   C     0.83228   0.83523   0.24967   0.00000  Uiso   1.00
C393   C     0.87095   0.77048   0.05804   0.00000  Uiso   1.00
C394   C     0.80952   0.71713   0.44368   0.00000  Uiso   1.00
C395   C     0.87052   0.77232   0.10827   0.00000  Uiso   1.00
C396   C     0.80772   0.71760   0.39311   0.00000  Uiso   1.00
C397   C     0.79462   0.72775   0.10015   0.00000  Uiso   1.00
C398   C     0.85803   0.78399   0.39819   0.00000  Uiso   1.00
C399   C     0.78781   0.73359   0.04882   0.00000  Uiso   1.00
C400   C     0.85132   0.78934   0.44781   0.00000  Uiso   1.00
C401   C     0.82864   0.75304   0.02681   0.00000  Uiso   1.00
C402   C     0.82926   0.75373   0.47209   0.00000  Uiso   1.00
C403   C     0.73479   0.74991   0.23774   0.00000  Uiso   1.00
C404   C     0.93188   0.75031   0.26226   0.00000  Uiso   1.00
C405   C     0.67996   0.74393   0.23202   0.00000  Uiso   1.00
C406   C     0.98668   0.75683   0.26790   0.00000  Uiso   1.00
C407   C     0.87378   0.54789   0.26850   0.00000  Uiso   1.00
C408   C     0.82549   0.95576   0.20878   0.00000  Uiso   1.00
C409   C     0.87671   0.59424   0.26685   0.00000  Uiso   1.00
C410   C     0.82681   0.90946   0.20615   0.00000  Uiso   1.00
C411   C     0.83233   0.61744   0.25089   0.00000  Uiso   1.00
C412   C     0.82929   0.88403   0.24924   0.00000  Uiso   1.00
C413   C     0.78532   0.59517   0.23832   0.00000  Uiso   1.00
C414   C     0.82789   0.90554   0.29356   0.00000  Uiso   1.00
C415   C     0.78122   0.54921   0.24100   0.00000  Uiso   1.00
C416   C     0.82502   0.95135   0.29648   0.00000  Uiso   1.00
C417   C     0.82610   0.52534   0.25552   0.00000  Uiso   1.00
C418   C     0.82467   0.97665   0.25376   0.00000  Uiso   1.00
Cu419  Cu    0.83333   0.74999   0.29822   0.00000  Uiso   1.00
Cu420  Cu    0.83333   0.75000   0.20179   0.00000  Uiso   1.00
H421   H     0.75142   0.61405   0.22731   0.00000  Uiso   1.00
H422   H     0.82849   0.88642   0.32655   0.00000  Uiso   1.00
H423   H     0.90387   0.78439   0.04336   0.00000  Uiso   1.00
H424   H     0.79354   0.68855   0.46050   0.00000  Uiso   1.00
N425   N     0.83333   0.75001   0.12935   0.00000  Uiso   1.00
N426   N     0.83333   0.74999   0.37066   0.00000  Uiso   1.00
O427   O     0.83334   0.68572   0.29072   0.00000  Uiso   1.00
O428   O     0.83333   0.81427   0.20929   0.00000  Uiso   1.00
O429   O     0.83334   0.68573   0.20928   0.00000  Uiso   1.00
O430   O     0.83333   0.81427   0.29072   0.00000  Uiso   1.00
O431   O     0.75828   0.74999   0.28132   0.00000  Uiso   1.00
O432   O     0.90839   0.75000   0.21868   0.00000  Uiso   1.00
O433   O     0.75828   0.75000   0.19989   0.00000  Uiso   1.00
O434   O     0.90839   0.75000   0.30012   0.00000  Uiso   1.00
C435   C     0.99075   0.71722   0.18909   0.00000  Uiso   1.00
H436   H     0.99946   0.72637   0.15343   0.00000  Uiso   1.00
O437   O     0.96429   0.68398   0.19358   0.00000  Uiso   1.00
C438   C     0.67549   0.78466   0.31016   0.00000  Uiso   1.00
H439   H     0.99767   0.77798   0.34556   0.00000  Uiso   1.00
O440   O     0.70377   0.81663   0.30516   0.00000  Uiso   1.00
C441   C     0.91970   0.52334   0.28309   0.00000  Uiso   1.00
N442   N     0.95626   0.50373   0.29475   0.00000  Uiso   1.00
C443   C     0.82529   0.98221   0.16513   0.00000  Uiso   1.00
N444   N     0.82513   0.50332   0.13043   0.00000  Uiso   1.00
C445   C     0.92504   0.61798   0.28130   0.00000  Uiso   1.00
N446   N     0.96358   0.63688   0.29294   0.00000  Uiso   1.00
C447   C     0.82458   0.88908   0.15885   0.00000  Uiso   1.00
N448   N     0.82252   0.87319   0.12091   0.00000  Uiso   1.00
C449   C     0.72934   0.52814   0.22843   0.00000  Uiso   1.00
H450   H     0.69751   0.54827   0.21388   0.00000  Uiso   1.00
O451   O     0.72090   0.98879   0.23478   0.00000  Uiso   1.00
C452   C     0.82253   0.97078   0.34505   0.00000  Uiso   1.00
H453   H     0.82818   0.94986   0.37693   0.00000  Uiso   1.00
O454   O     0.81329   0.50959   0.35036   0.00000  Uiso   1.00
C455   C     0.90970   0.79909   0.13651   0.00000  Uiso   1.00
N456   N     0.94123   0.82100   0.15873   0.00000  Uiso   1.00
C457   C     0.77713   0.68364   0.36576   0.00000  Uiso   1.00
N458   N     0.75216   0.65628   0.34417   0.00000  Uiso   1.00
C459   C     0.76328   0.69531   0.12143   0.00000  Uiso   1.00
N460   N     0.73854   0.66857   0.13798   0.00000  Uiso   1.00
C461   C     0.89253   0.81382   0.37708   0.00000  Uiso   1.00
N462   N     0.92053   0.83787   0.36066   0.00000  Uiso   1.00
C463   C     0.73720   0.72367   0.01899   0.00000  Uiso   1.00
H464   H     0.72829   0.73867   0.48359   0.00000  Uiso   1.00
O465   O     0.70443   0.69971   0.03345   0.00000  Uiso   1.00
C466   C     0.86237   0.83289   0.47291   0.00000  Uiso   1.00
H467   H     0.84283   0.84089   0.00337   0.00000  Uiso   1.00
O468   O     0.89280   0.86031   0.46030   0.00000  Uiso   1.00
C469   C     0.16668   0.16531   0.75015   0.00000  Uiso   1.00
C470   C     0.16561   0.33523   0.74967   0.00000  Uiso   1.00
C471   C     0.20429   0.27048   0.55804   0.00000  Uiso   1.00
C472   C     0.14285   0.21713   0.94368   0.00000  Uiso   1.00
C473   C     0.20386   0.27232   0.60827   0.00000  Uiso   1.00
C474   C     0.14106   0.21760   0.89311   0.00000  Uiso   1.00
C475   C     0.12795   0.22775   0.60015   0.00000  Uiso   1.00
C476   C     0.19137   0.28399   0.89819   0.00000  Uiso   1.00
C477   C     0.12114   0.23359   0.54882   0.00000  Uiso   1.00
C478   C     0.18466   0.28934   0.94781   0.00000  Uiso   1.00
C479   C     0.16197   0.25304   0.52681   0.00000  Uiso   1.00
C480   C     0.16259   0.25373   0.97209   0.00000  Uiso   1.00
C481   C     0.06812   0.24991   0.73774   0.00000  Uiso   1.00
C482   C     0.26522   0.25031   0.76226   0.00000  Uiso   1.00
C483   C     0.01329   0.24393   0.73202   0.00000  Uiso   1.00
C484   C     0.32001   0.25683   0.76790   0.00000  Uiso   1.00
C485   C     0.20712   0.04789   0.76850   0.00000  Uiso   1.00
C486   C     0.15882   0.45576   0.70878   0.00000  Uiso   1.00
C487   C     0.21004   0.09424   0.76685   0.00000  Uiso   1.00
C488   C     0.16015   0.40946   0.70615   0.00000  Uiso   1.00
C489   C     0.16567   0.11744   0.75089   0.00000  Uiso   1.00
C490   C     0.16262   0.38403   0.74924   0.00000  Uiso   1.00
C491   C     0.11865   0.09517   0.73832   0.00000  Uiso   1.00
C492   C     0.16122   0.40554   0.79356   0.00000  Uiso   1.00
C493   C     0.11455   0.04921   0.74100   0.00000  Uiso   1.00
C494   C     0.15836   0.45135   0.79648   0.00000  Uiso   1.00
C495   C     0.15943   0.02534   0.75552   0.00000  Uiso   1.00
C496   C     0.15800   0.47665   0.75376   0.00000  Uiso   1.00
Cu497  Cu    0.16667   0.24999   0.79822   0.00000  Uiso   1.00
Cu498  Cu    0.16667   0.25000   0.70179   0.00000  Uiso   1.00
H499   H     0.08475   0.11405   0.72731   0.00000  Uiso   1.00
H500   H     0.16182   0.38642   0.82655   0.00000  Uiso   1.00
H501   H     0.23721   0.28439   0.54336   0.00000  Uiso   1.00
H502   H     0.12688   0.18855   0.96050   0.00000  Uiso   1.00
N503   N     0.16667   0.25001   0.62935   0.00000  Uiso   1.00
N504   N     0.16667   0.24999   0.87066   0.00000  Uiso   1.00
O505   O     0.16667   0.18572   0.79072   0.00000  Uiso   1.00
O506   O     0.16666   0.31427   0.70929   0.00000  Uiso   1.00
O507   O     0.16667   0.18573   0.70928   0.00000  Uiso   1.00
O508   O     0.16666   0.31427   0.79072   0.00000  Uiso   1.00
O509   O     0.09161   0.24999   0.78132   0.00000  Uiso   1.00
O510   O     0.24172   0.25000   0.71868   0.00000  Uiso   1.00
O511   O     0.09161   0.25000   0.69989   0.00000  Uiso   1.00
O512   O     0.24172   0.25000   0.80012   0.00000  Uiso   1.00
C513   C     0.32408   0.21722   0.68909   0.00000  Uiso   1.00
H514   H     0.33279   0.22637   0.65343   0.00000  Uiso   1.00
O515   O     0.29762   0.18398   0.69358   0.00000  Uiso   1.00
C516   C     0.00882   0.28466   0.81016   0.00000  Uiso   1.00
H517   H     0.33100   0.27798   0.84556   0.00000  Uiso   1.00
O518   O     0.03711   0.31663   0.80516   0.00000  Uiso   1.00
C519   C     0.25303   0.02334   0.78309   0.00000  Uiso   1.00
N520   N     0.28959   0.00373   0.79475   0.00000  Uiso   1.00
C521   C     0.15862   0.48221   0.66513   0.00000  Uiso   1.00
N522   N     0.15846   0.00332   0.63043   0.00000  Uiso   1.00
C523   C     0.25837   0.11798   0.78130   0.00000  Uiso   1.00
N524   N     0.29691   0.13688   0.79294   0.00000  Uiso   1.00
C525   C     0.15791   0.38908   0.65885   0.00000  Uiso   1.00
N526   N     0.15585   0.37319   0.62091   0.00000  Uiso   1.00
C527   C     0.06267   0.02814   0.72843   0.00000  Uiso   1.00
H528   H     0.03085   0.04827   0.71388   0.00000  Uiso   1.00
O529   O     0.05424   0.48879   0.73478   0.00000  Uiso   1.00
C530   C     0.15586   0.47078   0.84505   0.00000  Uiso   1.00
H531   H     0.16151   0.44986   0.87693   0.00000  Uiso   1.00
O532   O     0.14663   0.00959   0.85036   0.00000  Uiso   1.00
C533   C     0.24303   0.29909   0.63651   0.00000  Uiso   1.00
N534   N     0.27456   0.32100   0.65873   0.00000  Uiso   1.00
C535   C     0.11046   0.18364   0.86576   0.00000  Uiso   1.00
N536   N     0.08550   0.15628   0.84417   0.00000  Uiso   1.00
C537   C     0.09662   0.19531   0.62143   0.00000  Uiso   1.00
N538   N     0.07187   0.16857   0.63798   0.00000  Uiso   1.00
C539   C     0.22587   0.31382   0.87708   0.00000  Uiso   1.00
N540   N     0.25386   0.33787   0.86066   0.00000  Uiso   1.00
C541   C     0.07053   0.22367   0.51899   0.00000  Uiso   1.00
H542   H     0.06163   0.23867   0.98359   0.00000  Uiso   1.00
O543   O     0.03776   0.19971   0.53345   0.00000  Uiso   1.00
C544   C     0.19571   0.33289   0.97291   0.00000  Uiso   1.00
H545   H     0.17616   0.34089   0.50337   0.00000  Uiso   1.00
O546   O     0.22613   0.36031   0.96030   0.00000  Uiso   1.00
C547   C     0.50001   0.16531   0.75015   0.00000  Uiso   1.00
C548   C     0.49894   0.33523   0.74967   0.00000  Uiso   1.00
C549   C     0.53762   0.27048   0.55804   0.00000  Uiso   1.00
C550   C     0.47619   0.21713   0.94368   0.00000  Uiso   1.00
C551   C     0.53719   0.27232   0.60827   0.00000  Uiso   1.00
C552   C     0.47439   0.21760   0.89311   0.00000  Uiso   1.00
C553   C     0.46128   0.22775   0.60015   0.00000  Uiso   1.00
C554   C     0.52470   0.28399   0.89819   0.00000  Uiso   1.00
C555   C     0.45447   0.23359   0.54882   0.00000  Uiso   1.00
C556   C     0.51799   0.28934   0.94781   0.00000  Uiso   1.00
C557   C     0.49530   0.25304   0.52681   0.00000  Uiso   1.00
C558   C     0.49592   0.25373   0.97209   0.00000  Uiso   1.00
C559   C     0.40146   0.24991   0.73774   0.00000  Uiso   1.00
C560   C     0.59855   0.25031   0.76226   0.00000  Uiso   1.00
C561   C     0.34663   0.24393   0.73202   0.00000  Uiso   1.00
C562   C     0.65335   0.25683   0.76790   0.00000  Uiso   1.00
C563   C     0.54045   0.04789   0.76850   0.00000  Uiso   1.00
C564   C     0.49215   0.45576   0.70878   0.00000  Uiso   1.00
C565   C     0.54338   0.09424   0.76685   0.00000  Uiso   1.00
C566   C     0.49348   0.40946   0.70615   0.00000  Uiso   1.00
C567   C     0.49900   0.11744   0.75089   0.00000  Uiso   1.00
C568   C     0.49596   0.38403   0.74924   0.00000  Uiso   1.00
C569   C     0.45198   0.09517   0.73832   0.00000  Uiso   1.00
C570   C     0.49455   0.40554   0.79356   0.00000  Uiso   1.00
C571   C     0.44788   0.04921   0.74100   0.00000  Uiso   1.00
C572   C     0.49169   0.45135   0.79648   0.00000  Uiso   1.00
C573   C     0.49276   0.02534   0.75552   0.00000  Uiso   1.00
C574   C     0.49133   0.47665   0.75376   0.00000  Uiso   1.00
Cu575  Cu    0.50000   0.24999   0.79822   0.00000  Uiso   1.00
Cu576  Cu    0.50000   0.25000   0.70179   0.00000  Uiso   1.00
H577   H     0.41808   0.11405   0.72731   0.00000  Uiso   1.00
H578   H     0.49515   0.38642   0.82655   0.00000  Uiso   1.00
H579   H     0.57054   0.28439   0.54336   0.00000  Uiso   1.00
H580   H     0.46021   0.18855   0.96050   0.00000  Uiso   1.00
N581   N     0.50000   0.25001   0.62935   0.00000  Uiso   1.00
N582   N     0.50000   0.24999   0.87066   0.00000  Uiso   1.00
O583   O     0.50000   0.18572   0.79072   0.00000  Uiso   1.00
O584   O     0.50000   0.31427   0.70929   0.00000  Uiso   1.00
O585   O     0.50000   0.18573   0.70928   0.00000  Uiso   1.00
O586   O     0.50000   0.31427   0.79072   0.00000  Uiso   1.00
O587   O     0.42495   0.24999   0.78132   0.00000  Uiso   1.00
O588   O     0.57505   0.25000   0.71868   0.00000  Uiso   1.00
O589   O     0.42495   0.25000   0.69989   0.00000  Uiso   1.00
O590   O     0.57505   0.25000   0.80012   0.00000  Uiso   1.00
C591   C     0.65741   0.21722   0.68909   0.00000  Uiso   1.00
H592   H     0.66612   0.22637   0.65343   0.00000  Uiso   1.00
O593   O     0.63095   0.18398   0.69358   0.00000  Uiso   1.00
C594   C     0.34215   0.28466   0.81016   0.00000  Uiso   1.00
H595   H     0.66434   0.27798   0.84556   0.00000  Uiso   1.00
O596   O     0.37044   0.31663   0.80516   0.00000  Uiso   1.00
C597   C     0.58636   0.02334   0.78309   0.00000  Uiso   1.00
N598   N     0.62292   0.00373   0.79475   0.00000  Uiso   1.00
C599   C     0.49195   0.48221   0.66513   0.00000  Uiso   1.00
N600   N     0.49179   0.00332   0.63043   0.00000  Uiso   1.00
C601   C     0.59170   0.11798   0.78130   0.00000  Uiso   1.00
N602   N     0.63025   0.13688   0.79294   0.00000  Uiso   1.00
C603   C     0.49125   0.38908   0.65885   0.00000  Uiso   1.00
N604   N     0.48918   0.37319   0.62091   0.00000  Uiso   1.00
C605   C     0.39600   0.02814   0.72843   0.00000  Uiso   1.00
H606   H     0.36418   0.04827   0.71388   0.00000  Uiso   1.00
O607   O     0.38757   0.48879   0.73478   0.00000  Uiso   1.00
C608   C     0.48919   0.47078   0.84505   0.00000  Uiso   1.00
H609   H     0.49485   0.44986   0.87693   0.00000  Uiso   1.00
O610   O     0.47996   0.00959   0.85036   0.00000  Uiso   1.00
C611   C     0.57637   0.29909   0.63651   0.00000  Uiso   1.00
N612   N     0.60789   0.32100   0.65873   0.00000  Uiso   1.00
C613   C     0.44380   0.18364   0.86576   0.00000  Uiso   1.00
N614   N     0.41883   0.15628   0.84417   0.00000  Uiso   1.00
C615   C     0.42995   0.19531   0.62143   0.00000  Uiso   1.00
N616   N     0.40520   0.16857   0.63798   0.00000  Uiso   1.00
C617   C     0.55920   0.31382   0.87708   0.00000  Uiso   1.00
N618   N     0.58719   0.33787   0.86066   0.00000  Uiso   1.00
C619   C     0.40386   0.22367   0.51899   0.00000  Uiso   1.00
H620   H     0.39496   0.23867   0.98359   0.00000  Uiso   1.00
O621   O     0.37109   0.19971   0.53345   0.00000  Uiso   1.00
C622   C     0.52904   0.33289   0.97291   0.00000  Uiso   1.00
H623   H     0.50949   0.34089   0.50337   0.00000  Uiso   1.00
O624   O     0.55946   0.36031   0.96030   0.00000  Uiso   1.00
C625   C     0.83334   0.16531   0.75015   0.00000  Uiso   1.00
C626   C     0.83228   0.33523   0.74967   0.00000  Uiso   1.00
C627   C     0.87095   0.27048   0.55804   0.00000  Uiso   1.00
C628   C     0.80952   0.21713   0.94368   0.00000  Uiso   1.00
C629   C     0.87052   0.27232   0.60827   0.00000  Uiso   1.00
C630   C     0.80772   0.21760   0.89311   0.00000  Uiso   1.00
C631   C     0.79462   0.22775   0.60015   0.00000  Uiso   1.00
C632   C     0.85803   0.28399   0.89819   0.00000  Uiso   1.00
C633   C     0.78781   0.23359   0.54882   0.00000  Uiso   1.00
C634   C     0.85132   0.28934   0.94781   0.00000  Uiso   1.00
C635   C     0.82864   0.25304   0.52681   0.00000  Uiso   1.00
C636   C     0.82926   0.25373   0.97209   0.00000  Uiso   1.00
C637   C     0.73479   0.24991   0.73774   0.00000  Uiso   1.00
C638   C     0.93188   0.25031   0.76226   0.00000  Uiso   1.00
C639   C     0.67996   0.24393   0.73202   0.00000  Uiso   1.00
C640   C     0.98668   0.25683   0.76790   0.00000  Uiso   1.00
C641   C     0.87378   0.04789   0.76850   0.00000  Uiso   1.00
C642   C     0.82549   0.45576   0.70878   0.00000  Uiso   1.00
C643   C     0.87671   0.09424   0.76685   0.00000  Uiso   1.00
C644   C     0.82681   0.40946   0.70615   0.00000  Uiso   1.00
C645   C     0.83233   0.11744   0.75089   0.00000  Uiso   1.00
C646   C     0.82929   0.38403   0.74924   0.00000  Uiso   1.00
C647   C     0.78532   0.09517   0.73832   0.00000  Uiso   1.00
C648   C     0.82789   0.40554   0.79356   0.00000  Uiso   1.00
C649   C     0.78122   0.04921   0.74100   0.00000  Uiso   1.00
C650   C     0.82502   0.45135   0.79648   0.00000  Uiso   1.00
C651   C     0.82610   0.02534   0.75552   0.00000  Uiso   1.00
C652   C     0.82467   0.47665   0.75376   0.00000  Uiso   1.00
Cu653  Cu    0.83333   0.24999   0.79822   0.00000  Uiso   1.00
Cu654  Cu    0.83333   0.25000   0.70179   0.00000  Uiso   1.00
H655   H     0.75142   0.11405   0.72731   0.00000  Uiso   1.00
H656   H     0.82849   0.38642   0.82655   0.00000  Uiso   1.00
H657   H     0.90387   0.28439   0.54336   0.00000  Uiso   1.00
H658   H     0.79354   0.18855   0.96050   0.00000  Uiso   1.00
N659   N     0.83333   0.25001   0.62935   0.00000  Uiso   1.00
N660   N     0.83333   0.24999   0.87066   0.00000  Uiso   1.00
O661   O     0.83334   0.18572   0.79072   0.00000  Uiso   1.00
O662   O     0.83333   0.31427   0.70929   0.00000  Uiso   1.00
O663   O     0.83334   0.18573   0.70928   0.00000  Uiso   1.00
O664   O     0.83333   0.31427   0.79072   0.00000  Uiso   1.00
O665   O     0.75828   0.24999   0.78132   0.00000  Uiso   1.00
O666   O     0.90839   0.25000   0.71868   0.00000  Uiso   1.00
O667   O     0.75828   0.25000   0.69989   0.00000  Uiso   1.00
O668   O     0.90839   0.25000   0.80012   0.00000  Uiso   1.00
C669   C     0.99075   0.21722   0.68909   0.00000  Uiso   1.00
H670   H     0.99946   0.22637   0.65343   0.00000  Uiso   1.00
O671   O     0.96429   0.18398   0.69358   0.00000  Uiso   1.00
C672   C     0.67549   0.28466   0.81016   0.00000  Uiso   1.00
H673   H     0.99767   0.27798   0.84556   0.00000  Uiso   1.00
O674   O     0.70377   0.31663   0.80516   0.00000  Uiso   1.00
C675   C     0.91970   0.02334   0.78309   0.00000  Uiso   1.00
N676   N     0.95626   0.00373   0.79475   0.00000  Uiso   1.00
C677   C     0.82529   0.48221   0.66513   0.00000  Uiso   1.00
N678   N     0.82513   0.00332   0.63043   0.00000  Uiso   1.00
C679   C     0.92504   0.11798   0.78130   0.00000  Uiso   1.00
N680   N     0.96358   0.13688   0.79294   0.00000  Uiso   1.00
C681   C     0.82458   0.38908   0.65885   0.00000  Uiso   1.00
N682   N     0.82252   0.37319   0.62091   0.00000  Uiso   1.00
C683   C     0.72934   0.02814   0.72843   0.00000  Uiso   1.00
H684   H     0.69751   0.04827   0.71388   0.00000  Uiso   1.00
O685   O     0.72090   0.48879   0.73478   0.00000  Uiso   1.00
C686   C     0.82253   0.47078   0.84505   0.00000  Uiso   1.00
H687   H     0.82818   0.44986   0.87693   0.00000  Uiso   1.00
O688   O     0.81329   0.00959   0.85036   0.00000  Uiso   1.00
C689   C     0.90970   0.29909   0.63651   0.00000  Uiso   1.00
N690   N     0.94123   0.32100   0.65873   0.00000  Uiso   1.00
C691   C     0.77713   0.18364   0.86576   0.00000  Uiso   1.00
N692   N     0.75216   0.15628   0.84417   0.00000  Uiso   1.00
C693   C     0.76328   0.19531   0.62143   0.00000  Uiso   1.00
N694   N     0.73854   0.16857   0.63798   0.00000  Uiso   1.00
C695   C     0.89253   0.31382   0.87708   0.00000  Uiso   1.00
N696   N     0.92053   0.33787   0.86066   0.00000  Uiso   1.00
C697   C     0.73720   0.22367   0.51899   0.00000  Uiso   1.00
H698   H     0.72829   0.23867   0.98359   0.00000  Uiso   1.00
O699   O     0.70443   0.19971   0.53345   0.00000  Uiso   1.00
C700   C     0.86237   0.33289   0.97291   0.00000  Uiso   1.00
H701   H     0.84283   0.34089   0.50337   0.00000  Uiso   1.00
O702   O     0.89280   0.36031   0.96030   0.00000  Uiso   1.00
C703   C     0.16668   0.66531   0.75015   0.00000  Uiso   1.00
C704   C     0.16561   0.83523   0.74967   0.00000  Uiso   1.00
C705   C     0.20429   0.77048   0.55804   0.00000  Uiso   1.00
C706   C     0.14285   0.71713   0.94368   0.00000  Uiso   1.00
C707   C     0.20386   0.77232   0.60827   0.00000  Uiso   1.00
C708   C     0.14106   0.71760   0.89311   0.00000  Uiso   1.00
C709   C     0.12795   0.72775   0.60015   0.00000  Uiso   1.00
C710   C     0.19137   0.78399   0.89819   0.00000  Uiso   1.00
C711   C     0.12114   0.73359   0.54882   0.00000  Uiso   1.00
C712   C     0.18466   0.78934   0.94781   0.00000  Uiso   1.00
C713   C     0.16197   0.75304   0.52681   0.00000  Uiso   1.00
C714   C     0.16259   0.75373   0.97209   0.00000  Uiso   1.00
C715   C     0.06812   0.74991   0.73774   0.00000  Uiso   1.00
C716   C     0.26522   0.75031   0.76226   0.00000  Uiso   1.00
C717   C     0.01329   0.74393   0.73202   0.00000  Uiso   1.00
C718   C     0.32001   0.75683   0.76790   0.00000  Uiso   1.00
C719   C     0.20712   0.54789   0.76850   0.00000  Uiso   1.00
C720   C     0.15882   0.95576   0.70878   0.00000  Uiso   1.00
C721   C     0.21004   0.59424   0.76685   0.00000  Uiso   1.00
C722   C     0.16015   0.90946   0.70615   0.00000  Uiso   1.00
C723   C     0.16567   0.61744   0.75089   0.00000  Uiso   1.00
C724   C     0.16262   0.88403   0.74924   0.00000  Uiso   1.00
C725   C     0.11865   0.59517   0.73832   0.00000  Uiso   1.00
C726   C     0.16122   0.90554   0.79356   0.00000  Uiso   1.00
C727   C     0.11455   0.54921   0.74100   0.00000  Uiso   1.00
C728   C     0.15836   0.95135   0.79648   0.00000  Uiso   1.00
C729   C     0.15943   0.52534   0.75552   0.00000  Uiso   1.00
C730   C     0.15800   0.97665   0.75376   0.00000  Uiso   1.00
Cu731  Cu    0.16667   0.74999   0.79822   0.00000  Uiso   1.00
Cu732  Cu    0.16667   0.75000   0.70179   0.00000  Uiso   1.00
H733   H     0.08475   0.61405   0.72731   0.00000  Uiso   1.00
H734   H     0.16182   0.88642   0.82655   0.00000  Uiso   1.00
H735   H     0.23721   0.78439   0.54336   0.00000  Uiso   1.00
H736   H     0.12688   0.68855   0.96050   0.00000  Uiso   1.00
N737   N     0.16667   0.75001   0.62935   0.00000  Uiso   1.00
N738   N     0.16667   0.74999   0.87066   0.00000  Uiso   1.00
O739   O     0.16667   0.68572   0.79072   0.00000  Uiso   1.00
O740   O     0.16666   0.81427   0.70929   0.00000  Uiso   1.00
O741   O     0.16667   0.68573   0.70928   0.00000  Uiso   1.00
O742   O     0.16666   0.81427   0.79072   0.00000  Uiso   1.00
O743   O     0.09161   0.74999   0.78132   0.00000  Uiso   1.00
O744   O     0.24172   0.75000   0.71868   0.00000  Uiso   1.00
O745   O     0.09161   0.75000   0.69989   0.00000  Uiso   1.00
O746   O     0.24172   0.75000   0.80012   0.00000  Uiso   1.00
C747   C     0.32408   0.71722   0.68909   0.00000  Uiso   1.00
H748   H     0.33279   0.72637   0.65343   0.00000  Uiso   1.00
O749   O     0.29762   0.68398   0.69358   0.00000  Uiso   1.00
C750   C     0.00882   0.78466   0.81016   0.00000  Uiso   1.00
H751   H     0.33100   0.77798   0.84556   0.00000  Uiso   1.00
O752   O     0.03711   0.81663   0.80516   0.00000  Uiso   1.00
C753   C     0.25303   0.52334   0.78309   0.00000  Uiso   1.00
N754   N     0.28959   0.50373   0.79475   0.00000  Uiso   1.00
C755   C     0.15862   0.98221   0.66513   0.00000  Uiso   1.00
N756   N     0.15846   0.50332   0.63043   0.00000  Uiso   1.00
C757   C     0.25837   0.61798   0.78130   0.00000  Uiso   1.00
N758   N     0.29691   0.63688   0.79294   0.00000  Uiso   1.00
C759   C     0.15791   0.88908   0.65885   0.00000  Uiso   1.00
N760   N     0.15585   0.87319   0.62091   0.00000  Uiso   1.00
C761   C     0.06267   0.52814   0.72843   0.00000  Uiso   1.00
H762   H     0.03085   0.54827   0.71388   0.00000  Uiso   1.00
O763   O     0.05424   0.98879   0.73478   0.00000  Uiso   1.00
C764   C     0.15586   0.97078   0.84505   0.00000  Uiso   1.00
H765   H     0.16151   0.94986   0.87693   0.00000  Uiso   1.00
O766   O     0.14663   0.50959   0.85036   0.00000  Uiso   1.00
C767   C     0.24303   0.79909   0.63651   0.00000  Uiso   1.00
N768   N     0.27456   0.82100   0.65873   0.00000  Uiso   1.00
C769   C     0.11046   0.68364   0.86576   0.00000  Uiso   1.00
N770   N     0.08550   0.65628   0.84417   0.00000  Uiso   1.00
C771   C     0.09662   0.69531   0.62143   0.00000  Uiso   1.00
N772   N     0.07187   0.66857   0.63798   0.00000  Uiso   1.00
C773   C     0.22587   0.81382   0.87708   0.00000  Uiso   1.00
N774   N     0.25386   0.83787   0.86066   0.00000  Uiso   1.00
C775   C     0.07053   0.72367   0.51899   0.00000  Uiso   1.00
H776   H     0.06163   0.73867   0.98359   0.00000  Uiso   1.00
O777   O     0.03776   0.69971   0.53345   0.00000  Uiso   1.00
C778   C     0.19571   0.83289   0.97291   0.00000  Uiso   1.00
H779   H     0.17616   0.84089   0.50337   0.00000  Uiso   1.00
O780   O     0.22613   0.86031   0.96030   0.00000  Uiso   1.00
C781   C     0.50001   0.66531   0.75015   0.00000  Uiso   1.00
C782   C     0.49894   0.83523   0.74967   0.00000  Uiso   1.00
C783   C     0.53762   0.77048   0.55804   0.00000  Uiso   1.00
C784   C     0.47619   0.71713   0.94368   0.00000  Uiso   1.00
C785   C     0.53719   0.77232   0.60827   0.00000  Uiso   1.00
C786   C     0.47439   0.71760   0.89311   0.00000  Uiso   1.00
C787   C     0.46128   0.72775   0.60015   0.00000  Uiso   1.00
C788   C     0.52470   0.78399   0.89819   0.00000  Uiso   1.00
C789   C     0.45447   0.73359   0.54882   0.00000  Uiso   1.00
C790   C     0.51799   0.78934   0.94781   0.00000  Uiso   1.00
C791   C     0.49530   0.75304   0.52681   0.00000  Uiso   1.00
C792   C     0.49592   0.75373   0.97209   0.00000  Uiso   1.00
C793   C     0.40146   0.74991   0.73774   0.00000  Uiso   1.00
C794   C     0.59855   0.75031   0.76226   0.00000  Uiso   1.00
C795   C     0.34663   0.74393   0.73202   0.00000  Uiso   1.00
C796   C     0.65335   0.75683   0.76790   0.00000  Uiso   1.00
C797   C     0.54045   0.54789   0.76850   0.00000  Uiso   1.00
C798   C     0.49215   0.95576   0.70878   0.00000  Uiso   1.00
C799   C     0.54338   0.59424   0.76685   0.00000  Uiso   1.00
C800   C     0.49348   0.90946   0.70615   0.00000  Uiso   1.00
C801   C     0.49900   0.61744   0.75089   0.00000  Uiso   1.00
C802   C     0.49596   0.88403   0.74924   0.00000  Uiso   1.00
C803   C     0.45198   0.59517   0.73832   0.00000  Uiso   1.00
C804   C     0.49455   0.90554   0.79356   0.00000  Uiso   1.00
C805   C     0.44788   0.54921   0.74100   0.00000  Uiso   1.00
C806   C     0.49169   0.95135   0.79648   0.00000  Uiso   1.00
C807   C     0.49276   0.52534   0.75552   0.00000  Uiso   1.00
C808   C     0.49133   0.97665   0.75376   0.00000  Uiso   1.00
Cu809  Cu    0.50000   0.74999   0.79822   0.00000  Uiso   1.00
Cu810  Cu    0.50000   0.75000   0.70179   0.00000  Uiso   1.00
H811   H     0.41808   0.61405   0.72731   0.00000  Uiso   1.00
H812   H     0.49515   0.88642   0.82655   0.00000  Uiso   1.00
H813   H     0.57054   0.78439   0.54336   0.00000  Uiso   1.00
H814   H     0.46021   0.68855   0.96050   0.00000  Uiso   1.00
N815   N     0.50000   0.75001   0.62935   0.00000  Uiso   1.00
N816   N     0.50000   0.74999   0.87066   0.00000  Uiso   1.00
O817   O     0.50000   0.68572   0.79072   0.00000  Uiso   1.00
O818   O     0.50000   0.81427   0.70929   0.00000  Uiso   1.00
O819   O     0.50000   0.68573   0.70928   0.00000  Uiso   1.00
O820   O     0.50000   0.81427   0.79072   0.00000  Uiso   1.00
O821   O     0.42495   0.74999   0.78132   0.00000  Uiso   1.00
O822   O     0.57505   0.75000   0.71868   0.00000  Uiso   1.00
O823   O     0.42495   0.75000   0.69989   0.00000  Uiso   1.00
O824   O     0.57505   0.75000   0.80012   0.00000  Uiso   1.00
C825   C     0.65741   0.71722   0.68909   0.00000  Uiso   1.00
H826   H     0.66612   0.72637   0.65343   0.00000  Uiso   1.00
O827   O     0.63095   0.68398   0.69358   0.00000  Uiso   1.00
C828   C     0.34215   0.78466   0.81016   0.00000  Uiso   1.00
H829   H     0.66434   0.77798   0.84556   0.00000  Uiso   1.00
O830   O     0.37044   0.81663   0.80516   0.00000  Uiso   1.00
C831   C     0.58636   0.52334   0.78309   0.00000  Uiso   1.00
N832   N     0.62292   0.50373   0.79475   0.00000  Uiso   1.00
C833   C     0.49195   0.98221   0.66513   0.00000  Uiso   1.00
N834   N     0.49179   0.50332   0.63043   0.00000  Uiso   1.00
C835   C     0.59170   0.61798   0.78130   0.00000  Uiso   1.00
N836   N     0.63025   0.63688   0.79294   0.00000  Uiso   1.00
C837   C     0.49125   0.88908   0.65885   0.00000  Uiso   1.00
N838   N     0.48918   0.87319   0.62091   0.00000  Uiso   1.00
C839   C     0.39600   0.52814   0.72843   0.00000  Uiso   1.00
H840   H     0.36418   0.54827   0.71388   0.00000  Uiso   1.00
O841   O     0.38757   0.98879   0.73478   0.00000  Uiso   1.00
C842   C     0.48919   0.97078   0.84505   0.00000  Uiso   1.00
H843   H     0.49485   0.94986   0.87693   0.00000  Uiso   1.00
O844   O     0.47996   0.50959   0.85036   0.00000  Uiso   1.00
C845   C     0.57637   0.79909   0.63651   0.00000  Uiso   1.00
N846   N     0.60789   0.82100   0.65873   0.00000  Uiso   1.00
C847   C     0.44380   0.68364   0.86576   0.00000  Uiso   1.00
N848   N     0.41883   0.65628   0.84417   0.00000  Uiso   1.00
C849   C     0.42995   0.69531   0.62143   0.00000  Uiso   1.00
N850   N     0.40520   0.66857   0.63798   0.00000  Uiso   1.00
C851   C     0.55920   0.81382   0.87708   0.00000  Uiso   1.00
N852   N     0.58719   0.83787   0.86066   0.00000  Uiso   1.00
C853   C     0.40386   0.72367   0.51899   0.00000  Uiso   1.00
H854   H     0.39496   0.73867   0.98359   0.00000  Uiso   1.00
O855   O     0.37109   0.69971   0.53345   0.00000  Uiso   1.00
C856   C     0.52904   0.83289   0.97291   0.00000  Uiso   1.00
H857   H     0.50949   0.84089   0.50337   0.00000  Uiso   1.00
O858   O     0.55946   0.86031   0.96030   0.00000  Uiso   1.00
C859   C     0.83334   0.66531   0.75015   0.00000  Uiso   1.00
C860   C     0.83228   0.83523   0.74967   0.00000  Uiso   1.00
C861   C     0.87095   0.77048   0.55804   0.00000  Uiso   1.00
C862   C     0.80952   0.71713   0.94368   0.00000  Uiso   1.00
C863   C     0.87052   0.77232   0.60827   0.00000  Uiso   1.00
C864   C     0.80772   0.71760   0.89311   0.00000  Uiso   1.00
C865   C     0.79462   0.72775   0.60015   0.00000  Uiso   1.00
C866   C     0.85803   0.78399   0.89819   0.00000  Uiso   1.00
C867   C     0.78781   0.73359   0.54882   0.00000  Uiso   1.00
C868   C     0.85132   0.78934   0.94781   0.00000  Uiso   1.00
C869   C     0.82864   0.75304   0.52681   0.00000  Uiso   1.00
C870   C     0.82926   0.75373   0.97209   0.00000  Uiso   1.00
C871   C     0.73479   0.74991   0.73774   0.00000  Uiso   1.00
C872   C     0.93188   0.75031   0.76226   0.00000  Uiso   1.00
C873   C     0.67996   0.74393   0.73202   0.00000  Uiso   1.00
C874   C     0.98668   0.75683   0.76790   0.00000  Uiso   1.00
C875   C     0.87378   0.54789   0.76850   0.00000  Uiso   1.00
C876   C     0.82549   0.95576   0.70878   0.00000  Uiso   1.00
C877   C     0.87671   0.59424   0.76685   0.00000  Uiso   1.00
C878   C     0.82681   0.90946   0.70615   0.00000  Uiso   1.00
C879   C     0.83233   0.61744   0.75089   0.00000  Uiso   1.00
C880   C     0.82929   0.88403   0.74924   0.00000  Uiso   1.00
C881   C     0.78532   0.59517   0.73832   0.00000  Uiso   1.00
C882   C     0.82789   0.90554   0.79356   0.00000  Uiso   1.00
C883   C     0.78122   0.54921   0.74100   0.00000  Uiso   1.00
C884   C     0.82502   0.95135   0.79648   0.00000  Uiso   1.00
C885   C     0.82610   0.52534   0.75552   0.00000  Uiso   1.00
C886   C     0.82467   0.97665   0.75376   0.00000  Uiso   1.00
Cu887  Cu    0.83333   0.74999   0.79822   0.00000  Uiso   1.00
Cu888  Cu    0.83333   0.75000   0.70179   0.00000  Uiso   1.00
H889   H     0.75142   0.61405   0.72731   0.00000  Uiso   1.00
H890   H     0.82849   0.88642   0.82655   0.00000  Uiso   1.00
H891   H     0.90387   0.78439   0.54336   0.00000  Uiso   1.00
H892   H     0.79354   0.68855   0.96050   0.00000  Uiso   1.00
N893   N     0.83333   0.75001   0.62935   0.00000  Uiso   1.00
N894   N     0.83333   0.74999   0.87066   0.00000  Uiso   1.00
O895   O     0.83334   0.68572   0.79072   0.00000  Uiso   1.00
O896   O     0.83333   0.81427   0.70929   0.00000  Uiso   1.00
O897   O     0.83334   0.68573   0.70928   0.00000  Uiso   1.00
O898   O     0.83333   0.81427   0.79072   0.00000  Uiso   1.00
O899   O     0.75828   0.74999   0.78132   0.00000  Uiso   1.00
O900   O     0.90839   0.75000   0.71868   0.00000  Uiso   1.00
O901   O     0.75828   0.75000   0.69989   0.00000  Uiso   1.00
O902   O     0.90839   0.75000   0.80012   0.00000  Uiso   1.00
C903   C     0.99075   0.71722   0.68909   0.00000  Uiso   1.00
H904   H     0.99946   0.72637   0.65343   0.00000  Uiso   1.00
O905   O     0.96429   0.68398   0.69358   0.00000  Uiso   1.00
C906   C     0.67549   0.78466   0.81016   0.00000  Uiso   1.00
H907   H     0.99767   0.77798   0.84556   0.00000  Uiso   1.00
O908   O     0.70377   0.81663   0.80516   0.00000  Uiso   1.00
C909   C     0.91970   0.52334   0.78309   0.00000  Uiso   1.00
N910   N     0.95626   0.50373   0.79475   0.00000  Uiso   1.00
C911   C     0.82529   0.98221   0.66513   0.00000  Uiso   1.00
N912   N     0.82513   0.50332   0.63043   0.00000  Uiso   1.00
C913   C     0.92504   0.61798   0.78130   0.00000  Uiso   1.00
N914   N     0.96358   0.63688   0.79294   0.00000  Uiso   1.00
C915   C     0.82458   0.88908   0.65885   0.00000  Uiso   1.00
N916   N     0.82252   0.87319   0.62091   0.00000  Uiso   1.00
C917   C     0.72934   0.52814   0.72843   0.00000  Uiso   1.00
H918   H     0.69751   0.54827   0.71388   0.00000  Uiso   1.00
O919   O     0.72090   0.98879   0.73478   0.00000  Uiso   1.00
C920   C     0.82253   0.97078   0.84505   0.00000  Uiso   1.00
H921   H     0.82818   0.94986   0.87693   0.00000  Uiso   1.00
O922   O     0.81329   0.50959   0.85036   0.00000  Uiso   1.00
C923   C     0.90970   0.79909   0.63651   0.00000  Uiso   1.00
N924   N     0.94123   0.82100   0.65873   0.00000  Uiso   1.00
C925   C     0.77713   0.68364   0.86576   0.00000  Uiso   1.00
N926   N     0.75216   0.65628   0.84417   0.00000  Uiso   1.00
C927   C     0.76328   0.69531   0.62143   0.00000  Uiso   1.00
N928   N     0.73854   0.66857   0.63798   0.00000  Uiso   1.00
C929   C     0.89253   0.81382   0.87708   0.00000  Uiso   1.00
N930   N     0.92053   0.83787   0.86066   0.00000  Uiso   1.00
C931   C     0.73720   0.72367   0.51899   0.00000  Uiso   1.00
H932   H     0.72829   0.73867   0.98359   0.00000  Uiso   1.00
O933   O     0.70443   0.69971   0.53345   0.00000  Uiso   1.00
C934   C     0.86237   0.83289   0.97291   0.00000  Uiso   1.00
H935   H     0.84283   0.84089   0.50337   0.00000  Uiso   1.00
O936   O     0.89280   0.86031   0.96030   0.00000  Uiso   1.00
loop_
_geom_bond_atom_site_label_1
_geom_bond_atom_site_label_2
_geom_bond_distance
_geom_bond_site_symmetry_2
_ccdc_geom_bond_type
C1     C21     1.448   .     S
C1     O37     1.291   .     A
C1     O39     1.295   .     A
C2     C22     1.481   .     S
C2     O38     1.299   .     A
C2     O40     1.304   .     A
C3     H33     1.083   .     S
C3     C5      1.404   .     A
C3     C11     1.408   .     A
C4     C12     1.407   .     A
C4     H34     1.083   .     S
C4     C6      1.405   .     A
C5     C65     1.439   .     S
C5     N35     1.370   .     A
C6     C67     1.439   .     S
C6     N36     1.370   .     A
C7     C9      1.429   .     A
C7     N35     1.375   .     A
C7     C69     1.441   .     S
C8     N36     1.377   .     A
C8     C71     1.442   .     S
C8     C10     1.430   .     A
C9     C73     1.495   .     S
C9     C11     1.422   .     A
C10    C76     1.495   .     S
C10    C12     1.422   .     A
C11    C480    1.529   1_554 S
C12    C479    1.529   .     S
C13    O41     1.286   .     A
C13    C15     1.440   .     S
C13    O43     1.296   .     A
C14    O42     1.286   .     A
C14    O44     1.296   .     A
C14    C16     1.440   .     S
C15    C172    1.365   1_455 S
C15    C201    1.490   1_455 S
C16    C93     1.365   .     S
C16    C126    1.491   .     S
C17    C51     1.452   .     S
C17    C27     1.414   .     A
C17    C19     1.403   .     A
C18    C53     1.454   .     S
C18    C20     1.405   .     A
C18    C28     1.410   .     A
C19    C21     1.404   .     A
C19    C55     1.451   .     S
C20    C22     1.420   .     A
C20    C57     1.451   .     S
C21    C23     1.394   .     A
C22    C24     1.405   .     A
C23    H31     1.085   .     S
C23    C25     1.394   .     A
C24    C26     1.393   .     A
C24    H32     1.083   .     S
C25    C27     1.418   .     A
C25    C59     1.489   .     S
C26    C28     1.413   .     A
C26    C62     1.489   .     S
C27    C262    1.473   1_545 S
C28    C261    1.473   .     S
Cu29   N36     2.021   .     S
Cu29   Cu30    2.690   .     S
Cu29   O44     1.975   .     S
Cu29   O41     1.972   .     S
Cu29   O40     1.955   .     S
Cu29   O37     1.956   .     S
Cu30   N35     2.021   .     S
Cu30   O38     1.956   .     S
Cu30   O43     1.975   .     S
Cu30   O39     1.955   .     S
Cu30   O42     1.972   .     S
C45    H46     1.085   .     S
C45    O47     1.221   .     D
C45    C93     1.490   .     S
C48    O50     1.222   .     D
C48    C172    1.491   1_455 S
C48    H205    1.085   1_455 S
H49    C126    1.085   .     S
C51    N52     1.157   .     T
C53    N288    1.157   .     S
N54    C287    1.157   1_545 S
C55    N56     1.157   .     T
C57    N58     1.158   .     T
C59    H60     1.086   .     S
C59    O295    1.220   1_545 S
O61    C293    1.220   .     S
C62    H63     1.086   .     S
C62    O298    1.220   .     S
O64    C296    1.220   1_545 S
C65    N66     1.158   .     T
C67    N68     1.158   .     T
C69    N70     1.158   .     T
C71    N72     1.158   .     T
C73    O75     1.220   .     D
C73    H542    1.084   1_554 S
H74    C541    1.084   .     S
C76    O78     1.220   .     D
C76    H545    1.085   .     S
H77    C544    1.085   1_554 S
C79    C99     1.448   .     S
C79    O115    1.291   .     A
C79    O117    1.295   .     A
C80    C100    1.481   .     S
C80    O116    1.299   .     A
C80    O118    1.304   .     A
C81    H111    1.083   .     S
C81    C83     1.404   .     A
C81    C89     1.408   .     A
C82    C90     1.407   .     A
C82    H112    1.083   .     S
C82    C84     1.405   .     A
C83    C143    1.439   .     S
C83    N113    1.370   .     A
C84    C145    1.439   .     S
C84    N114    1.370   .     A
C85    C87     1.429   .     A
C85    N113    1.375   .     A
C85    C147    1.441   .     S
C86    N114    1.377   .     A
C86    C149    1.442   .     S
C86    C88     1.430   .     A
C87    C151    1.495   .     S
C87    C89     1.422   .     A
C88    C154    1.495   .     S
C88    C90     1.422   .     A
C89    C558    1.529   1_554 S
C90    C557    1.529   .     S
C91    O119    1.286   .     A
C91    C93     1.440   .     S
C91    O121    1.296   .     A
C92    O120    1.286   .     A
C92    O122    1.296   .     A
C92    C94     1.440   .     S
C94    C171    1.365   .     S
C94    C204    1.491   .     S
C95    C129    1.452   .     S
C95    C105    1.414   .     A
C95    C97     1.403   .     A
C96    C131    1.454   .     S
C96    C98     1.405   .     A
C96    C106    1.410   .     A
C97    C99     1.404   .     A
C97    C133    1.451   .     S
C98    C100    1.420   .     A
C98    C135    1.451   .     S
C99    C101    1.394   .     A
C100   C102    1.405   .     A
C101   H109    1.085   .     S
C101   C103    1.394   .     A
C102   C104    1.393   .     A
C102   H110    1.083   .     S
C103   C105    1.418   .     A
C103   C137    1.489   .     S
C104   C106    1.413   .     A
C104   C140    1.489   .     S
C105   C340    1.473   1_545 S
C106   C339    1.473   .     S
Cu107  N114    2.021   .     S
Cu107  Cu108   2.690   .     S
Cu107  O122    1.975   .     S
Cu107  O119    1.972   .     S
Cu107  O118    1.955   .     S
Cu107  O115    1.956   .     S
Cu108  N113    2.021   .     S
Cu108  O116    1.956   .     S
Cu108  O121    1.975   .     S
Cu108  O117    1.955   .     S
Cu108  O120    1.972   .     S
C123   H124    1.085   .     S
C123   O125    1.221   .     D
C123   C171    1.490   .     S
C126   O128    1.222   .     D
H127   C204    1.085   .     S
C129   N130    1.157   .     T
C131   N366    1.157   .     S
N132   C365    1.157   1_545 S
C133   N134    1.157   .     T
C135   N136    1.158   .     T
C137   H138    1.086   .     S
C137   O373    1.220   1_545 S
O139   C371    1.220   .     S
C140   H141    1.086   .     S
C140   O376    1.220   .     S
O142   C374    1.220   1_545 S
C143   N144    1.158   .     T
C145   N146    1.158   .     T
C147   N148    1.158   .     T
C149   N150    1.158   .     T
C151   O153    1.220   .     D
C151   H620    1.084   1_554 S
H152   C619    1.084   .     S
C154   O156    1.220   .     D
C154   H623    1.085   .     S
H155   C622    1.085   1_554 S
C157   C177    1.448   .     S
C157   O193    1.291   .     A
C157   O195    1.295   .     A
C158   C178    1.481   .     S
C158   O194    1.299   .     A
C158   O196    1.304   .     A
C159   H189    1.083   .     S
C159   C161    1.404   .     A
C159   C167    1.408   .     A
C160   C168    1.407   .     A
C160   H190    1.083   .     S
C160   C162    1.405   .     A
C161   C221    1.439   .     S
C161   N191    1.370   .     A
C162   C223    1.439   .     S
C162   N192    1.370   .     A
C163   C165    1.429   .     A
C163   N191    1.375   .     A
C163   C225    1.441   .     S
C164   N192    1.377   .     A
C164   C227    1.442   .     S
C164   C166    1.430   .     A
C165   C229    1.495   .     S
C165   C167    1.422   .     A
C166   C232    1.495   .     S
C166   C168    1.422   .     A
C167   C636    1.529   1_554 S
C168   C635    1.529   .     S
C169   O197    1.286   .     A
C169   C171    1.440   .     S
C169   O199    1.296   .     A
C170   O198    1.286   .     A
C170   O200    1.296   .     A
C170   C172    1.440   .     S
C172   C15     1.365   1_655 S
C172   C48     1.491   1_655 S
C173   C207    1.452   .     S
C173   C183    1.414   .     A
C173   C175    1.403   .     A
C174   C209    1.454   .     S
C174   C176    1.405   .     A
C174   C184    1.410   .     A
C175   C177    1.404   .     A
C175   C211    1.451   .     S
C176   C178    1.420   .     A
C176   C213    1.451   .     S
C177   C179    1.394   .     A
C178   C180    1.405   .     A
C179   H187    1.085   .     S
C179   C181    1.394   .     A
C180   C182    1.393   .     A
C180   H188    1.083   .     S
C181   C183    1.418   .     A
C181   C215    1.489   .     S
C182   C184    1.413   .     A
C182   C218    1.489   .     S
C183   C418    1.473   1_545 S
C184   C417    1.473   .     S
Cu185  N192    2.021   .     S
Cu185  Cu186   2.690   .     S
Cu185  O200    1.975   .     S
Cu185  O197    1.972   .     S
Cu185  O196    1.955   .     S
Cu185  O193    1.956   .     S
Cu186  N191    2.021   .     S
Cu186  O194    1.956   .     S
Cu186  O199    1.975   .     S
Cu186  O195    1.955   .     S
Cu186  O198    1.972   .     S
C201   H202    1.085   .     S
C201   O203    1.221   .     D
C201   C15     1.490   1_655 S
C204   O206    1.222   .     D
H205   C48     1.085   1_655 S
C207   N208    1.157   .     T
C209   N444    1.157   .     S
N210   C443    1.157   1_545 S
C211   N212    1.157   .     T
C213   N214    1.158   .     T
C215   H216    1.086   .     S
C215   O451    1.220   1_545 S
O217   C449    1.220   .     S
C218   H219    1.086   .     S
C218   O454    1.220   .     S
O220   C452    1.220   1_545 S
C221   N222    1.158   .     T
C223   N224    1.158   .     T
C225   N226    1.158   .     T
C227   N228    1.158   .     T
C229   O231    1.220   .     D
C229   H698    1.084   1_554 S
H230   C697    1.084   .     S
C232   O234    1.220   .     D
C232   H701    1.085   .     S
H233   C700    1.085   1_554 S
C235   C255    1.448   .     S
C235   O271    1.291   .     A
C235   O273    1.295   .     A
C236   C256    1.481   .     S
C236   O272    1.299   .     A
C236   O274    1.304   .     A
C237   H267    1.083   .     S
C237   C239    1.404   .     A
C237   C245    1.408   .     A
C238   C246    1.407   .     A
C238   H268    1.083   .     S
C238   C240    1.405   .     A
C239   C299    1.439   .     S
C239   N269    1.370   .     A
C240   C301    1.439   .     S
C240   N270    1.370   .     A
C241   C243    1.429   .     A
C241   N269    1.375   .     A
C241   C303    1.441   .     S
C242   N270    1.377   .     A
C242   C305    1.442   .     S
C242   C244    1.430   .     A
C243   C307    1.495   .     S
C243   C245    1.422   .     A
C244   C310    1.495   .     S
C244   C246    1.422   .     A
C245   C714    1.529   1_554 S
C246   C713    1.529   .     S
C247   O275    1.286   .     A
C247   C249    1.440   .     S
C247   O277    1.296   .     A
C248   O276    1.286   .     A
C248   O278    1.296   .     A
C248   C250    1.440   .     S
C249   C406    1.365   1_455 S
C249   C435    1.490   1_455 S
C250   C327    1.365   .     S
C250   C360    1.491   .     S
C251   C285    1.452   .     S
C251   C261    1.414   .     A
C251   C253    1.403   .     A
C252   C287    1.454   .     S
C252   C254    1.405   .     A
C252   C262    1.410   .     A
C253   C255    1.404   .     A
C253   C289    1.451   .     S
C254   C256    1.420   .     A
C254   C291    1.451   .     S
C255   C257    1.394   .     A
C256   C258    1.405   .     A
C257   H265    1.085   .     S
C257   C259    1.394   .     A
C258   C260    1.393   .     A
C258   H266    1.083   .     S
C259   C261    1.418   .     A
C259   C293    1.489   .     S
C260   C262    1.413   .     A
C260   C296    1.489   .     S
C262   C27     1.473   1_565 S
Cu263  N270    2.021   .     S
Cu263  Cu264   2.690   .     S
Cu263  O278    1.975   .     S
Cu263  O275    1.972   .     S
Cu263  O274    1.955   .     S
Cu263  O271    1.956   .     S
Cu264  N269    2.021   .     S
Cu264  O272    1.956   .     S
Cu264  O277    1.975   .     S
Cu264  O273    1.955   .     S
Cu264  O276    1.972   .     S
C279   H280    1.085   .     S
C279   O281    1.221   .     D
C279   C327    1.490   .     S
C282   O284    1.222   .     D
C282   C406    1.491   1_455 S
C282   H439    1.085   1_455 S
H283   C360    1.085   .     S
C285   N286    1.157   .     T
C287   N54     1.157   1_565 S
C289   N290    1.157   .     T
C291   N292    1.158   .     T
C293   H294    1.086   .     S
O295   C59     1.220   1_565 S
C296   H297    1.086   .     S
C296   O64     1.220   1_565 S
C299   N300    1.158   .     T
C301   N302    1.158   .     T
C303   N304    1.158   .     T
C305   N306    1.158   .     T
C307   O309    1.220   .     D
C307   H776    1.084   1_554 S
H308   C775    1.084   .     S
C310   O312    1.220   .     D
C310   H779    1.085   .     S
H311   C778    1.085   1_554 S
C313   C333    1.448   .     S
C313   O349    1.291   .     A
C313   O351    1.295   .     A
C314   C334    1.481   .     S
C314   O350    1.299   .     A
C314   O352    1.304   .     A
C315   H345    1.083   .     S
C315   C317    1.404   .     A
C315   C323    1.408   .     A
C316   C324    1.407   .     A
C316   H346    1.083   .     S
C316   C318    1.405   .     A
C317   C377    1.439   .     S
C317   N347    1.370   .     A
C318   C379    1.439   .     S
C318   N348    1.370   .     A
C319   C321    1.429   .     A
C319   N347    1.375   .     A
C319   C381    1.441   .     S
C320   N348    1.377   .     A
C320   C383    1.442   .     S
C320   C322    1.430   .     A
C321   C385    1.495   .     S
C321   C323    1.422   .     A
C322   C388    1.495   .     S
C322   C324    1.422   .     A
C323   C792    1.529   1_554 S
C324   C791    1.529   .     S
C325   O353    1.286   .     A
C325   C327    1.440   .     S
C325   O355    1.296   .     A
C326   O354    1.286   .     A
C326   O356    1.296   .     A
C326   C328    1.440   .     S
C328   C405    1.365   .     S
C328   C438    1.491   .     S
C329   C363    1.452   .     S
C329   C339    1.414   .     A
C329   C331    1.403   .     A
C330   C365    1.454   .     S
C330   C332    1.405   .     A
C330   C340    1.410   .     A
C331   C333    1.404   .     A
C331   C367    1.451   .     S
C332   C334    1.420   .     A
C332   C369    1.451   .     S
C333   C335    1.394   .     A
C334   C336    1.405   .     A
C335   H343    1.085   .     S
C335   C337    1.394   .     A
C336   C338    1.393   .     A
C336   H344    1.083   .     S
C337   C339    1.418   .     A
C337   C371    1.489   .     S
C338   C340    1.413   .     A
C338   C374    1.489   .     S
C340   C105    1.473   1_565 S
Cu341  N348    2.021   .     S
Cu341  Cu342   2.690   .     S
Cu341  O356    1.975   .     S
Cu341  O353    1.972   .     S
Cu341  O352    1.955   .     S
Cu341  O349    1.956   .     S
Cu342  N347    2.021   .     S
Cu342  O350    1.956   .     S
Cu342  O355    1.975   .     S
Cu342  O351    1.955   .     S
Cu342  O354    1.972   .     S
C357   H358    1.085   .     S
C357   O359    1.221   .     D
C357   C405    1.490   .     S
C360   O362    1.222   .     D
H361   C438    1.085   .     S
C363   N364    1.157   .     T
C365   N132    1.157   1_565 S
C367   N368    1.157   .     T
C369   N370    1.158   .     T
C371   H372    1.086   .     S
O373   C137    1.220   1_565 S
C374   H375    1.086   .     S
C374   O142    1.220   1_565 S
C377   N378    1.158   .     T
C379   N380    1.158   .     T
C381   N382    1.158   .     T
C383   N384    1.158   .     T
C385   O387    1.220   .     D
C385   H854    1.084   1_554 S
H386   C853    1.084   .     S
C388   O390    1.220   .     D
C388   H857    1.085   .     S
H389   C856    1.085   1_554 S
C391   C411    1.448   .     S
C391   O427    1.291   .     A
C391   O429    1.295   .     A
C392   C412    1.481   .     S
C392   O428    1.299   .     A
C392   O430    1.304   .     A
C393   H423    1.083   .     S
C393   C395    1.404   .     A
C393   C401    1.408   .     A
C394   C402    1.407   .     A
C394   H424    1.083   .     S
C394   C396    1.405   .     A
C395   C455    1.439   .     S
C395   N425    1.370   .     A
C396   C457    1.439   .     S
C396   N426    1.370   .     A
C397   C399    1.429   .     A
C397   N425    1.375   .     A
C397   C459    1.441   .     S
C398   N426    1.377   .     A
C398   C461    1.442   .     S
C398   C400    1.430   .     A
C399   C463    1.495   .     S
C399   C401    1.422   .     A
C400   C466    1.495   .     S
C400   C402    1.422   .     A
C401   C870    1.529   1_554 S
C402   C869    1.529   .     S
C403   O431    1.286   .     A
C403   C405    1.440   .     S
C403   O433    1.296   .     A
C404   O432    1.286   .     A
C404   O434    1.296   .     A
C404   C406    1.440   .     S
C406   C249    1.365   1_655 S
C406   C282    1.491   1_655 S
C407   C441    1.452   .     S
C407   C417    1.414   .     A
C407   C409    1.403   .     A
C408   C443    1.454   .     S
C408   C410    1.405   .     A
C408   C418    1.410   .     A
C409   C411    1.404   .     A
C409   C445    1.451   .     S
C410   C412    1.420   .     A
C410   C447    1.451   .     S
C411   C413    1.394   .     A
C412   C414    1.405   .     A
C413   H421    1.085   .     S
C413   C415    1.394   .     A
C414   C416    1.393   .     A
C414   H422    1.083   .     S
C415   C417    1.418   .     A
C415   C449    1.489   .     S
C416   C418    1.413   .     A
C416   C452    1.489   .     S
C418   C183    1.473   1_565 S
Cu419  N426    2.021   .     S
Cu419  Cu420   2.690   .     S
Cu419  O434    1.975   .     S
Cu419  O431    1.972   .     S
Cu419  O430    1.955   .     S
Cu419  O427    1.956   .     S
Cu420  N425    2.021   .     S
Cu420  O428    1.956   .     S
Cu420  O433    1.975   .     S
Cu420  O429    1.955   .     S
Cu420  O432    1.972   .     S
C435   H436    1.085   .     S
C435   O437    1.221   .     D
C435   C249    1.490   1_655 S
C438   O440    1.222   .     D
H439   C282    1.085   1_655 S
C441   N442    1.157   .     T
C443   N210    1.157   1_565 S
C445   N446    1.157   .     T
C447   N448    1.158   .     T
C449   H450    1.086   .     S
O451   C215    1.220   1_565 S
C452   H453    1.086   .     S
C452   O220    1.220   1_565 S
C455   N456    1.158   .     T
C457   N458    1.158   .     T
C459   N460    1.158   .     T
C461   N462    1.158   .     T
C463   O465    1.220   .     D
C463   H932    1.084   1_554 S
H464   C931    1.084   .     S
C466   O468    1.220   .     D
C466   H935    1.085   .     S
H467   C934    1.085   1_554 S
C469   C489    1.448   .     S
C469   O505    1.291   .     A
C469   O507    1.295   .     A
C470   C490    1.481   .     S
C470   O506    1.299   .     A
C470   O508    1.304   .     A
C471   H501    1.083   .     S
C471   C473    1.404   .     A
C471   C479    1.408   .     A
C472   C480    1.407   .     A
C472   H502    1.083   .     S
C472   C474    1.405   .     A
C473   C533    1.439   .     S
C473   N503    1.370   .     A
C474   C535    1.439   .     S
C474   N504    1.370   .     A
C475   C477    1.429   .     A
C475   N503    1.375   .     A
C475   C537    1.441   .     S
C476   N504    1.377   .     A
C476   C539    1.442   .     S
C476   C478    1.430   .     A
C477   C541    1.495   .     S
C477   C479    1.422   .     A
C478   C544    1.495   .     S
C478   C480    1.422   .     A
C480   C11     1.529   1_556 S
C481   O509    1.286   .     A
C481   C483    1.440   .     S
C481   O511    1.296   .     A
C482   O510    1.286   .     A
C482   O512    1.296   .     A
C482   C484    1.440   .     S
C483   C640    1.365   1_455 S
C483   C669    1.490   1_455 S
C484   C561    1.365   .     S
C484   C594    1.491   .     S
C485   C519    1.452   .     S
C485   C495    1.414   .     A
C485   C487    1.403   .     A
C486   C521    1.454   .     S
C486   C488    1.405   .     A
C486   C496    1.410   .     A
C487   C489    1.404   .     A
C487   C523    1.451   .     S
C488   C490    1.420   .     A
C488   C525    1.451   .     S
C489   C491    1.394   .     A
C490   C492    1.405   .     A
C491   H499    1.085   .     S
C491   C493    1.394   .     A
C492   C494    1.393   .     A
C492   H500    1.083   .     S
C493   C495    1.418   .     A
C493   C527    1.489   .     S
C494   C496    1.413   .     A
C494   C530    1.489   .     S
C495   C730    1.473   1_545 S
C496   C729    1.473   .     S
Cu497  N504    2.021   .     S
Cu497  Cu498   2.690   .     S
Cu497  O512    1.975   .     S
Cu497  O509    1.972   .     S
Cu497  O508    1.955   .     S
Cu497  O505    1.956   .     S
Cu498  N503    2.021   .     S
Cu498  O506    1.956   .     S
Cu498  O511    1.975   .     S
Cu498  O507    1.955   .     S
Cu498  O510    1.972   .     S
C513   H514    1.085   .     S
C513   O515    1.221   .     D
C513   C561    1.490   .     S
C516   O518    1.222   .     D
C516   C640    1.491   1_455 S
C516   H673    1.085   1_455 S
H517   C594    1.085   .     S
C519   N520    1.157   .     T
C521   N756    1.157   .     S
N522   C755    1.157   1_545 S
C523   N524    1.157   .     T
C525   N526    1.158   .     T
C527   H528    1.086   .     S
C527   O763    1.220   1_545 S
O529   C761    1.220   .     S
C530   H531    1.086   .     S
C530   O766    1.220   .     S
O532   C764    1.220   1_545 S
C533   N534    1.158   .     T
C535   N536    1.158   .     T
C537   N538    1.158   .     T
C539   N540    1.158   .     T
C541   O543    1.220   .     D
H542   C73     1.084   1_556 S
C544   O546    1.220   .     D
C544   H77     1.085   1_556 S
C547   C567    1.448   .     S
C547   O583    1.291   .     A
C547   O585    1.295   .     A
C548   C568    1.481   .     S
C548   O584    1.299   .     A
C548   O586    1.304   .     A
C549   H579    1.083   .     S
C549   C551    1.404   .     A
C549   C557    1.408   .     A
C550   C558    1.407   .     A
C550   H580    1.083   .     S
C550   C552    1.405   .     A
C551   C611    1.439   .     S
C551   N581    1.370   .     A
C552   C613    1.439   .     S
C552   N582    1.370   .     A
C553   C555    1.429   .     A
C553   N581    1.375   .     A
C553   C615    1.441   .     S
C554   N582    1.377   .     A
C554   C617    1.442   .     S
C554   C556    1.430   .     A
C555   C619    1.495   .     S
C555   C557    1.422   .     A
C556   C622    1.495   .     S
C556   C558    1.422   .     A
C558   C89     1.529   1_556 S
C559   O587    1.286   .     A
C559   C561    1.440   .     S
C559   O589    1.296   .     A
C560   O588    1.286   .     A
C560   O590    1.296   .     A
C560   C562    1.440   .     S
C562   C639    1.365   .     S
C562   C672    1.491   .     S
C563   C597    1.452   .     S
C563   C573    1.414   .     A
C563   C565    1.403   .     A
C564   C599    1.454   .     S
C564   C566    1.405   .     A
C564   C574    1.410   .     A
C565   C567    1.404   .     A
C565   C601    1.451   .     S
C566   C568    1.420   .     A
C566   C603    1.451   .     S
C567   C569    1.394   .     A
C568   C570    1.405   .     A
C569   H577    1.085   .     S
C569   C571    1.394   .     A
C570   C572    1.393   .     A
C570   H578    1.083   .     S
C571   C573    1.418   .     A
C571   C605    1.489   .     S
C572   C574    1.413   .     A
C572   C608    1.489   .     S
C573   C808    1.473   1_545 S
C574   C807    1.473   .     S
Cu575  N582    2.021   .     S
Cu575  Cu576   2.690   .     S
Cu575  O590    1.975   .     S
Cu575  O587    1.972   .     S
Cu575  O586    1.955   .     S
Cu575  O583    1.956   .     S
Cu576  N581    2.021   .     S
Cu576  O584    1.956   .     S
Cu576  O589    1.975   .     S
Cu576  O585    1.955   .     S
Cu576  O588    1.972   .     S
C591   H592    1.085   .     S
C591   O593    1.221   .     D
C591   C639    1.490   .     S
C594   O596    1.222   .     D
H595   C672    1.085   .     S
C597   N598    1.157   .     T
C599   N834    1.157   .     S
N600   C833    1.157   1_545 S
C601   N602    1.157   .     T
C603   N604    1.158   .     T
C605   H606    1.086   .     S
C605   O841    1.220   1_545 S
O607   C839    1.220   .     S
C608   H609    1.086   .     S
C608   O844    1.220   .     S
O610   C842    1.220   1_545 S
C611   N612    1.158   .     T
C613   N614    1.158   .     T
C615   N616    1.158   .     T
C617   N618    1.158   .     T
C619   O621    1.220   .     D
H620   C151    1.084   1_556 S
C622   O624    1.220   .     D
C622   H155    1.085   1_556 S
C625   C645    1.448   .     S
C625   O661    1.291   .     A
C625   O663    1.295   .     A
C626   C646    1.481   .     S
C626   O662    1.299   .     A
C626   O664    1.304   .     A
C627   H657    1.083   .     S
C627   C629    1.404   .     A
C627   C635    1.408   .     A
C628   C636    1.407   .     A
C628   H658    1.083   .     S
C628   C630    1.405   .     A
C629   C689    1.439   .     S
C629   N659    1.370   .     A
C630   C691    1.439   .     S
C630   N660    1.370   .     A
C631   C633    1.429   .     A
C631   N659    1.375   .     A
C631   C693    1.441   .     S
C632   N660    1.377   .     A
C632   C695    1.442   .     S
C632   C634    1.430   .     A
C633   C697    1.495   .     S
C633   C635    1.422   .     A
C634   C700    1.495   .     S
C634   C636    1.422   .     A
C636   C167    1.529   1_556 S
C637   O665    1.286   .     A
C637   C639    1.440   .     S
C637   O667    1.296   .     A
C638   O666    1.286   .     A
C638   O668    1.296   .     A
C638   C640    1.440   .     S
C640   C483    1.365   1_655 S
C640   C516    1.491   1_655 S
C641   C675    1.452   .     S
C641   C651    1.414   .     A
C641   C643    1.403   .     A
C642   C677    1.454   .     S
C642   C644    1.405   .     A
C642   C652    1.410   .     A
C643   C645    1.404   .     A
C643   C679    1.451   .     S
C644   C646    1.420   .     A
C644   C681    1.451   .     S
C645   C647    1.394   .     A
C646   C648    1.405   .     A
C647   H655    1.085   .     S
C647   C649    1.394   .     A
C648   C650    1.393   .     A
C648   H656    1.083   .     S
C649   C651    1.418   .     A
C649   C683    1.489   .     S
C650   C652    1.413   .     A
C650   C686    1.489   .     S
C651   C886    1.473   1_545 S
C652   C885    1.473   .     S
Cu653  N660    2.021   .     S
Cu653  Cu654   2.690   .     S
Cu653  O668    1.975   .     S
Cu653  O665    1.972   .     S
Cu653  O664    1.955   .     S
Cu653  O661    1.956   .     S
Cu654  N659    2.021   .     S
Cu654  O662    1.956   .     S
Cu654  O667    1.975   .     S
Cu654  O663    1.955   .     S
Cu654  O666    1.972   .     S
C669   H670    1.085   .     S
C669   O671    1.221   .     D
C669   C483    1.490   1_655 S
C672   O674    1.222   .     D
H673   C516    1.085   1_655 S
C675   N676    1.157   .     T
C677   N912    1.157   .     S
N678   C911    1.157   1_545 S
C679   N680    1.157   .     T
C681   N682    1.158   .     T
C683   H684    1.086   .     S
C683   O919    1.220   1_545 S
O685   C917    1.220   .     S
C686   H687    1.086   .     S
C686   O922    1.220   .     S
O688   C920    1.220   1_545 S
C689   N690    1.158   .     T
C691   N692    1.158   .     T
C693   N694    1.158   .     T
C695   N696    1.158   .     T
C697   O699    1.220   .     D
H698   C229    1.084   1_556 S
C700   O702    1.220   .     D
C700   H233    1.085   1_556 S
C703   C723    1.448   .     S
C703   O739    1.291   .     A
C703   O741    1.295   .     A
C704   C724    1.481   .     S
C704   O740    1.299   .     A
C704   O742    1.304   .     A
C705   H735    1.083   .     S
C705   C707    1.404   .     A
C705   C713    1.408   .     A
C706   C714    1.407   .     A
C706   H736    1.083   .     S
C706   C708    1.405   .     A
C707   C767    1.439   .     S
C707   N737    1.370   .     A
C708   C769    1.439   .     S
C708   N738    1.370   .     A
C709   C711    1.429   .     A
C709   N737    1.375   .     A
C709   C771    1.441   .     S
C710   N738    1.377   .     A
C710   C773    1.442   .     S
C710   C712    1.430   .     A
C711   C775    1.495   .     S
C711   C713    1.422   .     A
C712   C778    1.495   .     S
C712   C714    1.422   .     A
C714   C245    1.529   1_556 S
C715   O743    1.286   .     A
C715   C717    1.440   .     S
C715   O745    1.296   .     A
C716   O744    1.286   .     A
C716   O746    1.296   .     A
C716   C718    1.440   .     S
C717   C874    1.365   1_455 S
C717   C903    1.490   1_455 S
C718   C795    1.365   .     S
C718   C828    1.491   .     S
C719   C753    1.452   .     S
C719   C729    1.414   .     A
C719   C721    1.403   .     A
C720   C755    1.454   .     S
C720   C722    1.405   .     A
C720   C730    1.410   .     A
C721   C723    1.404   .     A
C721   C757    1.451   .     S
C722   C724    1.420   .     A
C722   C759    1.451   .     S
C723   C725    1.394   .     A
C724   C726    1.405   .     A
C725   H733    1.085   .     S
C725   C727    1.394   .     A
C726   C728    1.393   .     A
C726   H734    1.083   .     S
C727   C729    1.418   .     A
C727   C761    1.489   .     S
C728   C730    1.413   .     A
C728   C764    1.489   .     S
C730   C495    1.473   1_565 S
Cu731  N738    2.021   .     S
Cu731  Cu732   2.690   .     S
Cu731  O746    1.975   .     S
Cu731  O743    1.972   .     S
Cu731  O742    1.955   .     S
Cu731  O739    1.956   .     S
Cu732  N737    2.021   .     S
Cu732  O740    1.956   .     S
Cu732  O745    1.975   .     S
Cu732  O741    1.955   .     S
Cu732  O744    1.972   .     S
C747   H748    1.085   .     S
C747   O749    1.221   .     D
C747   C795    1.490   .     S
C750   O752    1.222   .     D
C750   C874    1.491   1_455 S
C750   H907    1.085   1_455 S
H751   C828    1.085   .     S
C753   N754    1.157   .     T
C755   N522    1.157   1_565 S
C757   N758    1.157   .     T
C759   N760    1.158   .     T
C761   H762    1.086   .     S
O763   C527    1.220   1_565 S
C764   H765    1.086   .     S
C764   O532    1.220   1_565 S
C767   N768    1.158   .     T
C769   N770    1.158   .     T
C771   N772    1.158   .     T
C773   N774    1.158   .     T
C775   O777    1.220   .     D
H776   C307    1.084   1_556 S
C778   O780    1.220   .     D
C778   H311    1.085   1_556 S
C781   C801    1.448   .     S
C781   O817    1.291   .     A
C781   O819    1.295   .     A
C782   C802    1.481   .     S
C782   O818    1.299   .     A
C782   O820    1.304   .     A
C783   H813    1.083   .     S
C783   C785    1.404   .     A
C783   C791    1.408   .     A
C784   C792    1.407   .     A
C784   H814    1.083   .     S
C784   C786    1.405   .     A
C785   C845    1.439   .     S
C785   N815    1.370   .     A
C786   C847    1.439   .     S
C786   N816    1.370   .     A
C787   C789    1.429   .     A
C787   N815    1.375   .     A
C787   C849    1.441   .     S
C788   N816    1.377   .     A
C788   C851    1.442   .     S
C788   C790    1.430   .     A
C789   C853    1.495   .     S
C789   C791    1.422   .     A
C790   C856    1.495   .     S
C790   C792    1.422   .     A
C792   C323    1.529   1_556 S
C793   O821    1.286   .     A
C793   C795    1.440   .     S
C793   O823    1.296   .     A
C794   O822    1.286   .     A
C794   O824    1.296   .     A
C794   C796    1.440   .     S
C796   C873    1.365   .     S
C796   C906    1.491   .     S
C797   C831    1.452   .     S
C797   C807    1.414   .     A
C797   C799    1.403   .     A
C798   C833    1.454   .     S
C798   C800    1.405   .     A
C798   C808    1.410   .     A
C799   C801    1.404   .     A
C799   C835    1.451   .     S
C800   C802    1.420   .     A
C800   C837    1.451   .     S
C801   C803    1.394   .     A
C802   C804    1.405   .     A
C803   H811    1.085   .     S
C803   C805    1.394   .     A
C804   C806    1.393   .     A
C804   H812    1.083   .     S
C805   C807    1.418   .     A
C805   C839    1.489   .     S
C806   C808    1.413   .     A
C806   C842    1.489   .     S
C808   C573    1.473   1_565 S
Cu809  N816    2.021   .     S
Cu809  Cu810   2.690   .     S
Cu809  O824    1.975   .     S
Cu809  O821    1.972   .     S
Cu809  O820    1.955   .     S
Cu809  O817    1.956   .     S
Cu810  N815    2.021   .     S
Cu810  O818    1.956   .     S
Cu810  O823    1.975   .     S
Cu810  O819    1.955   .     S
Cu810  O822    1.972   .     S
C825   H826    1.085   .     S
C825   O827    1.221   .     D
C825   C873    1.490   .     S
C828   O830    1.222   .     D
H829   C906    1.085   .     S
C831   N832    1.157   .     T
C833   N600    1.157   1_565 S
C835   N836    1.157   .     T
C837   N838    1.158   .     T
C839   H840    1.086   .     S
O841   C605    1.220   1_565 S
C842   H843    1.086   .     S
C842   O610    1.220   1_565 S
C845   N846    1.158   .     T
C847   N848    1.158   .     T
C849   N850    1.158   .     T
C851   N852    1.158   .     T
C853   O855    1.220   .     D
H854   C385    1.084   1_556 S
C856   O858    1.220   .     D
C856   H389    1.085   1_556 S
C859   C879    1.448   .     S
C859   O895    1.291   .     A
C859   O897    1.295   .     A
C860   C880    1.481   .     S
C860   O896    1.299   .     A
C860   O898    1.304   .     A
C861   H891    1.083   .     S
C861   C863    1.404   .     A
C861   C869    1.408   .     A
C862   C870    1.407   .     A
C862   H892    1.083   .     S
C862   C864    1.405   .     A
C863   C923    1.439   .     S
C863   N893    1.370   .     A
C864   C925    1.439   .     S
C864   N894    1.370   .     A
C865   C867    1.429   .     A
C865   N893    1.375   .     A
C865   C927    1.441   .     S
C866   N894    1.377   .     A
C866   C929    1.442   .     S
C866   C868    1.430   .     A
C867   C931    1.495   .     S
C867   C869    1.422   .     A
C868   C934    1.495   .     S
C868   C870    1.422   .     A
C870   C401    1.529   1_556 S
C871   O899    1.286   .     A
C871   C873    1.440   .     S
C871   O901    1.296   .     A
C872   O900    1.286   .     A
C872   O902    1.296   .     A
C872   C874    1.440   .     S
C874   C717    1.365   1_655 S
C874   C750    1.491   1_655 S
C875   C909    1.452   .     S
C875   C885    1.414   .     A
C875   C877    1.403   .     A
C876   C911    1.454   .     S
C876   C878    1.405   .     A
C876   C886    1.410   .     A
C877   C879    1.404   .     A
C877   C913    1.451   .     S
C878   C880    1.420   .     A
C878   C915    1.451   .     S
C879   C881    1.394   .     A
C880   C882    1.405   .     A
C881   H889    1.085   .     S
C881   C883    1.394   .     A
C882   C884    1.393   .     A
C882   H890    1.083   .     S
C883   C885    1.418   .     A
C883   C917    1.489   .     S
C884   C886    1.413   .     A
C884   C920    1.489   .     S
C886   C651    1.473   1_565 S
Cu887  N894    2.021   .     S
Cu887  Cu888   2.690   .     S
Cu887  O902    1.975   .     S
Cu887  O899    1.972   .     S
Cu887  O898    1.955   .     S
Cu887  O895    1.956   .     S
Cu888  N893    2.021   .     S
Cu888  O896    1.956   .     S
Cu888  O901    1.975   .     S
Cu888  O897    1.955   .     S
Cu888  O900    1.972   .     S
C903   H904    1.085   .     S
C903   O905    1.221   .     D
C903   C717    1.490   1_655 S
C906   O908    1.222   .     D
H907   C750    1.085   1_655 S
C909   N910    1.157   .     T
C911   N678    1.157   1_565 S
C913   N914    1.157   .     T
C915   N916    1.158   .     T
C917   H918    1.086   .     S
O919   C683    1.220   1_565 S
C920   H921    1.086   .     S
C920   O688    1.220   1_565 S
C923   N924    1.158   .     T
C925   N926    1.158   .     T
C927   N928    1.158   .     T
C929   N930    1.158   .     T
C931   O933    1.220   .     D
H932   C463    1.084   1_556 S
C934   O936    1.220   .     D
C934   H467    1.085   1_556 S
