data_str_m1_o10_o18_pcu_sym.33
_audit_creation_date              2020-01-03
_audit_creation_method            'Materials Studio'
_symmetry_space_group_name_H-M    'P1'
_symmetry_Int_Tables_number       1
_symmetry_cell_setting            triclinic
loop_
_symmetry_equiv_pos_as_xyz
  x,y,z
_cell_length_a                    32.5384
_cell_length_b                    32.5148
_cell_length_c                    35.8327
_cell_angle_alpha                 98.1682
_cell_angle_beta                  72.8928
_cell_angle_gamma                 98.6094
loop_
_atom_site_label
_atom_site_type_symbol
_atom_site_fract_x
_atom_site_fract_y
_atom_site_fract_z
_atom_site_U_iso_or_equiv
_atom_site_adp_type
_atom_site_occupancy
C1     C     0.05250   0.16001   0.25870   0.00000  Uiso   1.00
C2     C     0.20188   0.13536   0.45988   0.00000  Uiso   1.00
C3     C     0.22586   0.11953   0.47953   0.00000  Uiso   1.00
C4     C     0.28107   0.17359   0.24117   0.00000  Uiso   1.00
C5     C     0.21573   0.12548   0.02022   0.00000  Uiso   1.00
C6     C     0.17970   0.14678   0.04218   0.00000  Uiso   1.00
C7     C     0.24169   0.11042   0.03916   0.00000  Uiso   1.00
C8     C     0.23274   0.11671   0.07981   0.00000  Uiso   1.00
C9     C     0.17089   0.15186   0.08344   0.00000  Uiso   1.00
C10    C     0.32711   0.17618   0.23748   0.00000  Uiso   1.00
C11    C     0.00709   0.15775   0.26216   0.00000  Uiso   1.00
C12    C     0.09487   0.21052   0.42059   0.00000  Uiso   1.00
C13    C     0.18090   0.32218   0.23808   0.00000  Uiso   1.00
C14    C     0.15152   0.01209   0.26208   0.00000  Uiso   1.00
C15    C     0.15592   0.05614   0.25888   0.00000  Uiso   1.00
C16    C     0.17686   0.27768   0.24134   0.00000  Uiso   1.00
C17    C     0.18839   0.14520   0.14411   0.00000  Uiso   1.00
C18    C     0.14516   0.18753   0.35614   0.00000  Uiso   1.00
C19    C     0.13252   0.19278   0.39931   0.00000  Uiso   1.00
C20    C     0.19726   0.13721   0.10178   0.00000  Uiso   1.00
C21    C     0.08076   0.21192   0.46153   0.00000  Uiso   1.00
C22    C     0.03942   0.22943   0.48200   0.00000  Uiso   1.00
C23    C     0.15666   0.17681   0.41905   0.00000  Uiso   1.00
C24    C     0.03516   0.27114   0.47909   0.00000  Uiso   1.00
C25    C     0.32930   0.28749   0.49770   0.00000  Uiso   1.00
C26    C     0.29408   0.26232   0.01914   0.00000  Uiso   1.00
C27    C     0.29794   0.22071   0.02191   0.00000  Uiso   1.00
C28    C     0.00367   0.20415   0.00321   0.00000  Uiso   1.00
C29    C     0.14321   0.17653   0.46012   0.00000  Uiso   1.00
C30    C     0.10538   0.19556   0.48163   0.00000  Uiso   1.00
C31    C     0.16681   0.15839   0.48027   0.00000  Uiso   1.00
C32    C     0.15453   0.16279   0.02211   0.00000  Uiso   1.00
C33    C     0.11759   0.18306   0.04242   0.00000  Uiso   1.00
C34    C     0.09357   0.19872   0.02266   0.00000  Uiso   1.00
H35    H     0.06589   0.21417   0.04017   0.00000  Uiso   1.00
H36    H     0.07557   0.22221   0.40523   0.00000  Uiso   1.00
H37    H     0.18638   0.16535   0.40138   0.00000  Uiso   1.00
H38    H     0.10571   0.18711   0.07391   0.00000  Uiso   1.00
H39    H     0.21139   0.12805   0.42850   0.00000  Uiso   1.00
H40    H     0.06222   0.29097   0.46257   0.00000  Uiso   1.00
H41    H     0.32623   0.31969   0.49549   0.00000  Uiso   1.00
H42    H     0.26378   0.27503   0.03356   0.00000  Uiso   1.00
H43    H     0.27063   0.20135   0.03856   0.00000  Uiso   1.00
H44    H     0.00610   0.17173   0.00527   0.00000  Uiso   1.00
H45    H     0.26932   0.09435   0.02246   0.00000  Uiso   1.00
H46    H     0.01694   0.19310   0.21461   0.00000  Uiso   1.00
H47    H     0.31791   0.14092   0.28540   0.00000  Uiso   1.00
H48    H     0.20804   0.00280   0.21599   0.00000  Uiso   1.00
H49    H     0.12400   0.33223   0.28425   0.00000  Uiso   1.00
H50    H     0.14463   0.16804   0.10236   0.00000  Uiso   1.00
H51    H     0.25340   0.10560   0.09413   0.00000  Uiso   1.00
H52    H     0.25277   0.10257   0.46262   0.00000  Uiso   1.00
O53    O     0.16667   0.16667   0.25000   0.00000  Uiso   1.00
O54    O     0.15693   0.12393   0.16625   0.00000  Uiso   1.00
O55    O     0.12687   0.20646   0.33749   0.00000  Uiso   1.00
O56    O     0.21088   0.17493   0.15877   0.00000  Uiso   1.00
O57    O     0.17198   0.16135   0.33749   0.00000  Uiso   1.00
O58    O     0.17849   0.08101   0.27821   0.00000  Uiso   1.00
O59    O     0.14581   0.26136   0.26767   0.00000  Uiso   1.00
O60    O     0.07452   0.13251   0.23607   0.00000  Uiso   1.00
O61    O     0.26785   0.19179   0.21806   0.00000  Uiso   1.00
O62    O     0.06990   0.18960   0.27820   0.00000  Uiso   1.00
O63    O     0.25440   0.15277   0.26768   0.00000  Uiso   1.00
O64    O     0.13800   0.06903   0.23607   0.00000  Uiso   1.00
O65    O     0.20437   0.25527   0.21806   0.00000  Uiso   1.00
Zn66   Zn    0.19244   0.14090   0.28278   0.00000  Uiso   1.00
Zn67   Zn    0.13459   0.12378   0.22258   0.00000  Uiso   1.00
Zn68   Zn    0.21166   0.19664   0.21188   0.00000  Uiso   1.00
Zn69   Zn    0.12798   0.20535   0.28277   0.00000  Uiso   1.00
C70    C     0.38583   0.16001   0.25870   0.00000  Uiso   1.00
C71    C     0.53521   0.13536   0.45988   0.00000  Uiso   1.00
C72    C     0.55919   0.11953   0.47953   0.00000  Uiso   1.00
C73    C     0.61440   0.17359   0.24117   0.00000  Uiso   1.00
C74    C     0.54907   0.12548   0.02022   0.00000  Uiso   1.00
C75    C     0.51303   0.14678   0.04218   0.00000  Uiso   1.00
C76    C     0.57502   0.11042   0.03916   0.00000  Uiso   1.00
C77    C     0.56607   0.11671   0.07981   0.00000  Uiso   1.00
C78    C     0.50422   0.15186   0.08344   0.00000  Uiso   1.00
C79    C     0.66045   0.17618   0.23748   0.00000  Uiso   1.00
C80    C     0.34042   0.15775   0.26216   0.00000  Uiso   1.00
C81    C     0.42820   0.21052   0.42059   0.00000  Uiso   1.00
C82    C     0.51423   0.32218   0.23808   0.00000  Uiso   1.00
C83    C     0.48485   0.01209   0.26208   0.00000  Uiso   1.00
C84    C     0.48925   0.05614   0.25888   0.00000  Uiso   1.00
C85    C     0.51019   0.27768   0.24134   0.00000  Uiso   1.00
C86    C     0.52172   0.14520   0.14411   0.00000  Uiso   1.00
C87    C     0.47849   0.18753   0.35614   0.00000  Uiso   1.00
C88    C     0.46585   0.19278   0.39931   0.00000  Uiso   1.00
C89    C     0.53060   0.13721   0.10178   0.00000  Uiso   1.00
C90    C     0.41410   0.21192   0.46153   0.00000  Uiso   1.00
C91    C     0.37276   0.22943   0.48200   0.00000  Uiso   1.00
C92    C     0.48999   0.17681   0.41905   0.00000  Uiso   1.00
C93    C     0.36850   0.27114   0.47909   0.00000  Uiso   1.00
C94    C     0.66263   0.28749   0.49770   0.00000  Uiso   1.00
C95    C     0.62741   0.26232   0.01914   0.00000  Uiso   1.00
C96    C     0.63127   0.22071   0.02191   0.00000  Uiso   1.00
C97    C     0.33700   0.20415   0.00321   0.00000  Uiso   1.00
C98    C     0.47655   0.17653   0.46012   0.00000  Uiso   1.00
C99    C     0.43872   0.19556   0.48163   0.00000  Uiso   1.00
C100   C     0.50014   0.15839   0.48027   0.00000  Uiso   1.00
C101   C     0.48786   0.16279   0.02211   0.00000  Uiso   1.00
C102   C     0.45093   0.18306   0.04242   0.00000  Uiso   1.00
C103   C     0.42690   0.19872   0.02266   0.00000  Uiso   1.00
H104   H     0.39923   0.21417   0.04017   0.00000  Uiso   1.00
H105   H     0.40890   0.22221   0.40523   0.00000  Uiso   1.00
H106   H     0.51971   0.16535   0.40138   0.00000  Uiso   1.00
H107   H     0.43904   0.18711   0.07391   0.00000  Uiso   1.00
H108   H     0.54472   0.12805   0.42850   0.00000  Uiso   1.00
H109   H     0.39556   0.29097   0.46257   0.00000  Uiso   1.00
H110   H     0.65957   0.31969   0.49549   0.00000  Uiso   1.00
H111   H     0.59712   0.27503   0.03356   0.00000  Uiso   1.00
H112   H     0.60397   0.20135   0.03856   0.00000  Uiso   1.00
H113   H     0.33944   0.17173   0.00527   0.00000  Uiso   1.00
H114   H     0.60266   0.09435   0.02246   0.00000  Uiso   1.00
H115   H     0.35027   0.19310   0.21461   0.00000  Uiso   1.00
H116   H     0.65124   0.14092   0.28540   0.00000  Uiso   1.00
H117   H     0.54137   0.00280   0.21599   0.00000  Uiso   1.00
H118   H     0.45733   0.33223   0.28425   0.00000  Uiso   1.00
H119   H     0.47796   0.16804   0.10236   0.00000  Uiso   1.00
H120   H     0.58673   0.10560   0.09413   0.00000  Uiso   1.00
H121   H     0.58611   0.10257   0.46262   0.00000  Uiso   1.00
O122   O     0.50000   0.16667   0.25000   0.00000  Uiso   1.00
O123   O     0.49027   0.12393   0.16625   0.00000  Uiso   1.00
O124   O     0.46020   0.20646   0.33749   0.00000  Uiso   1.00
O125   O     0.54421   0.17493   0.15877   0.00000  Uiso   1.00
O126   O     0.50532   0.16135   0.33749   0.00000  Uiso   1.00
O127   O     0.51182   0.08101   0.27821   0.00000  Uiso   1.00
O128   O     0.47914   0.26136   0.26767   0.00000  Uiso   1.00
O129   O     0.40785   0.13251   0.23607   0.00000  Uiso   1.00
O130   O     0.60119   0.19179   0.21806   0.00000  Uiso   1.00
O131   O     0.40323   0.18960   0.27820   0.00000  Uiso   1.00
O132   O     0.58773   0.15277   0.26768   0.00000  Uiso   1.00
O133   O     0.47133   0.06903   0.23607   0.00000  Uiso   1.00
O134   O     0.53771   0.25527   0.21806   0.00000  Uiso   1.00
Zn135  Zn    0.52577   0.14090   0.28278   0.00000  Uiso   1.00
Zn136  Zn    0.46792   0.12378   0.22258   0.00000  Uiso   1.00
Zn137  Zn    0.54500   0.19664   0.21188   0.00000  Uiso   1.00
Zn138  Zn    0.46131   0.20535   0.28277   0.00000  Uiso   1.00
C139   C     0.71917   0.16001   0.25870   0.00000  Uiso   1.00
C140   C     0.86854   0.13536   0.45988   0.00000  Uiso   1.00
C141   C     0.89253   0.11953   0.47953   0.00000  Uiso   1.00
C142   C     0.94773   0.17359   0.24117   0.00000  Uiso   1.00
C143   C     0.88240   0.12548   0.02022   0.00000  Uiso   1.00
C144   C     0.84637   0.14678   0.04218   0.00000  Uiso   1.00
C145   C     0.90836   0.11042   0.03916   0.00000  Uiso   1.00
C146   C     0.89941   0.11671   0.07981   0.00000  Uiso   1.00
C147   C     0.83756   0.15186   0.08344   0.00000  Uiso   1.00
C148   C     0.99378   0.17618   0.23748   0.00000  Uiso   1.00
C149   C     0.67375   0.15775   0.26216   0.00000  Uiso   1.00
C150   C     0.76154   0.21052   0.42059   0.00000  Uiso   1.00
C151   C     0.84756   0.32218   0.23808   0.00000  Uiso   1.00
C152   C     0.81818   0.01209   0.26208   0.00000  Uiso   1.00
C153   C     0.82259   0.05614   0.25888   0.00000  Uiso   1.00
C154   C     0.84353   0.27768   0.24134   0.00000  Uiso   1.00
C155   C     0.85505   0.14520   0.14411   0.00000  Uiso   1.00
C156   C     0.81183   0.18753   0.35614   0.00000  Uiso   1.00
C157   C     0.79918   0.19278   0.39931   0.00000  Uiso   1.00
C158   C     0.86393   0.13721   0.10178   0.00000  Uiso   1.00
C159   C     0.74743   0.21192   0.46153   0.00000  Uiso   1.00
C160   C     0.70609   0.22943   0.48200   0.00000  Uiso   1.00
C161   C     0.82332   0.17681   0.41905   0.00000  Uiso   1.00
C162   C     0.70183   0.27114   0.47909   0.00000  Uiso   1.00
C163   C     0.99597   0.28749   0.49770   0.00000  Uiso   1.00
C164   C     0.96075   0.26232   0.01914   0.00000  Uiso   1.00
C165   C     0.96460   0.22071   0.02191   0.00000  Uiso   1.00
C166   C     0.67034   0.20415   0.00321   0.00000  Uiso   1.00
C167   C     0.80988   0.17653   0.46012   0.00000  Uiso   1.00
C168   C     0.77205   0.19556   0.48163   0.00000  Uiso   1.00
C169   C     0.83348   0.15839   0.48027   0.00000  Uiso   1.00
C170   C     0.82120   0.16279   0.02211   0.00000  Uiso   1.00
C171   C     0.78426   0.18306   0.04242   0.00000  Uiso   1.00
C172   C     0.76024   0.19872   0.02266   0.00000  Uiso   1.00
H173   H     0.73256   0.21417   0.04017   0.00000  Uiso   1.00
H174   H     0.74224   0.22221   0.40523   0.00000  Uiso   1.00
H175   H     0.85304   0.16535   0.40138   0.00000  Uiso   1.00
H176   H     0.77238   0.18711   0.07391   0.00000  Uiso   1.00
H177   H     0.87805   0.12805   0.42850   0.00000  Uiso   1.00
H178   H     0.72889   0.29097   0.46257   0.00000  Uiso   1.00
H179   H     0.99290   0.31969   0.49549   0.00000  Uiso   1.00
H180   H     0.93045   0.27503   0.03356   0.00000  Uiso   1.00
H181   H     0.93730   0.20135   0.03856   0.00000  Uiso   1.00
H182   H     0.67277   0.17173   0.00527   0.00000  Uiso   1.00
H183   H     0.93599   0.09435   0.02246   0.00000  Uiso   1.00
H184   H     0.68360   0.19310   0.21461   0.00000  Uiso   1.00
H185   H     0.98457   0.14092   0.28540   0.00000  Uiso   1.00
H186   H     0.87471   0.00280   0.21599   0.00000  Uiso   1.00
H187   H     0.79067   0.33223   0.28425   0.00000  Uiso   1.00
H188   H     0.81129   0.16804   0.10236   0.00000  Uiso   1.00
H189   H     0.92006   0.10560   0.09413   0.00000  Uiso   1.00
H190   H     0.91944   0.10257   0.46262   0.00000  Uiso   1.00
O191   O     0.83333   0.16667   0.25000   0.00000  Uiso   1.00
O192   O     0.82360   0.12393   0.16625   0.00000  Uiso   1.00
O193   O     0.79354   0.20646   0.33749   0.00000  Uiso   1.00
O194   O     0.87755   0.17493   0.15877   0.00000  Uiso   1.00
O195   O     0.83865   0.16135   0.33749   0.00000  Uiso   1.00
O196   O     0.84515   0.08101   0.27821   0.00000  Uiso   1.00
O197   O     0.81247   0.26136   0.26767   0.00000  Uiso   1.00
O198   O     0.74119   0.13251   0.23607   0.00000  Uiso   1.00
O199   O     0.93452   0.19179   0.21806   0.00000  Uiso   1.00
O200   O     0.73656   0.18960   0.27820   0.00000  Uiso   1.00
O201   O     0.92106   0.15277   0.26768   0.00000  Uiso   1.00
O202   O     0.80467   0.06903   0.23607   0.00000  Uiso   1.00
O203   O     0.87104   0.25527   0.21806   0.00000  Uiso   1.00
Zn204  Zn    0.85910   0.14090   0.28278   0.00000  Uiso   1.00
Zn205  Zn    0.80125   0.12378   0.22258   0.00000  Uiso   1.00
Zn206  Zn    0.87833   0.19664   0.21188   0.00000  Uiso   1.00
Zn207  Zn    0.79465   0.20535   0.28277   0.00000  Uiso   1.00
C208   C     0.05250   0.49334   0.25870   0.00000  Uiso   1.00
C209   C     0.20188   0.46869   0.45988   0.00000  Uiso   1.00
C210   C     0.22586   0.45287   0.47953   0.00000  Uiso   1.00
C211   C     0.28107   0.50692   0.24117   0.00000  Uiso   1.00
C212   C     0.21573   0.45881   0.02022   0.00000  Uiso   1.00
C213   C     0.17970   0.48012   0.04218   0.00000  Uiso   1.00
C214   C     0.24169   0.44376   0.03916   0.00000  Uiso   1.00
C215   C     0.23274   0.45004   0.07981   0.00000  Uiso   1.00
C216   C     0.17089   0.48519   0.08344   0.00000  Uiso   1.00
C217   C     0.32711   0.50952   0.23748   0.00000  Uiso   1.00
C218   C     0.00709   0.49109   0.26216   0.00000  Uiso   1.00
C219   C     0.09487   0.54385   0.42059   0.00000  Uiso   1.00
C220   C     0.18090   0.65551   0.23808   0.00000  Uiso   1.00
C221   C     0.15152   0.34542   0.26208   0.00000  Uiso   1.00
C222   C     0.15592   0.38947   0.25888   0.00000  Uiso   1.00
C223   C     0.17686   0.61102   0.24134   0.00000  Uiso   1.00
C224   C     0.18839   0.47853   0.14411   0.00000  Uiso   1.00
C225   C     0.14516   0.52086   0.35614   0.00000  Uiso   1.00
C226   C     0.13252   0.52611   0.39931   0.00000  Uiso   1.00
C227   C     0.19726   0.47054   0.10178   0.00000  Uiso   1.00
C228   C     0.08076   0.54525   0.46153   0.00000  Uiso   1.00
C229   C     0.03942   0.56276   0.48200   0.00000  Uiso   1.00
C230   C     0.15666   0.51015   0.41905   0.00000  Uiso   1.00
C231   C     0.03516   0.60447   0.47909   0.00000  Uiso   1.00
C232   C     0.32930   0.62082   0.49770   0.00000  Uiso   1.00
C233   C     0.29408   0.59565   0.01914   0.00000  Uiso   1.00
C234   C     0.29794   0.55405   0.02191   0.00000  Uiso   1.00
C235   C     0.00367   0.53748   0.00321   0.00000  Uiso   1.00
C236   C     0.14321   0.50987   0.46012   0.00000  Uiso   1.00
C237   C     0.10538   0.52889   0.48163   0.00000  Uiso   1.00
C238   C     0.16681   0.49172   0.48027   0.00000  Uiso   1.00
C239   C     0.15453   0.49612   0.02211   0.00000  Uiso   1.00
C240   C     0.11759   0.51640   0.04242   0.00000  Uiso   1.00
C241   C     0.09357   0.53206   0.02266   0.00000  Uiso   1.00
H242   H     0.06589   0.54750   0.04017   0.00000  Uiso   1.00
H243   H     0.07557   0.55554   0.40523   0.00000  Uiso   1.00
H244   H     0.18638   0.49868   0.40138   0.00000  Uiso   1.00
H245   H     0.10571   0.52044   0.07391   0.00000  Uiso   1.00
H246   H     0.21139   0.46138   0.42850   0.00000  Uiso   1.00
H247   H     0.06222   0.62430   0.46257   0.00000  Uiso   1.00
H248   H     0.32623   0.65302   0.49549   0.00000  Uiso   1.00
H249   H     0.26378   0.60836   0.03356   0.00000  Uiso   1.00
H250   H     0.27063   0.53469   0.03856   0.00000  Uiso   1.00
H251   H     0.00610   0.50506   0.00527   0.00000  Uiso   1.00
H252   H     0.26932   0.42768   0.02246   0.00000  Uiso   1.00
H253   H     0.01694   0.52644   0.21461   0.00000  Uiso   1.00
H254   H     0.31791   0.47425   0.28540   0.00000  Uiso   1.00
H255   H     0.20804   0.33613   0.21599   0.00000  Uiso   1.00
H256   H     0.12400   0.66556   0.28425   0.00000  Uiso   1.00
H257   H     0.14463   0.50137   0.10236   0.00000  Uiso   1.00
H258   H     0.25340   0.43893   0.09413   0.00000  Uiso   1.00
H259   H     0.25277   0.43590   0.46262   0.00000  Uiso   1.00
O260   O     0.16667   0.50000   0.25000   0.00000  Uiso   1.00
O261   O     0.15693   0.45726   0.16625   0.00000  Uiso   1.00
O262   O     0.12687   0.53979   0.33749   0.00000  Uiso   1.00
O263   O     0.21088   0.50826   0.15877   0.00000  Uiso   1.00
O264   O     0.17198   0.49468   0.33749   0.00000  Uiso   1.00
O265   O     0.17849   0.41434   0.27821   0.00000  Uiso   1.00
O266   O     0.14581   0.59469   0.26767   0.00000  Uiso   1.00
O267   O     0.07452   0.46584   0.23607   0.00000  Uiso   1.00
O268   O     0.26785   0.52512   0.21806   0.00000  Uiso   1.00
O269   O     0.06990   0.52293   0.27820   0.00000  Uiso   1.00
O270   O     0.25440   0.48610   0.26768   0.00000  Uiso   1.00
O271   O     0.13800   0.40236   0.23607   0.00000  Uiso   1.00
O272   O     0.20437   0.58860   0.21806   0.00000  Uiso   1.00
Zn273  Zn    0.19244   0.47423   0.28278   0.00000  Uiso   1.00
Zn274  Zn    0.13459   0.45711   0.22258   0.00000  Uiso   1.00
Zn275  Zn    0.21166   0.52997   0.21188   0.00000  Uiso   1.00
Zn276  Zn    0.12798   0.53868   0.28277   0.00000  Uiso   1.00
C277   C     0.38583   0.49334   0.25870   0.00000  Uiso   1.00
C278   C     0.53521   0.46869   0.45988   0.00000  Uiso   1.00
C279   C     0.55919   0.45287   0.47953   0.00000  Uiso   1.00
C280   C     0.61440   0.50692   0.24117   0.00000  Uiso   1.00
C281   C     0.54907   0.45881   0.02022   0.00000  Uiso   1.00
C282   C     0.51303   0.48012   0.04218   0.00000  Uiso   1.00
C283   C     0.57502   0.44376   0.03916   0.00000  Uiso   1.00
C284   C     0.56607   0.45004   0.07981   0.00000  Uiso   1.00
C285   C     0.50422   0.48519   0.08344   0.00000  Uiso   1.00
C286   C     0.66045   0.50952   0.23748   0.00000  Uiso   1.00
C287   C     0.34042   0.49109   0.26216   0.00000  Uiso   1.00
C288   C     0.42820   0.54385   0.42059   0.00000  Uiso   1.00
C289   C     0.51423   0.65551   0.23808   0.00000  Uiso   1.00
C290   C     0.48485   0.34542   0.26208   0.00000  Uiso   1.00
C291   C     0.48925   0.38947   0.25888   0.00000  Uiso   1.00
C292   C     0.51019   0.61102   0.24134   0.00000  Uiso   1.00
C293   C     0.52172   0.47853   0.14411   0.00000  Uiso   1.00
C294   C     0.47849   0.52086   0.35614   0.00000  Uiso   1.00
C295   C     0.46585   0.52611   0.39931   0.00000  Uiso   1.00
C296   C     0.53060   0.47054   0.10178   0.00000  Uiso   1.00
C297   C     0.41410   0.54525   0.46153   0.00000  Uiso   1.00
C298   C     0.37276   0.56276   0.48200   0.00000  Uiso   1.00
C299   C     0.48999   0.51015   0.41905   0.00000  Uiso   1.00
C300   C     0.36850   0.60447   0.47909   0.00000  Uiso   1.00
C301   C     0.66263   0.62082   0.49770   0.00000  Uiso   1.00
C302   C     0.62741   0.59565   0.01914   0.00000  Uiso   1.00
C303   C     0.63127   0.55405   0.02191   0.00000  Uiso   1.00
C304   C     0.33700   0.53748   0.00321   0.00000  Uiso   1.00
C305   C     0.47655   0.50987   0.46012   0.00000  Uiso   1.00
C306   C     0.43872   0.52889   0.48163   0.00000  Uiso   1.00
C307   C     0.50014   0.49172   0.48027   0.00000  Uiso   1.00
C308   C     0.48786   0.49612   0.02211   0.00000  Uiso   1.00
C309   C     0.45093   0.51640   0.04242   0.00000  Uiso   1.00
C310   C     0.42690   0.53206   0.02266   0.00000  Uiso   1.00
H311   H     0.39923   0.54750   0.04017   0.00000  Uiso   1.00
H312   H     0.40890   0.55554   0.40523   0.00000  Uiso   1.00
H313   H     0.51971   0.49868   0.40138   0.00000  Uiso   1.00
H314   H     0.43904   0.52044   0.07391   0.00000  Uiso   1.00
H315   H     0.54472   0.46138   0.42850   0.00000  Uiso   1.00
H316   H     0.39556   0.62430   0.46257   0.00000  Uiso   1.00
H317   H     0.65957   0.65302   0.49549   0.00000  Uiso   1.00
H318   H     0.59712   0.60836   0.03356   0.00000  Uiso   1.00
H319   H     0.60397   0.53469   0.03856   0.00000  Uiso   1.00
H320   H     0.33944   0.50506   0.00527   0.00000  Uiso   1.00
H321   H     0.60266   0.42768   0.02246   0.00000  Uiso   1.00
H322   H     0.35027   0.52644   0.21461   0.00000  Uiso   1.00
H323   H     0.65124   0.47425   0.28540   0.00000  Uiso   1.00
H324   H     0.54137   0.33613   0.21599   0.00000  Uiso   1.00
H325   H     0.45733   0.66556   0.28425   0.00000  Uiso   1.00
H326   H     0.47796   0.50137   0.10236   0.00000  Uiso   1.00
H327   H     0.58673   0.43893   0.09413   0.00000  Uiso   1.00
H328   H     0.58611   0.43590   0.46262   0.00000  Uiso   1.00
O329   O     0.50000   0.50000   0.25000   0.00000  Uiso   1.00
O330   O     0.49027   0.45726   0.16625   0.00000  Uiso   1.00
O331   O     0.46020   0.53979   0.33749   0.00000  Uiso   1.00
O332   O     0.54421   0.50826   0.15877   0.00000  Uiso   1.00
O333   O     0.50532   0.49468   0.33749   0.00000  Uiso   1.00
O334   O     0.51182   0.41434   0.27821   0.00000  Uiso   1.00
O335   O     0.47914   0.59469   0.26767   0.00000  Uiso   1.00
O336   O     0.40785   0.46584   0.23607   0.00000  Uiso   1.00
O337   O     0.60119   0.52512   0.21806   0.00000  Uiso   1.00
O338   O     0.40323   0.52293   0.27820   0.00000  Uiso   1.00
O339   O     0.58773   0.48610   0.26768   0.00000  Uiso   1.00
O340   O     0.47133   0.40236   0.23607   0.00000  Uiso   1.00
O341   O     0.53771   0.58860   0.21806   0.00000  Uiso   1.00
Zn342  Zn    0.52577   0.47423   0.28278   0.00000  Uiso   1.00
Zn343  Zn    0.46792   0.45711   0.22258   0.00000  Uiso   1.00
Zn344  Zn    0.54500   0.52997   0.21188   0.00000  Uiso   1.00
Zn345  Zn    0.46131   0.53868   0.28277   0.00000  Uiso   1.00
C346   C     0.71917   0.49334   0.25870   0.00000  Uiso   1.00
C347   C     0.86854   0.46869   0.45988   0.00000  Uiso   1.00
C348   C     0.89253   0.45287   0.47953   0.00000  Uiso   1.00
C349   C     0.94773   0.50692   0.24117   0.00000  Uiso   1.00
C350   C     0.88240   0.45881   0.02022   0.00000  Uiso   1.00
C351   C     0.84637   0.48012   0.04218   0.00000  Uiso   1.00
C352   C     0.90836   0.44376   0.03916   0.00000  Uiso   1.00
C353   C     0.89941   0.45004   0.07981   0.00000  Uiso   1.00
C354   C     0.83756   0.48519   0.08344   0.00000  Uiso   1.00
C355   C     0.99378   0.50952   0.23748   0.00000  Uiso   1.00
C356   C     0.67375   0.49109   0.26216   0.00000  Uiso   1.00
C357   C     0.76154   0.54385   0.42059   0.00000  Uiso   1.00
C358   C     0.84756   0.65551   0.23808   0.00000  Uiso   1.00
C359   C     0.81818   0.34542   0.26208   0.00000  Uiso   1.00
C360   C     0.82259   0.38947   0.25888   0.00000  Uiso   1.00
C361   C     0.84353   0.61102   0.24134   0.00000  Uiso   1.00
C362   C     0.85505   0.47853   0.14411   0.00000  Uiso   1.00
C363   C     0.81183   0.52086   0.35614   0.00000  Uiso   1.00
C364   C     0.79918   0.52611   0.39931   0.00000  Uiso   1.00
C365   C     0.86393   0.47054   0.10178   0.00000  Uiso   1.00
C366   C     0.74743   0.54525   0.46153   0.00000  Uiso   1.00
C367   C     0.70609   0.56276   0.48200   0.00000  Uiso   1.00
C368   C     0.82332   0.51015   0.41905   0.00000  Uiso   1.00
C369   C     0.70183   0.60447   0.47909   0.00000  Uiso   1.00
C370   C     0.99597   0.62082   0.49770   0.00000  Uiso   1.00
C371   C     0.96075   0.59565   0.01914   0.00000  Uiso   1.00
C372   C     0.96460   0.55405   0.02191   0.00000  Uiso   1.00
C373   C     0.67034   0.53748   0.00321   0.00000  Uiso   1.00
C374   C     0.80988   0.50987   0.46012   0.00000  Uiso   1.00
C375   C     0.77205   0.52889   0.48163   0.00000  Uiso   1.00
C376   C     0.83348   0.49172   0.48027   0.00000  Uiso   1.00
C377   C     0.82120   0.49612   0.02211   0.00000  Uiso   1.00
C378   C     0.78426   0.51640   0.04242   0.00000  Uiso   1.00
C379   C     0.76024   0.53206   0.02266   0.00000  Uiso   1.00
H380   H     0.73256   0.54750   0.04017   0.00000  Uiso   1.00
H381   H     0.74224   0.55554   0.40523   0.00000  Uiso   1.00
H382   H     0.85304   0.49868   0.40138   0.00000  Uiso   1.00
H383   H     0.77238   0.52044   0.07391   0.00000  Uiso   1.00
H384   H     0.87805   0.46138   0.42850   0.00000  Uiso   1.00
H385   H     0.72889   0.62430   0.46257   0.00000  Uiso   1.00
H386   H     0.99290   0.65302   0.49549   0.00000  Uiso   1.00
H387   H     0.93045   0.60836   0.03356   0.00000  Uiso   1.00
H388   H     0.93730   0.53469   0.03856   0.00000  Uiso   1.00
H389   H     0.67277   0.50506   0.00527   0.00000  Uiso   1.00
H390   H     0.93599   0.42768   0.02246   0.00000  Uiso   1.00
H391   H     0.68360   0.52644   0.21461   0.00000  Uiso   1.00
H392   H     0.98457   0.47425   0.28540   0.00000  Uiso   1.00
H393   H     0.87471   0.33613   0.21599   0.00000  Uiso   1.00
H394   H     0.79067   0.66556   0.28425   0.00000  Uiso   1.00
H395   H     0.81129   0.50137   0.10236   0.00000  Uiso   1.00
H396   H     0.92006   0.43893   0.09413   0.00000  Uiso   1.00
H397   H     0.91944   0.43590   0.46262   0.00000  Uiso   1.00
O398   O     0.83333   0.50000   0.25000   0.00000  Uiso   1.00
O399   O     0.82360   0.45726   0.16625   0.00000  Uiso   1.00
O400   O     0.79354   0.53979   0.33749   0.00000  Uiso   1.00
O401   O     0.87755   0.50826   0.15877   0.00000  Uiso   1.00
O402   O     0.83865   0.49468   0.33749   0.00000  Uiso   1.00
O403   O     0.84515   0.41434   0.27821   0.00000  Uiso   1.00
O404   O     0.81247   0.59469   0.26767   0.00000  Uiso   1.00
O405   O     0.74119   0.46584   0.23607   0.00000  Uiso   1.00
O406   O     0.93452   0.52512   0.21806   0.00000  Uiso   1.00
O407   O     0.73656   0.52293   0.27820   0.00000  Uiso   1.00
O408   O     0.92106   0.48610   0.26768   0.00000  Uiso   1.00
O409   O     0.80467   0.40236   0.23607   0.00000  Uiso   1.00
O410   O     0.87104   0.58860   0.21806   0.00000  Uiso   1.00
Zn411  Zn    0.85910   0.47423   0.28278   0.00000  Uiso   1.00
Zn412  Zn    0.80125   0.45711   0.22258   0.00000  Uiso   1.00
Zn413  Zn    0.87833   0.52997   0.21188   0.00000  Uiso   1.00
Zn414  Zn    0.79465   0.53868   0.28277   0.00000  Uiso   1.00
C415   C     0.05250   0.82667   0.25870   0.00000  Uiso   1.00
C416   C     0.20188   0.80203   0.45988   0.00000  Uiso   1.00
C417   C     0.22586   0.78620   0.47953   0.00000  Uiso   1.00
C418   C     0.28107   0.84025   0.24117   0.00000  Uiso   1.00
C419   C     0.21573   0.79214   0.02022   0.00000  Uiso   1.00
C420   C     0.17970   0.81345   0.04218   0.00000  Uiso   1.00
C421   C     0.24169   0.77709   0.03916   0.00000  Uiso   1.00
C422   C     0.23274   0.78337   0.07981   0.00000  Uiso   1.00
C423   C     0.17089   0.81852   0.08344   0.00000  Uiso   1.00
C424   C     0.32711   0.84285   0.23748   0.00000  Uiso   1.00
C425   C     0.00709   0.82442   0.26216   0.00000  Uiso   1.00
C426   C     0.09487   0.87718   0.42059   0.00000  Uiso   1.00
C427   C     0.18090   0.98884   0.23808   0.00000  Uiso   1.00
C428   C     0.15152   0.67876   0.26208   0.00000  Uiso   1.00
C429   C     0.15592   0.72280   0.25888   0.00000  Uiso   1.00
C430   C     0.17686   0.94435   0.24134   0.00000  Uiso   1.00
C431   C     0.18839   0.81187   0.14411   0.00000  Uiso   1.00
C432   C     0.14516   0.85420   0.35614   0.00000  Uiso   1.00
C433   C     0.13252   0.85945   0.39931   0.00000  Uiso   1.00
C434   C     0.19726   0.80387   0.10178   0.00000  Uiso   1.00
C435   C     0.08076   0.87858   0.46153   0.00000  Uiso   1.00
C436   C     0.03942   0.89610   0.48200   0.00000  Uiso   1.00
C437   C     0.15666   0.84348   0.41905   0.00000  Uiso   1.00
C438   C     0.03516   0.93780   0.47909   0.00000  Uiso   1.00
C439   C     0.32930   0.95416   0.49770   0.00000  Uiso   1.00
C440   C     0.29408   0.92898   0.01914   0.00000  Uiso   1.00
C441   C     0.29794   0.88738   0.02191   0.00000  Uiso   1.00
C442   C     0.00367   0.87082   0.00321   0.00000  Uiso   1.00
C443   C     0.14321   0.84320   0.46012   0.00000  Uiso   1.00
C444   C     0.10538   0.86223   0.48163   0.00000  Uiso   1.00
C445   C     0.16681   0.82506   0.48027   0.00000  Uiso   1.00
C446   C     0.15453   0.82946   0.02211   0.00000  Uiso   1.00
C447   C     0.11759   0.84973   0.04242   0.00000  Uiso   1.00
C448   C     0.09357   0.86539   0.02266   0.00000  Uiso   1.00
H449   H     0.06589   0.88084   0.04017   0.00000  Uiso   1.00
H450   H     0.07557   0.88887   0.40523   0.00000  Uiso   1.00
H451   H     0.18638   0.83202   0.40138   0.00000  Uiso   1.00
H452   H     0.10571   0.85378   0.07391   0.00000  Uiso   1.00
H453   H     0.21139   0.79472   0.42850   0.00000  Uiso   1.00
H454   H     0.06222   0.95763   0.46257   0.00000  Uiso   1.00
H455   H     0.32623   0.98635   0.49549   0.00000  Uiso   1.00
H456   H     0.26378   0.94170   0.03356   0.00000  Uiso   1.00
H457   H     0.27063   0.86802   0.03856   0.00000  Uiso   1.00
H458   H     0.00610   0.83840   0.00527   0.00000  Uiso   1.00
H459   H     0.26932   0.76102   0.02246   0.00000  Uiso   1.00
H460   H     0.01694   0.85977   0.21461   0.00000  Uiso   1.00
H461   H     0.31791   0.80759   0.28540   0.00000  Uiso   1.00
H462   H     0.20804   0.66947   0.21599   0.00000  Uiso   1.00
H463   H     0.12400   0.99890   0.28425   0.00000  Uiso   1.00
H464   H     0.14463   0.83470   0.10236   0.00000  Uiso   1.00
H465   H     0.25340   0.77226   0.09413   0.00000  Uiso   1.00
H466   H     0.25277   0.76923   0.46262   0.00000  Uiso   1.00
O467   O     0.16667   0.83333   0.25000   0.00000  Uiso   1.00
O468   O     0.15693   0.79060   0.16625   0.00000  Uiso   1.00
O469   O     0.12687   0.87313   0.33749   0.00000  Uiso   1.00
O470   O     0.21088   0.84159   0.15877   0.00000  Uiso   1.00
O471   O     0.17198   0.82802   0.33749   0.00000  Uiso   1.00
O472   O     0.17849   0.74768   0.27821   0.00000  Uiso   1.00
O473   O     0.14581   0.92803   0.26767   0.00000  Uiso   1.00
O474   O     0.07452   0.79917   0.23607   0.00000  Uiso   1.00
O475   O     0.26785   0.85845   0.21806   0.00000  Uiso   1.00
O476   O     0.06990   0.85627   0.27820   0.00000  Uiso   1.00
O477   O     0.25440   0.81944   0.26768   0.00000  Uiso   1.00
O478   O     0.13800   0.73570   0.23607   0.00000  Uiso   1.00
O479   O     0.20437   0.92193   0.21806   0.00000  Uiso   1.00
Zn480  Zn    0.19244   0.80756   0.28278   0.00000  Uiso   1.00
Zn481  Zn    0.13459   0.79044   0.22258   0.00000  Uiso   1.00
Zn482  Zn    0.21166   0.86331   0.21188   0.00000  Uiso   1.00
Zn483  Zn    0.12798   0.87202   0.28277   0.00000  Uiso   1.00
C484   C     0.38583   0.82667   0.25870   0.00000  Uiso   1.00
C485   C     0.53521   0.80203   0.45988   0.00000  Uiso   1.00
C486   C     0.55919   0.78620   0.47953   0.00000  Uiso   1.00
C487   C     0.61440   0.84025   0.24117   0.00000  Uiso   1.00
C488   C     0.54907   0.79214   0.02022   0.00000  Uiso   1.00
C489   C     0.51303   0.81345   0.04218   0.00000  Uiso   1.00
C490   C     0.57502   0.77709   0.03916   0.00000  Uiso   1.00
C491   C     0.56607   0.78337   0.07981   0.00000  Uiso   1.00
C492   C     0.50422   0.81852   0.08344   0.00000  Uiso   1.00
C493   C     0.66045   0.84285   0.23748   0.00000  Uiso   1.00
C494   C     0.34042   0.82442   0.26216   0.00000  Uiso   1.00
C495   C     0.42820   0.87718   0.42059   0.00000  Uiso   1.00
C496   C     0.51423   0.98884   0.23808   0.00000  Uiso   1.00
C497   C     0.48485   0.67876   0.26208   0.00000  Uiso   1.00
C498   C     0.48925   0.72280   0.25888   0.00000  Uiso   1.00
C499   C     0.51019   0.94435   0.24134   0.00000  Uiso   1.00
C500   C     0.52172   0.81187   0.14411   0.00000  Uiso   1.00
C501   C     0.47849   0.85420   0.35614   0.00000  Uiso   1.00
C502   C     0.46585   0.85945   0.39931   0.00000  Uiso   1.00
C503   C     0.53060   0.80387   0.10178   0.00000  Uiso   1.00
C504   C     0.41410   0.87858   0.46153   0.00000  Uiso   1.00
C505   C     0.37276   0.89610   0.48200   0.00000  Uiso   1.00
C506   C     0.48999   0.84348   0.41905   0.00000  Uiso   1.00
C507   C     0.36850   0.93780   0.47909   0.00000  Uiso   1.00
C508   C     0.66263   0.95416   0.49770   0.00000  Uiso   1.00
C509   C     0.62741   0.92898   0.01914   0.00000  Uiso   1.00
C510   C     0.63127   0.88738   0.02191   0.00000  Uiso   1.00
C511   C     0.33700   0.87082   0.00321   0.00000  Uiso   1.00
C512   C     0.47655   0.84320   0.46012   0.00000  Uiso   1.00
C513   C     0.43872   0.86223   0.48163   0.00000  Uiso   1.00
C514   C     0.50014   0.82506   0.48027   0.00000  Uiso   1.00
C515   C     0.48786   0.82946   0.02211   0.00000  Uiso   1.00
C516   C     0.45093   0.84973   0.04242   0.00000  Uiso   1.00
C517   C     0.42690   0.86539   0.02266   0.00000  Uiso   1.00
H518   H     0.39923   0.88084   0.04017   0.00000  Uiso   1.00
H519   H     0.40890   0.88887   0.40523   0.00000  Uiso   1.00
H520   H     0.51971   0.83202   0.40138   0.00000  Uiso   1.00
H521   H     0.43904   0.85378   0.07391   0.00000  Uiso   1.00
H522   H     0.54472   0.79472   0.42850   0.00000  Uiso   1.00
H523   H     0.39556   0.95763   0.46257   0.00000  Uiso   1.00
H524   H     0.65957   0.98635   0.49549   0.00000  Uiso   1.00
H525   H     0.59712   0.94170   0.03356   0.00000  Uiso   1.00
H526   H     0.60397   0.86802   0.03856   0.00000  Uiso   1.00
H527   H     0.33944   0.83840   0.00527   0.00000  Uiso   1.00
H528   H     0.60266   0.76102   0.02246   0.00000  Uiso   1.00
H529   H     0.35027   0.85977   0.21461   0.00000  Uiso   1.00
H530   H     0.65124   0.80759   0.28540   0.00000  Uiso   1.00
H531   H     0.54137   0.66947   0.21599   0.00000  Uiso   1.00
H532   H     0.45733   0.99890   0.28425   0.00000  Uiso   1.00
H533   H     0.47796   0.83470   0.10236   0.00000  Uiso   1.00
H534   H     0.58673   0.77226   0.09413   0.00000  Uiso   1.00
H535   H     0.58611   0.76923   0.46262   0.00000  Uiso   1.00
O536   O     0.50000   0.83333   0.25000   0.00000  Uiso   1.00
O537   O     0.49027   0.79060   0.16625   0.00000  Uiso   1.00
O538   O     0.46020   0.87313   0.33749   0.00000  Uiso   1.00
O539   O     0.54421   0.84159   0.15877   0.00000  Uiso   1.00
O540   O     0.50532   0.82802   0.33749   0.00000  Uiso   1.00
O541   O     0.51182   0.74768   0.27821   0.00000  Uiso   1.00
O542   O     0.47914   0.92803   0.26767   0.00000  Uiso   1.00
O543   O     0.40785   0.79917   0.23607   0.00000  Uiso   1.00
O544   O     0.60119   0.85845   0.21806   0.00000  Uiso   1.00
O545   O     0.40323   0.85627   0.27820   0.00000  Uiso   1.00
O546   O     0.58773   0.81944   0.26768   0.00000  Uiso   1.00
O547   O     0.47133   0.73570   0.23607   0.00000  Uiso   1.00
O548   O     0.53771   0.92193   0.21806   0.00000  Uiso   1.00
Zn549  Zn    0.52577   0.80756   0.28278   0.00000  Uiso   1.00
Zn550  Zn    0.46792   0.79044   0.22258   0.00000  Uiso   1.00
Zn551  Zn    0.54500   0.86331   0.21188   0.00000  Uiso   1.00
Zn552  Zn    0.46131   0.87202   0.28277   0.00000  Uiso   1.00
C553   C     0.71917   0.82667   0.25870   0.00000  Uiso   1.00
C554   C     0.86854   0.80203   0.45988   0.00000  Uiso   1.00
C555   C     0.89253   0.78620   0.47953   0.00000  Uiso   1.00
C556   C     0.94773   0.84025   0.24117   0.00000  Uiso   1.00
C557   C     0.88240   0.79214   0.02022   0.00000  Uiso   1.00
C558   C     0.84637   0.81345   0.04218   0.00000  Uiso   1.00
C559   C     0.90836   0.77709   0.03916   0.00000  Uiso   1.00
C560   C     0.89941   0.78337   0.07981   0.00000  Uiso   1.00
C561   C     0.83756   0.81852   0.08344   0.00000  Uiso   1.00
C562   C     0.99378   0.84285   0.23748   0.00000  Uiso   1.00
C563   C     0.67375   0.82442   0.26216   0.00000  Uiso   1.00
C564   C     0.76154   0.87718   0.42059   0.00000  Uiso   1.00
C565   C     0.84756   0.98884   0.23808   0.00000  Uiso   1.00
C566   C     0.81818   0.67876   0.26208   0.00000  Uiso   1.00
C567   C     0.82259   0.72280   0.25888   0.00000  Uiso   1.00
C568   C     0.84353   0.94435   0.24134   0.00000  Uiso   1.00
C569   C     0.85505   0.81187   0.14411   0.00000  Uiso   1.00
C570   C     0.81183   0.85420   0.35614   0.00000  Uiso   1.00
C571   C     0.79918   0.85945   0.39931   0.00000  Uiso   1.00
C572   C     0.86393   0.80387   0.10178   0.00000  Uiso   1.00
C573   C     0.74743   0.87858   0.46153   0.00000  Uiso   1.00
C574   C     0.70609   0.89610   0.48200   0.00000  Uiso   1.00
C575   C     0.82332   0.84348   0.41905   0.00000  Uiso   1.00
C576   C     0.70183   0.93780   0.47909   0.00000  Uiso   1.00
C577   C     0.99597   0.95416   0.49770   0.00000  Uiso   1.00
C578   C     0.96075   0.92898   0.01914   0.00000  Uiso   1.00
C579   C     0.96460   0.88738   0.02191   0.00000  Uiso   1.00
C580   C     0.67034   0.87082   0.00321   0.00000  Uiso   1.00
C581   C     0.80988   0.84320   0.46012   0.00000  Uiso   1.00
C582   C     0.77205   0.86223   0.48163   0.00000  Uiso   1.00
C583   C     0.83348   0.82506   0.48027   0.00000  Uiso   1.00
C584   C     0.82120   0.82946   0.02211   0.00000  Uiso   1.00
C585   C     0.78426   0.84973   0.04242   0.00000  Uiso   1.00
C586   C     0.76024   0.86539   0.02266   0.00000  Uiso   1.00
H587   H     0.73256   0.88084   0.04017   0.00000  Uiso   1.00
H588   H     0.74224   0.88887   0.40523   0.00000  Uiso   1.00
H589   H     0.85304   0.83202   0.40138   0.00000  Uiso   1.00
H590   H     0.77238   0.85378   0.07391   0.00000  Uiso   1.00
H591   H     0.87805   0.79472   0.42850   0.00000  Uiso   1.00
H592   H     0.72889   0.95763   0.46257   0.00000  Uiso   1.00
H593   H     0.99290   0.98635   0.49549   0.00000  Uiso   1.00
H594   H     0.93045   0.94170   0.03356   0.00000  Uiso   1.00
H595   H     0.93730   0.86802   0.03856   0.00000  Uiso   1.00
H596   H     0.67277   0.83840   0.00527   0.00000  Uiso   1.00
H597   H     0.93599   0.76102   0.02246   0.00000  Uiso   1.00
H598   H     0.68360   0.85977   0.21461   0.00000  Uiso   1.00
H599   H     0.98457   0.80759   0.28540   0.00000  Uiso   1.00
H600   H     0.87471   0.66947   0.21599   0.00000  Uiso   1.00
H601   H     0.79067   0.99890   0.28425   0.00000  Uiso   1.00
H602   H     0.81129   0.83470   0.10236   0.00000  Uiso   1.00
H603   H     0.92006   0.77226   0.09413   0.00000  Uiso   1.00
H604   H     0.91944   0.76923   0.46262   0.00000  Uiso   1.00
O605   O     0.83333   0.83333   0.25000   0.00000  Uiso   1.00
O606   O     0.82360   0.79060   0.16625   0.00000  Uiso   1.00
O607   O     0.79354   0.87313   0.33749   0.00000  Uiso   1.00
O608   O     0.87755   0.84159   0.15877   0.00000  Uiso   1.00
O609   O     0.83865   0.82802   0.33749   0.00000  Uiso   1.00
O610   O     0.84515   0.74768   0.27821   0.00000  Uiso   1.00
O611   O     0.81247   0.92803   0.26767   0.00000  Uiso   1.00
O612   O     0.74119   0.79917   0.23607   0.00000  Uiso   1.00
O613   O     0.93452   0.85845   0.21806   0.00000  Uiso   1.00
O614   O     0.73656   0.85627   0.27820   0.00000  Uiso   1.00
O615   O     0.92106   0.81944   0.26768   0.00000  Uiso   1.00
O616   O     0.80467   0.73570   0.23607   0.00000  Uiso   1.00
O617   O     0.87104   0.92193   0.21806   0.00000  Uiso   1.00
Zn618  Zn    0.85910   0.80756   0.28278   0.00000  Uiso   1.00
Zn619  Zn    0.80125   0.79044   0.22258   0.00000  Uiso   1.00
Zn620  Zn    0.87833   0.86331   0.21188   0.00000  Uiso   1.00
Zn621  Zn    0.79465   0.87202   0.28277   0.00000  Uiso   1.00
C622   C     0.05250   0.16001   0.75870   0.00000  Uiso   1.00
C623   C     0.20188   0.13536   0.95988   0.00000  Uiso   1.00
C624   C     0.22586   0.11953   0.97953   0.00000  Uiso   1.00
C625   C     0.28107   0.17359   0.74117   0.00000  Uiso   1.00
C626   C     0.21573   0.12548   0.52022   0.00000  Uiso   1.00
C627   C     0.17970   0.14678   0.54218   0.00000  Uiso   1.00
C628   C     0.24169   0.11042   0.53916   0.00000  Uiso   1.00
C629   C     0.23274   0.11671   0.57981   0.00000  Uiso   1.00
C630   C     0.17089   0.15186   0.58344   0.00000  Uiso   1.00
C631   C     0.32711   0.17618   0.73748   0.00000  Uiso   1.00
C632   C     0.00709   0.15775   0.76216   0.00000  Uiso   1.00
C633   C     0.09487   0.21052   0.92059   0.00000  Uiso   1.00
C634   C     0.18090   0.32218   0.73808   0.00000  Uiso   1.00
C635   C     0.15152   0.01209   0.76208   0.00000  Uiso   1.00
C636   C     0.15592   0.05614   0.75888   0.00000  Uiso   1.00
C637   C     0.17686   0.27768   0.74134   0.00000  Uiso   1.00
C638   C     0.18839   0.14520   0.64411   0.00000  Uiso   1.00
C639   C     0.14516   0.18753   0.85614   0.00000  Uiso   1.00
C640   C     0.13252   0.19278   0.89931   0.00000  Uiso   1.00
C641   C     0.19726   0.13721   0.60178   0.00000  Uiso   1.00
C642   C     0.08076   0.21192   0.96153   0.00000  Uiso   1.00
C643   C     0.03942   0.22943   0.98200   0.00000  Uiso   1.00
C644   C     0.15666   0.17681   0.91905   0.00000  Uiso   1.00
C645   C     0.03516   0.27114   0.97909   0.00000  Uiso   1.00
C646   C     0.32930   0.28749   0.99770   0.00000  Uiso   1.00
C647   C     0.29408   0.26232   0.51914   0.00000  Uiso   1.00
C648   C     0.29794   0.22071   0.52191   0.00000  Uiso   1.00
C649   C     0.00367   0.20415   0.50321   0.00000  Uiso   1.00
C650   C     0.14321   0.17653   0.96012   0.00000  Uiso   1.00
C651   C     0.10538   0.19556   0.98163   0.00000  Uiso   1.00
C652   C     0.16681   0.15839   0.98027   0.00000  Uiso   1.00
C653   C     0.15453   0.16279   0.52211   0.00000  Uiso   1.00
C654   C     0.11759   0.18306   0.54242   0.00000  Uiso   1.00
C655   C     0.09357   0.19872   0.52266   0.00000  Uiso   1.00
H656   H     0.06589   0.21417   0.54017   0.00000  Uiso   1.00
H657   H     0.07557   0.22221   0.90523   0.00000  Uiso   1.00
H658   H     0.18638   0.16535   0.90138   0.00000  Uiso   1.00
H659   H     0.10571   0.18711   0.57391   0.00000  Uiso   1.00
H660   H     0.21139   0.12805   0.92850   0.00000  Uiso   1.00
H661   H     0.06222   0.29097   0.96257   0.00000  Uiso   1.00
H662   H     0.32623   0.31969   0.99549   0.00000  Uiso   1.00
H663   H     0.26378   0.27503   0.53356   0.00000  Uiso   1.00
H664   H     0.27063   0.20135   0.53856   0.00000  Uiso   1.00
H665   H     0.00610   0.17173   0.50527   0.00000  Uiso   1.00
H666   H     0.26932   0.09435   0.52246   0.00000  Uiso   1.00
H667   H     0.01694   0.19310   0.71461   0.00000  Uiso   1.00
H668   H     0.31791   0.14092   0.78540   0.00000  Uiso   1.00
H669   H     0.20804   0.00280   0.71599   0.00000  Uiso   1.00
H670   H     0.12400   0.33223   0.78425   0.00000  Uiso   1.00
H671   H     0.14463   0.16804   0.60236   0.00000  Uiso   1.00
H672   H     0.25340   0.10560   0.59413   0.00000  Uiso   1.00
H673   H     0.25277   0.10257   0.96262   0.00000  Uiso   1.00
O674   O     0.16667   0.16667   0.75000   0.00000  Uiso   1.00
O675   O     0.15693   0.12393   0.66625   0.00000  Uiso   1.00
O676   O     0.12687   0.20646   0.83749   0.00000  Uiso   1.00
O677   O     0.21088   0.17493   0.65877   0.00000  Uiso   1.00
O678   O     0.17198   0.16135   0.83749   0.00000  Uiso   1.00
O679   O     0.17849   0.08101   0.77821   0.00000  Uiso   1.00
O680   O     0.14581   0.26136   0.76767   0.00000  Uiso   1.00
O681   O     0.07452   0.13251   0.73607   0.00000  Uiso   1.00
O682   O     0.26785   0.19179   0.71806   0.00000  Uiso   1.00
O683   O     0.06990   0.18960   0.77820   0.00000  Uiso   1.00
O684   O     0.25440   0.15277   0.76768   0.00000  Uiso   1.00
O685   O     0.13800   0.06903   0.73607   0.00000  Uiso   1.00
O686   O     0.20437   0.25527   0.71806   0.00000  Uiso   1.00
Zn687  Zn    0.19244   0.14090   0.78278   0.00000  Uiso   1.00
Zn688  Zn    0.13459   0.12378   0.72258   0.00000  Uiso   1.00
Zn689  Zn    0.21166   0.19664   0.71188   0.00000  Uiso   1.00
Zn690  Zn    0.12798   0.20535   0.78277   0.00000  Uiso   1.00
C691   C     0.38583   0.16001   0.75870   0.00000  Uiso   1.00
C692   C     0.53521   0.13536   0.95988   0.00000  Uiso   1.00
C693   C     0.55919   0.11953   0.97953   0.00000  Uiso   1.00
C694   C     0.61440   0.17359   0.74117   0.00000  Uiso   1.00
C695   C     0.54907   0.12548   0.52022   0.00000  Uiso   1.00
C696   C     0.51303   0.14678   0.54218   0.00000  Uiso   1.00
C697   C     0.57502   0.11042   0.53916   0.00000  Uiso   1.00
C698   C     0.56607   0.11671   0.57981   0.00000  Uiso   1.00
C699   C     0.50422   0.15186   0.58344   0.00000  Uiso   1.00
C700   C     0.66045   0.17618   0.73748   0.00000  Uiso   1.00
C701   C     0.34042   0.15775   0.76216   0.00000  Uiso   1.00
C702   C     0.42820   0.21052   0.92059   0.00000  Uiso   1.00
C703   C     0.51423   0.32218   0.73808   0.00000  Uiso   1.00
C704   C     0.48485   0.01209   0.76208   0.00000  Uiso   1.00
C705   C     0.48925   0.05614   0.75888   0.00000  Uiso   1.00
C706   C     0.51019   0.27768   0.74134   0.00000  Uiso   1.00
C707   C     0.52172   0.14520   0.64411   0.00000  Uiso   1.00
C708   C     0.47849   0.18753   0.85614   0.00000  Uiso   1.00
C709   C     0.46585   0.19278   0.89931   0.00000  Uiso   1.00
C710   C     0.53060   0.13721   0.60178   0.00000  Uiso   1.00
C711   C     0.41410   0.21192   0.96153   0.00000  Uiso   1.00
C712   C     0.37276   0.22943   0.98200   0.00000  Uiso   1.00
C713   C     0.48999   0.17681   0.91905   0.00000  Uiso   1.00
C714   C     0.36850   0.27114   0.97909   0.00000  Uiso   1.00
C715   C     0.66263   0.28749   0.99770   0.00000  Uiso   1.00
C716   C     0.62741   0.26232   0.51914   0.00000  Uiso   1.00
C717   C     0.63127   0.22071   0.52191   0.00000  Uiso   1.00
C718   C     0.33700   0.20415   0.50321   0.00000  Uiso   1.00
C719   C     0.47655   0.17653   0.96012   0.00000  Uiso   1.00
C720   C     0.43872   0.19556   0.98163   0.00000  Uiso   1.00
C721   C     0.50014   0.15839   0.98027   0.00000  Uiso   1.00
C722   C     0.48786   0.16279   0.52211   0.00000  Uiso   1.00
C723   C     0.45093   0.18306   0.54242   0.00000  Uiso   1.00
C724   C     0.42690   0.19872   0.52266   0.00000  Uiso   1.00
H725   H     0.39923   0.21417   0.54017   0.00000  Uiso   1.00
H726   H     0.40890   0.22221   0.90523   0.00000  Uiso   1.00
H727   H     0.51971   0.16535   0.90138   0.00000  Uiso   1.00
H728   H     0.43904   0.18711   0.57391   0.00000  Uiso   1.00
H729   H     0.54472   0.12805   0.92850   0.00000  Uiso   1.00
H730   H     0.39556   0.29097   0.96257   0.00000  Uiso   1.00
H731   H     0.65957   0.31969   0.99549   0.00000  Uiso   1.00
H732   H     0.59712   0.27503   0.53356   0.00000  Uiso   1.00
H733   H     0.60397   0.20135   0.53856   0.00000  Uiso   1.00
H734   H     0.33944   0.17173   0.50527   0.00000  Uiso   1.00
H735   H     0.60266   0.09435   0.52246   0.00000  Uiso   1.00
H736   H     0.35027   0.19310   0.71461   0.00000  Uiso   1.00
H737   H     0.65124   0.14092   0.78540   0.00000  Uiso   1.00
H738   H     0.54137   0.00280   0.71599   0.00000  Uiso   1.00
H739   H     0.45733   0.33223   0.78425   0.00000  Uiso   1.00
H740   H     0.47796   0.16804   0.60236   0.00000  Uiso   1.00
H741   H     0.58673   0.10560   0.59413   0.00000  Uiso   1.00
H742   H     0.58611   0.10257   0.96262   0.00000  Uiso   1.00
O743   O     0.50000   0.16667   0.75000   0.00000  Uiso   1.00
O744   O     0.49027   0.12393   0.66625   0.00000  Uiso   1.00
O745   O     0.46020   0.20646   0.83749   0.00000  Uiso   1.00
O746   O     0.54421   0.17493   0.65877   0.00000  Uiso   1.00
O747   O     0.50532   0.16135   0.83749   0.00000  Uiso   1.00
O748   O     0.51182   0.08101   0.77821   0.00000  Uiso   1.00
O749   O     0.47914   0.26136   0.76767   0.00000  Uiso   1.00
O750   O     0.40785   0.13251   0.73607   0.00000  Uiso   1.00
O751   O     0.60119   0.19179   0.71806   0.00000  Uiso   1.00
O752   O     0.40323   0.18960   0.77820   0.00000  Uiso   1.00
O753   O     0.58773   0.15277   0.76768   0.00000  Uiso   1.00
O754   O     0.47133   0.06903   0.73607   0.00000  Uiso   1.00
O755   O     0.53771   0.25527   0.71806   0.00000  Uiso   1.00
Zn756  Zn    0.52577   0.14090   0.78278   0.00000  Uiso   1.00
Zn757  Zn    0.46792   0.12378   0.72258   0.00000  Uiso   1.00
Zn758  Zn    0.54500   0.19664   0.71188   0.00000  Uiso   1.00
Zn759  Zn    0.46131   0.20535   0.78277   0.00000  Uiso   1.00
C760   C     0.71917   0.16001   0.75870   0.00000  Uiso   1.00
C761   C     0.86854   0.13536   0.95988   0.00000  Uiso   1.00
C762   C     0.89253   0.11953   0.97953   0.00000  Uiso   1.00
C763   C     0.94773   0.17359   0.74117   0.00000  Uiso   1.00
C764   C     0.88240   0.12548   0.52022   0.00000  Uiso   1.00
C765   C     0.84637   0.14678   0.54218   0.00000  Uiso   1.00
C766   C     0.90836   0.11042   0.53916   0.00000  Uiso   1.00
C767   C     0.89941   0.11671   0.57981   0.00000  Uiso   1.00
C768   C     0.83756   0.15186   0.58344   0.00000  Uiso   1.00
C769   C     0.99378   0.17618   0.73748   0.00000  Uiso   1.00
C770   C     0.67375   0.15775   0.76216   0.00000  Uiso   1.00
C771   C     0.76154   0.21052   0.92059   0.00000  Uiso   1.00
C772   C     0.84756   0.32218   0.73808   0.00000  Uiso   1.00
C773   C     0.81818   0.01209   0.76208   0.00000  Uiso   1.00
C774   C     0.82259   0.05614   0.75888   0.00000  Uiso   1.00
C775   C     0.84353   0.27768   0.74134   0.00000  Uiso   1.00
C776   C     0.85505   0.14520   0.64411   0.00000  Uiso   1.00
C777   C     0.81183   0.18753   0.85614   0.00000  Uiso   1.00
C778   C     0.79918   0.19278   0.89931   0.00000  Uiso   1.00
C779   C     0.86393   0.13721   0.60178   0.00000  Uiso   1.00
C780   C     0.74743   0.21192   0.96153   0.00000  Uiso   1.00
C781   C     0.70609   0.22943   0.98200   0.00000  Uiso   1.00
C782   C     0.82332   0.17681   0.91905   0.00000  Uiso   1.00
C783   C     0.70183   0.27114   0.97909   0.00000  Uiso   1.00
C784   C     0.99597   0.28749   0.99770   0.00000  Uiso   1.00
C785   C     0.96075   0.26232   0.51914   0.00000  Uiso   1.00
C786   C     0.96460   0.22071   0.52191   0.00000  Uiso   1.00
C787   C     0.67034   0.20415   0.50321   0.00000  Uiso   1.00
C788   C     0.80988   0.17653   0.96012   0.00000  Uiso   1.00
C789   C     0.77205   0.19556   0.98163   0.00000  Uiso   1.00
C790   C     0.83348   0.15839   0.98027   0.00000  Uiso   1.00
C791   C     0.82120   0.16279   0.52211   0.00000  Uiso   1.00
C792   C     0.78426   0.18306   0.54242   0.00000  Uiso   1.00
C793   C     0.76024   0.19872   0.52266   0.00000  Uiso   1.00
H794   H     0.73256   0.21417   0.54017   0.00000  Uiso   1.00
H795   H     0.74224   0.22221   0.90523   0.00000  Uiso   1.00
H796   H     0.85304   0.16535   0.90138   0.00000  Uiso   1.00
H797   H     0.77238   0.18711   0.57391   0.00000  Uiso   1.00
H798   H     0.87805   0.12805   0.92850   0.00000  Uiso   1.00
H799   H     0.72889   0.29097   0.96257   0.00000  Uiso   1.00
H800   H     0.99290   0.31969   0.99549   0.00000  Uiso   1.00
H801   H     0.93045   0.27503   0.53356   0.00000  Uiso   1.00
H802   H     0.93730   0.20135   0.53856   0.00000  Uiso   1.00
H803   H     0.67277   0.17173   0.50527   0.00000  Uiso   1.00
H804   H     0.93599   0.09435   0.52246   0.00000  Uiso   1.00
H805   H     0.68360   0.19310   0.71461   0.00000  Uiso   1.00
H806   H     0.98457   0.14092   0.78540   0.00000  Uiso   1.00
H807   H     0.87471   0.00280   0.71599   0.00000  Uiso   1.00
H808   H     0.79067   0.33223   0.78425   0.00000  Uiso   1.00
H809   H     0.81129   0.16804   0.60236   0.00000  Uiso   1.00
H810   H     0.92006   0.10560   0.59413   0.00000  Uiso   1.00
H811   H     0.91944   0.10257   0.96262   0.00000  Uiso   1.00
O812   O     0.83333   0.16667   0.75000   0.00000  Uiso   1.00
O813   O     0.82360   0.12393   0.66625   0.00000  Uiso   1.00
O814   O     0.79354   0.20646   0.83749   0.00000  Uiso   1.00
O815   O     0.87755   0.17493   0.65877   0.00000  Uiso   1.00
O816   O     0.83865   0.16135   0.83749   0.00000  Uiso   1.00
O817   O     0.84515   0.08101   0.77821   0.00000  Uiso   1.00
O818   O     0.81247   0.26136   0.76767   0.00000  Uiso   1.00
O819   O     0.74119   0.13251   0.73607   0.00000  Uiso   1.00
O820   O     0.93452   0.19179   0.71806   0.00000  Uiso   1.00
O821   O     0.73656   0.18960   0.77820   0.00000  Uiso   1.00
O822   O     0.92106   0.15277   0.76768   0.00000  Uiso   1.00
O823   O     0.80467   0.06903   0.73607   0.00000  Uiso   1.00
O824   O     0.87104   0.25527   0.71806   0.00000  Uiso   1.00
Zn825  Zn    0.85910   0.14090   0.78278   0.00000  Uiso   1.00
Zn826  Zn    0.80125   0.12378   0.72258   0.00000  Uiso   1.00
Zn827  Zn    0.87833   0.19664   0.71188   0.00000  Uiso   1.00
Zn828  Zn    0.79465   0.20535   0.78277   0.00000  Uiso   1.00
C829   C     0.05250   0.49334   0.75870   0.00000  Uiso   1.00
C830   C     0.20188   0.46869   0.95988   0.00000  Uiso   1.00
C831   C     0.22586   0.45287   0.97953   0.00000  Uiso   1.00
C832   C     0.28107   0.50692   0.74117   0.00000  Uiso   1.00
C833   C     0.21573   0.45881   0.52022   0.00000  Uiso   1.00
C834   C     0.17970   0.48012   0.54218   0.00000  Uiso   1.00
C835   C     0.24169   0.44376   0.53916   0.00000  Uiso   1.00
C836   C     0.23274   0.45004   0.57981   0.00000  Uiso   1.00
C837   C     0.17089   0.48519   0.58344   0.00000  Uiso   1.00
C838   C     0.32711   0.50952   0.73748   0.00000  Uiso   1.00
C839   C     0.00709   0.49109   0.76216   0.00000  Uiso   1.00
C840   C     0.09487   0.54385   0.92059   0.00000  Uiso   1.00
C841   C     0.18090   0.65551   0.73808   0.00000  Uiso   1.00
C842   C     0.15152   0.34542   0.76208   0.00000  Uiso   1.00
C843   C     0.15592   0.38947   0.75888   0.00000  Uiso   1.00
C844   C     0.17686   0.61102   0.74134   0.00000  Uiso   1.00
C845   C     0.18839   0.47853   0.64411   0.00000  Uiso   1.00
C846   C     0.14516   0.52086   0.85614   0.00000  Uiso   1.00
C847   C     0.13252   0.52611   0.89931   0.00000  Uiso   1.00
C848   C     0.19726   0.47054   0.60178   0.00000  Uiso   1.00
C849   C     0.08076   0.54525   0.96153   0.00000  Uiso   1.00
C850   C     0.03942   0.56276   0.98200   0.00000  Uiso   1.00
C851   C     0.15666   0.51015   0.91905   0.00000  Uiso   1.00
C852   C     0.03516   0.60447   0.97909   0.00000  Uiso   1.00
C853   C     0.32930   0.62082   0.99770   0.00000  Uiso   1.00
C854   C     0.29408   0.59565   0.51914   0.00000  Uiso   1.00
C855   C     0.29794   0.55405   0.52191   0.00000  Uiso   1.00
C856   C     0.00367   0.53748   0.50321   0.00000  Uiso   1.00
C857   C     0.14321   0.50987   0.96012   0.00000  Uiso   1.00
C858   C     0.10538   0.52889   0.98163   0.00000  Uiso   1.00
C859   C     0.16681   0.49172   0.98027   0.00000  Uiso   1.00
C860   C     0.15453   0.49612   0.52211   0.00000  Uiso   1.00
C861   C     0.11759   0.51640   0.54242   0.00000  Uiso   1.00
C862   C     0.09357   0.53206   0.52266   0.00000  Uiso   1.00
H863   H     0.06589   0.54750   0.54017   0.00000  Uiso   1.00
H864   H     0.07557   0.55554   0.90523   0.00000  Uiso   1.00
H865   H     0.18638   0.49868   0.90138   0.00000  Uiso   1.00
H866   H     0.10571   0.52044   0.57391   0.00000  Uiso   1.00
H867   H     0.21139   0.46138   0.92850   0.00000  Uiso   1.00
H868   H     0.06222   0.62430   0.96257   0.00000  Uiso   1.00
H869   H     0.32623   0.65302   0.99549   0.00000  Uiso   1.00
H870   H     0.26378   0.60836   0.53356   0.00000  Uiso   1.00
H871   H     0.27063   0.53469   0.53856   0.00000  Uiso   1.00
H872   H     0.00610   0.50506   0.50527   0.00000  Uiso   1.00
H873   H     0.26932   0.42768   0.52246   0.00000  Uiso   1.00
H874   H     0.01694   0.52644   0.71461   0.00000  Uiso   1.00
H875   H     0.31791   0.47425   0.78540   0.00000  Uiso   1.00
H876   H     0.20804   0.33613   0.71599   0.00000  Uiso   1.00
H877   H     0.12400   0.66556   0.78425   0.00000  Uiso   1.00
H878   H     0.14463   0.50137   0.60236   0.00000  Uiso   1.00
H879   H     0.25340   0.43893   0.59413   0.00000  Uiso   1.00
H880   H     0.25277   0.43590   0.96262   0.00000  Uiso   1.00
O881   O     0.16667   0.50000   0.75000   0.00000  Uiso   1.00
O882   O     0.15693   0.45726   0.66625   0.00000  Uiso   1.00
O883   O     0.12687   0.53979   0.83749   0.00000  Uiso   1.00
O884   O     0.21088   0.50826   0.65877   0.00000  Uiso   1.00
O885   O     0.17198   0.49468   0.83749   0.00000  Uiso   1.00
O886   O     0.17849   0.41434   0.77821   0.00000  Uiso   1.00
O887   O     0.14581   0.59469   0.76767   0.00000  Uiso   1.00
O888   O     0.07452   0.46584   0.73607   0.00000  Uiso   1.00
O889   O     0.26785   0.52512   0.71806   0.00000  Uiso   1.00
O890   O     0.06990   0.52293   0.77820   0.00000  Uiso   1.00
O891   O     0.25440   0.48610   0.76768   0.00000  Uiso   1.00
O892   O     0.13800   0.40236   0.73607   0.00000  Uiso   1.00
O893   O     0.20437   0.58860   0.71806   0.00000  Uiso   1.00
Zn894  Zn    0.19244   0.47423   0.78278   0.00000  Uiso   1.00
Zn895  Zn    0.13459   0.45711   0.72258   0.00000  Uiso   1.00
Zn896  Zn    0.21166   0.52997   0.71188   0.00000  Uiso   1.00
Zn897  Zn    0.12798   0.53868   0.78277   0.00000  Uiso   1.00
C898   C     0.38583   0.49334   0.75870   0.00000  Uiso   1.00
C899   C     0.53521   0.46869   0.95988   0.00000  Uiso   1.00
C900   C     0.55919   0.45287   0.97953   0.00000  Uiso   1.00
C901   C     0.61440   0.50692   0.74117   0.00000  Uiso   1.00
C902   C     0.54907   0.45881   0.52022   0.00000  Uiso   1.00
C903   C     0.51303   0.48012   0.54218   0.00000  Uiso   1.00
C904   C     0.57502   0.44376   0.53916   0.00000  Uiso   1.00
C905   C     0.56607   0.45004   0.57981   0.00000  Uiso   1.00
C906   C     0.50422   0.48519   0.58344   0.00000  Uiso   1.00
C907   C     0.66045   0.50952   0.73748   0.00000  Uiso   1.00
C908   C     0.34042   0.49109   0.76216   0.00000  Uiso   1.00
C909   C     0.42820   0.54385   0.92059   0.00000  Uiso   1.00
C910   C     0.51423   0.65551   0.73808   0.00000  Uiso   1.00
C911   C     0.48485   0.34542   0.76208   0.00000  Uiso   1.00
C912   C     0.48925   0.38947   0.75888   0.00000  Uiso   1.00
C913   C     0.51019   0.61102   0.74134   0.00000  Uiso   1.00
C914   C     0.52172   0.47853   0.64411   0.00000  Uiso   1.00
C915   C     0.47849   0.52086   0.85614   0.00000  Uiso   1.00
C916   C     0.46585   0.52611   0.89931   0.00000  Uiso   1.00
C917   C     0.53060   0.47054   0.60178   0.00000  Uiso   1.00
C918   C     0.41410   0.54525   0.96153   0.00000  Uiso   1.00
C919   C     0.37276   0.56276   0.98200   0.00000  Uiso   1.00
C920   C     0.48999   0.51015   0.91905   0.00000  Uiso   1.00
C921   C     0.36850   0.60447   0.97909   0.00000  Uiso   1.00
C922   C     0.66263   0.62082   0.99770   0.00000  Uiso   1.00
C923   C     0.62741   0.59565   0.51914   0.00000  Uiso   1.00
C924   C     0.63127   0.55405   0.52191   0.00000  Uiso   1.00
C925   C     0.33700   0.53748   0.50321   0.00000  Uiso   1.00
C926   C     0.47655   0.50987   0.96012   0.00000  Uiso   1.00
C927   C     0.43872   0.52889   0.98163   0.00000  Uiso   1.00
C928   C     0.50014   0.49172   0.98027   0.00000  Uiso   1.00
C929   C     0.48786   0.49612   0.52211   0.00000  Uiso   1.00
C930   C     0.45093   0.51640   0.54242   0.00000  Uiso   1.00
C931   C     0.42690   0.53206   0.52266   0.00000  Uiso   1.00
H932   H     0.39923   0.54750   0.54017   0.00000  Uiso   1.00
H933   H     0.40890   0.55554   0.90523   0.00000  Uiso   1.00
H934   H     0.51971   0.49868   0.90138   0.00000  Uiso   1.00
H935   H     0.43904   0.52044   0.57391   0.00000  Uiso   1.00
H936   H     0.54472   0.46138   0.92850   0.00000  Uiso   1.00
H937   H     0.39556   0.62430   0.96257   0.00000  Uiso   1.00
H938   H     0.65957   0.65302   0.99549   0.00000  Uiso   1.00
H939   H     0.59712   0.60836   0.53356   0.00000  Uiso   1.00
H940   H     0.60397   0.53469   0.53856   0.00000  Uiso   1.00
H941   H     0.33944   0.50506   0.50527   0.00000  Uiso   1.00
H942   H     0.60266   0.42768   0.52246   0.00000  Uiso   1.00
H943   H     0.35027   0.52644   0.71461   0.00000  Uiso   1.00
H944   H     0.65124   0.47425   0.78540   0.00000  Uiso   1.00
H945   H     0.54137   0.33613   0.71599   0.00000  Uiso   1.00
H946   H     0.45733   0.66556   0.78425   0.00000  Uiso   1.00
H947   H     0.47796   0.50137   0.60236   0.00000  Uiso   1.00
H948   H     0.58673   0.43893   0.59413   0.00000  Uiso   1.00
H949   H     0.58611   0.43590   0.96262   0.00000  Uiso   1.00
O950   O     0.50000   0.50000   0.75000   0.00000  Uiso   1.00
O951   O     0.49027   0.45726   0.66625   0.00000  Uiso   1.00
O952   O     0.46020   0.53979   0.83749   0.00000  Uiso   1.00
O953   O     0.54421   0.50826   0.65877   0.00000  Uiso   1.00
O954   O     0.50532   0.49468   0.83749   0.00000  Uiso   1.00
O955   O     0.51182   0.41434   0.77821   0.00000  Uiso   1.00
O956   O     0.47914   0.59469   0.76767   0.00000  Uiso   1.00
O957   O     0.40785   0.46584   0.73607   0.00000  Uiso   1.00
O958   O     0.60119   0.52512   0.71806   0.00000  Uiso   1.00
O959   O     0.40323   0.52293   0.77820   0.00000  Uiso   1.00
O960   O     0.58773   0.48610   0.76768   0.00000  Uiso   1.00
O961   O     0.47133   0.40236   0.73607   0.00000  Uiso   1.00
O962   O     0.53771   0.58860   0.71806   0.00000  Uiso   1.00
Zn963  Zn    0.52577   0.47423   0.78278   0.00000  Uiso   1.00
Zn964  Zn    0.46792   0.45711   0.72258   0.00000  Uiso   1.00
Zn965  Zn    0.54500   0.52997   0.71188   0.00000  Uiso   1.00
Zn966  Zn    0.46131   0.53868   0.78277   0.00000  Uiso   1.00
C967   C     0.71917   0.49334   0.75870   0.00000  Uiso   1.00
C968   C     0.86854   0.46869   0.95988   0.00000  Uiso   1.00
C969   C     0.89253   0.45287   0.97953   0.00000  Uiso   1.00
C970   C     0.94773   0.50692   0.74117   0.00000  Uiso   1.00
C971   C     0.88240   0.45881   0.52022   0.00000  Uiso   1.00
C972   C     0.84637   0.48012   0.54218   0.00000  Uiso   1.00
C973   C     0.90836   0.44376   0.53916   0.00000  Uiso   1.00
C974   C     0.89941   0.45004   0.57981   0.00000  Uiso   1.00
C975   C     0.83756   0.48519   0.58344   0.00000  Uiso   1.00
C976   C     0.99378   0.50952   0.73748   0.00000  Uiso   1.00
C977   C     0.67375   0.49109   0.76216   0.00000  Uiso   1.00
C978   C     0.76154   0.54385   0.92059   0.00000  Uiso   1.00
C979   C     0.84756   0.65551   0.73808   0.00000  Uiso   1.00
C980   C     0.81818   0.34542   0.76208   0.00000  Uiso   1.00
C981   C     0.82259   0.38947   0.75888   0.00000  Uiso   1.00
C982   C     0.84353   0.61102   0.74134   0.00000  Uiso   1.00
C983   C     0.85505   0.47853   0.64411   0.00000  Uiso   1.00
C984   C     0.81183   0.52086   0.85614   0.00000  Uiso   1.00
C985   C     0.79918   0.52611   0.89931   0.00000  Uiso   1.00
C986   C     0.86393   0.47054   0.60178   0.00000  Uiso   1.00
C987   C     0.74743   0.54525   0.96153   0.00000  Uiso   1.00
C988   C     0.70609   0.56276   0.98200   0.00000  Uiso   1.00
C989   C     0.82332   0.51015   0.91905   0.00000  Uiso   1.00
C990   C     0.70183   0.60447   0.97909   0.00000  Uiso   1.00
C991   C     0.99597   0.62082   0.99770   0.00000  Uiso   1.00
C992   C     0.96075   0.59565   0.51914   0.00000  Uiso   1.00
C993   C     0.96460   0.55405   0.52191   0.00000  Uiso   1.00
C994   C     0.67034   0.53748   0.50321   0.00000  Uiso   1.00
C995   C     0.80988   0.50987   0.96012   0.00000  Uiso   1.00
C996   C     0.77205   0.52889   0.98163   0.00000  Uiso   1.00
C997   C     0.83348   0.49172   0.98027   0.00000  Uiso   1.00
C998   C     0.82120   0.49612   0.52211   0.00000  Uiso   1.00
C999   C     0.78426   0.51640   0.54242   0.00000  Uiso   1.00
C1000  C     0.76024   0.53206   0.52266   0.00000  Uiso   1.00
H1001  H     0.73256   0.54750   0.54017   0.00000  Uiso   1.00
H1002  H     0.74224   0.55554   0.90523   0.00000  Uiso   1.00
H1003  H     0.85304   0.49868   0.90138   0.00000  Uiso   1.00
H1004  H     0.77238   0.52044   0.57391   0.00000  Uiso   1.00
H1005  H     0.87805   0.46138   0.92850   0.00000  Uiso   1.00
H1006  H     0.72889   0.62430   0.96257   0.00000  Uiso   1.00
H1007  H     0.99290   0.65302   0.99549   0.00000  Uiso   1.00
H1008  H     0.93045   0.60836   0.53356   0.00000  Uiso   1.00
H1009  H     0.93730   0.53469   0.53856   0.00000  Uiso   1.00
H1010  H     0.67277   0.50506   0.50527   0.00000  Uiso   1.00
H1011  H     0.93599   0.42768   0.52246   0.00000  Uiso   1.00
H1012  H     0.68360   0.52644   0.71461   0.00000  Uiso   1.00
H1013  H     0.98457   0.47425   0.78540   0.00000  Uiso   1.00
H1014  H     0.87471   0.33613   0.71599   0.00000  Uiso   1.00
H1015  H     0.79067   0.66556   0.78425   0.00000  Uiso   1.00
H1016  H     0.81129   0.50137   0.60236   0.00000  Uiso   1.00
H1017  H     0.92006   0.43893   0.59413   0.00000  Uiso   1.00
H1018  H     0.91944   0.43590   0.96262   0.00000  Uiso   1.00
O1019  O     0.83333   0.50000   0.75000   0.00000  Uiso   1.00
O1020  O     0.82360   0.45726   0.66625   0.00000  Uiso   1.00
O1021  O     0.79354   0.53979   0.83749   0.00000  Uiso   1.00
O1022  O     0.87755   0.50826   0.65877   0.00000  Uiso   1.00
O1023  O     0.83865   0.49468   0.83749   0.00000  Uiso   1.00
O1024  O     0.84515   0.41434   0.77821   0.00000  Uiso   1.00
O1025  O     0.81247   0.59469   0.76767   0.00000  Uiso   1.00
O1026  O     0.74119   0.46584   0.73607   0.00000  Uiso   1.00
O1027  O     0.93452   0.52512   0.71806   0.00000  Uiso   1.00
O1028  O     0.73656   0.52293   0.77820   0.00000  Uiso   1.00
O1029  O     0.92106   0.48610   0.76768   0.00000  Uiso   1.00
O1030  O     0.80467   0.40236   0.73607   0.00000  Uiso   1.00
O1031  O     0.87104   0.58860   0.71806   0.00000  Uiso   1.00
Zn1032 Zn    0.85910   0.47423   0.78278   0.00000  Uiso   1.00
Zn1033 Zn    0.80125   0.45711   0.72258   0.00000  Uiso   1.00
Zn1034 Zn    0.87833   0.52997   0.71188   0.00000  Uiso   1.00
Zn1035 Zn    0.79465   0.53868   0.78277   0.00000  Uiso   1.00
C1036  C     0.05250   0.82667   0.75870   0.00000  Uiso   1.00
C1037  C     0.20188   0.80203   0.95988   0.00000  Uiso   1.00
C1038  C     0.22586   0.78620   0.97953   0.00000  Uiso   1.00
C1039  C     0.28107   0.84025   0.74117   0.00000  Uiso   1.00
C1040  C     0.21573   0.79214   0.52022   0.00000  Uiso   1.00
C1041  C     0.17970   0.81345   0.54218   0.00000  Uiso   1.00
C1042  C     0.24169   0.77709   0.53916   0.00000  Uiso   1.00
C1043  C     0.23274   0.78337   0.57981   0.00000  Uiso   1.00
C1044  C     0.17089   0.81852   0.58344   0.00000  Uiso   1.00
C1045  C     0.32711   0.84285   0.73748   0.00000  Uiso   1.00
C1046  C     0.00709   0.82442   0.76216   0.00000  Uiso   1.00
C1047  C     0.09487   0.87718   0.92059   0.00000  Uiso   1.00
C1048  C     0.18090   0.98884   0.73808   0.00000  Uiso   1.00
C1049  C     0.15152   0.67876   0.76208   0.00000  Uiso   1.00
C1050  C     0.15592   0.72280   0.75888   0.00000  Uiso   1.00
C1051  C     0.17686   0.94435   0.74134   0.00000  Uiso   1.00
C1052  C     0.18839   0.81187   0.64411   0.00000  Uiso   1.00
C1053  C     0.14516   0.85420   0.85614   0.00000  Uiso   1.00
C1054  C     0.13252   0.85945   0.89931   0.00000  Uiso   1.00
C1055  C     0.19726   0.80387   0.60178   0.00000  Uiso   1.00
C1056  C     0.08076   0.87858   0.96153   0.00000  Uiso   1.00
C1057  C     0.03942   0.89610   0.98200   0.00000  Uiso   1.00
C1058  C     0.15666   0.84348   0.91905   0.00000  Uiso   1.00
C1059  C     0.03516   0.93780   0.97909   0.00000  Uiso   1.00
C1060  C     0.32930   0.95416   0.99770   0.00000  Uiso   1.00
C1061  C     0.29408   0.92898   0.51914   0.00000  Uiso   1.00
C1062  C     0.29794   0.88738   0.52191   0.00000  Uiso   1.00
C1063  C     0.00367   0.87082   0.50321   0.00000  Uiso   1.00
C1064  C     0.14321   0.84320   0.96012   0.00000  Uiso   1.00
C1065  C     0.10538   0.86223   0.98163   0.00000  Uiso   1.00
C1066  C     0.16681   0.82506   0.98027   0.00000  Uiso   1.00
C1067  C     0.15453   0.82946   0.52211   0.00000  Uiso   1.00
C1068  C     0.11759   0.84973   0.54242   0.00000  Uiso   1.00
C1069  C     0.09357   0.86539   0.52266   0.00000  Uiso   1.00
H1070  H     0.06589   0.88084   0.54017   0.00000  Uiso   1.00
H1071  H     0.07557   0.88887   0.90523   0.00000  Uiso   1.00
H1072  H     0.18638   0.83202   0.90138   0.00000  Uiso   1.00
H1073  H     0.10571   0.85378   0.57391   0.00000  Uiso   1.00
H1074  H     0.21139   0.79472   0.92850   0.00000  Uiso   1.00
H1075  H     0.06222   0.95763   0.96257   0.00000  Uiso   1.00
H1076  H     0.32623   0.98635   0.99549   0.00000  Uiso   1.00
H1077  H     0.26378   0.94170   0.53356   0.00000  Uiso   1.00
H1078  H     0.27063   0.86802   0.53856   0.00000  Uiso   1.00
H1079  H     0.00610   0.83840   0.50527   0.00000  Uiso   1.00
H1080  H     0.26932   0.76102   0.52246   0.00000  Uiso   1.00
H1081  H     0.01694   0.85977   0.71461   0.00000  Uiso   1.00
H1082  H     0.31791   0.80759   0.78540   0.00000  Uiso   1.00
H1083  H     0.20804   0.66947   0.71599   0.00000  Uiso   1.00
H1084  H     0.12400   0.99890   0.78425   0.00000  Uiso   1.00
H1085  H     0.14463   0.83470   0.60236   0.00000  Uiso   1.00
H1086  H     0.25340   0.77226   0.59413   0.00000  Uiso   1.00
H1087  H     0.25277   0.76923   0.96262   0.00000  Uiso   1.00
O1088  O     0.16667   0.83333   0.75000   0.00000  Uiso   1.00
O1089  O     0.15693   0.79060   0.66625   0.00000  Uiso   1.00
O1090  O     0.12687   0.87313   0.83749   0.00000  Uiso   1.00
O1091  O     0.21088   0.84159   0.65877   0.00000  Uiso   1.00
O1092  O     0.17198   0.82802   0.83749   0.00000  Uiso   1.00
O1093  O     0.17849   0.74768   0.77821   0.00000  Uiso   1.00
O1094  O     0.14581   0.92803   0.76767   0.00000  Uiso   1.00
O1095  O     0.07452   0.79917   0.73607   0.00000  Uiso   1.00
O1096  O     0.26785   0.85845   0.71806   0.00000  Uiso   1.00
O1097  O     0.06990   0.85627   0.77820   0.00000  Uiso   1.00
O1098  O     0.25440   0.81944   0.76768   0.00000  Uiso   1.00
O1099  O     0.13800   0.73570   0.73607   0.00000  Uiso   1.00
O1100  O     0.20437   0.92193   0.71806   0.00000  Uiso   1.00
Zn1101 Zn    0.19244   0.80756   0.78278   0.00000  Uiso   1.00
Zn1102 Zn    0.13459   0.79044   0.72258   0.00000  Uiso   1.00
Zn1103 Zn    0.21166   0.86331   0.71188   0.00000  Uiso   1.00
Zn1104 Zn    0.12798   0.87202   0.78277   0.00000  Uiso   1.00
C1105  C     0.38583   0.82667   0.75870   0.00000  Uiso   1.00
C1106  C     0.53521   0.80203   0.95988   0.00000  Uiso   1.00
C1107  C     0.55919   0.78620   0.97953   0.00000  Uiso   1.00
C1108  C     0.61440   0.84025   0.74117   0.00000  Uiso   1.00
C1109  C     0.54907   0.79214   0.52022   0.00000  Uiso   1.00
C1110  C     0.51303   0.81345   0.54218   0.00000  Uiso   1.00
C1111  C     0.57502   0.77709   0.53916   0.00000  Uiso   1.00
C1112  C     0.56607   0.78337   0.57981   0.00000  Uiso   1.00
C1113  C     0.50422   0.81852   0.58344   0.00000  Uiso   1.00
C1114  C     0.66045   0.84285   0.73748   0.00000  Uiso   1.00
C1115  C     0.34042   0.82442   0.76216   0.00000  Uiso   1.00
C1116  C     0.42820   0.87718   0.92059   0.00000  Uiso   1.00
C1117  C     0.51423   0.98884   0.73808   0.00000  Uiso   1.00
C1118  C     0.48485   0.67876   0.76208   0.00000  Uiso   1.00
C1119  C     0.48925   0.72280   0.75888   0.00000  Uiso   1.00
C1120  C     0.51019   0.94435   0.74134   0.00000  Uiso   1.00
C1121  C     0.52172   0.81187   0.64411   0.00000  Uiso   1.00
C1122  C     0.47849   0.85420   0.85614   0.00000  Uiso   1.00
C1123  C     0.46585   0.85945   0.89931   0.00000  Uiso   1.00
C1124  C     0.53060   0.80387   0.60178   0.00000  Uiso   1.00
C1125  C     0.41410   0.87858   0.96153   0.00000  Uiso   1.00
C1126  C     0.37276   0.89610   0.98200   0.00000  Uiso   1.00
C1127  C     0.48999   0.84348   0.91905   0.00000  Uiso   1.00
C1128  C     0.36850   0.93780   0.97909   0.00000  Uiso   1.00
C1129  C     0.66263   0.95416   0.99770   0.00000  Uiso   1.00
C1130  C     0.62741   0.92898   0.51914   0.00000  Uiso   1.00
C1131  C     0.63127   0.88738   0.52191   0.00000  Uiso   1.00
C1132  C     0.33700   0.87082   0.50321   0.00000  Uiso   1.00
C1133  C     0.47655   0.84320   0.96012   0.00000  Uiso   1.00
C1134  C     0.43872   0.86223   0.98163   0.00000  Uiso   1.00
C1135  C     0.50014   0.82506   0.98027   0.00000  Uiso   1.00
C1136  C     0.48786   0.82946   0.52211   0.00000  Uiso   1.00
C1137  C     0.45093   0.84973   0.54242   0.00000  Uiso   1.00
C1138  C     0.42690   0.86539   0.52266   0.00000  Uiso   1.00
H1139  H     0.39923   0.88084   0.54017   0.00000  Uiso   1.00
H1140  H     0.40890   0.88887   0.90523   0.00000  Uiso   1.00
H1141  H     0.51971   0.83202   0.90138   0.00000  Uiso   1.00
H1142  H     0.43904   0.85378   0.57391   0.00000  Uiso   1.00
H1143  H     0.54472   0.79472   0.92850   0.00000  Uiso   1.00
H1144  H     0.39556   0.95763   0.96257   0.00000  Uiso   1.00
H1145  H     0.65957   0.98635   0.99549   0.00000  Uiso   1.00
H1146  H     0.59712   0.94170   0.53356   0.00000  Uiso   1.00
H1147  H     0.60397   0.86802   0.53856   0.00000  Uiso   1.00
H1148  H     0.33944   0.83840   0.50527   0.00000  Uiso   1.00
H1149  H     0.60266   0.76102   0.52246   0.00000  Uiso   1.00
H1150  H     0.35027   0.85977   0.71461   0.00000  Uiso   1.00
H1151  H     0.65124   0.80759   0.78540   0.00000  Uiso   1.00
H1152  H     0.54137   0.66947   0.71599   0.00000  Uiso   1.00
H1153  H     0.45733   0.99890   0.78425   0.00000  Uiso   1.00
H1154  H     0.47796   0.83470   0.60236   0.00000  Uiso   1.00
H1155  H     0.58673   0.77226   0.59413   0.00000  Uiso   1.00
H1156  H     0.58611   0.76923   0.96262   0.00000  Uiso   1.00
O1157  O     0.50000   0.83333   0.75000   0.00000  Uiso   1.00
O1158  O     0.49027   0.79060   0.66625   0.00000  Uiso   1.00
O1159  O     0.46020   0.87313   0.83749   0.00000  Uiso   1.00
O1160  O     0.54421   0.84159   0.65877   0.00000  Uiso   1.00
O1161  O     0.50532   0.82802   0.83749   0.00000  Uiso   1.00
O1162  O     0.51182   0.74768   0.77821   0.00000  Uiso   1.00
O1163  O     0.47914   0.92803   0.76767   0.00000  Uiso   1.00
O1164  O     0.40785   0.79917   0.73607   0.00000  Uiso   1.00
O1165  O     0.60119   0.85845   0.71806   0.00000  Uiso   1.00
O1166  O     0.40323   0.85627   0.77820   0.00000  Uiso   1.00
O1167  O     0.58773   0.81944   0.76768   0.00000  Uiso   1.00
O1168  O     0.47133   0.73570   0.73607   0.00000  Uiso   1.00
O1169  O     0.53771   0.92193   0.71806   0.00000  Uiso   1.00
Zn1170 Zn    0.52577   0.80756   0.78278   0.00000  Uiso   1.00
Zn1171 Zn    0.46792   0.79044   0.72258   0.00000  Uiso   1.00
Zn1172 Zn    0.54500   0.86331   0.71188   0.00000  Uiso   1.00
Zn1173 Zn    0.46131   0.87202   0.78277   0.00000  Uiso   1.00
C1174  C     0.71917   0.82667   0.75870   0.00000  Uiso   1.00
C1175  C     0.86854   0.80203   0.95988   0.00000  Uiso   1.00
C1176  C     0.89253   0.78620   0.97953   0.00000  Uiso   1.00
C1177  C     0.94773   0.84025   0.74117   0.00000  Uiso   1.00
C1178  C     0.88240   0.79214   0.52022   0.00000  Uiso   1.00
C1179  C     0.84637   0.81345   0.54218   0.00000  Uiso   1.00
C1180  C     0.90836   0.77709   0.53916   0.00000  Uiso   1.00
C1181  C     0.89941   0.78337   0.57981   0.00000  Uiso   1.00
C1182  C     0.83756   0.81852   0.58344   0.00000  Uiso   1.00
C1183  C     0.99378   0.84285   0.73748   0.00000  Uiso   1.00
C1184  C     0.67375   0.82442   0.76216   0.00000  Uiso   1.00
C1185  C     0.76154   0.87718   0.92059   0.00000  Uiso   1.00
C1186  C     0.84756   0.98884   0.73808   0.00000  Uiso   1.00
C1187  C     0.81818   0.67876   0.76208   0.00000  Uiso   1.00
C1188  C     0.82259   0.72280   0.75888   0.00000  Uiso   1.00
C1189  C     0.84353   0.94435   0.74134   0.00000  Uiso   1.00
C1190  C     0.85505   0.81187   0.64411   0.00000  Uiso   1.00
C1191  C     0.81183   0.85420   0.85614   0.00000  Uiso   1.00
C1192  C     0.79918   0.85945   0.89931   0.00000  Uiso   1.00
C1193  C     0.86393   0.80387   0.60178   0.00000  Uiso   1.00
C1194  C     0.74743   0.87858   0.96153   0.00000  Uiso   1.00
C1195  C     0.70609   0.89610   0.98200   0.00000  Uiso   1.00
C1196  C     0.82332   0.84348   0.91905   0.00000  Uiso   1.00
C1197  C     0.70183   0.93780   0.97909   0.00000  Uiso   1.00
C1198  C     0.99597   0.95416   0.99770   0.00000  Uiso   1.00
C1199  C     0.96075   0.92898   0.51914   0.00000  Uiso   1.00
C1200  C     0.96460   0.88738   0.52191   0.00000  Uiso   1.00
C1201  C     0.67034   0.87082   0.50321   0.00000  Uiso   1.00
C1202  C     0.80988   0.84320   0.96012   0.00000  Uiso   1.00
C1203  C     0.77205   0.86223   0.98163   0.00000  Uiso   1.00
C1204  C     0.83348   0.82506   0.98027   0.00000  Uiso   1.00
C1205  C     0.82120   0.82946   0.52211   0.00000  Uiso   1.00
C1206  C     0.78426   0.84973   0.54242   0.00000  Uiso   1.00
C1207  C     0.76024   0.86539   0.52266   0.00000  Uiso   1.00
H1208  H     0.73256   0.88084   0.54017   0.00000  Uiso   1.00
H1209  H     0.74224   0.88887   0.90523   0.00000  Uiso   1.00
H1210  H     0.85304   0.83202   0.90138   0.00000  Uiso   1.00
H1211  H     0.77238   0.85378   0.57391   0.00000  Uiso   1.00
H1212  H     0.87805   0.79472   0.92850   0.00000  Uiso   1.00
H1213  H     0.72889   0.95763   0.96257   0.00000  Uiso   1.00
H1214  H     0.99290   0.98635   0.99549   0.00000  Uiso   1.00
H1215  H     0.93045   0.94170   0.53356   0.00000  Uiso   1.00
H1216  H     0.93730   0.86802   0.53856   0.00000  Uiso   1.00
H1217  H     0.67277   0.83840   0.50527   0.00000  Uiso   1.00
H1218  H     0.93599   0.76102   0.52246   0.00000  Uiso   1.00
H1219  H     0.68360   0.85977   0.71461   0.00000  Uiso   1.00
H1220  H     0.98457   0.80759   0.78540   0.00000  Uiso   1.00
H1221  H     0.87471   0.66947   0.71599   0.00000  Uiso   1.00
H1222  H     0.79067   0.99890   0.78425   0.00000  Uiso   1.00
H1223  H     0.81129   0.83470   0.60236   0.00000  Uiso   1.00
H1224  H     0.92006   0.77226   0.59413   0.00000  Uiso   1.00
H1225  H     0.91944   0.76923   0.96262   0.00000  Uiso   1.00
O1226  O     0.83333   0.83333   0.75000   0.00000  Uiso   1.00
O1227  O     0.82360   0.79060   0.66625   0.00000  Uiso   1.00
O1228  O     0.79354   0.87313   0.83749   0.00000  Uiso   1.00
O1229  O     0.87755   0.84159   0.65877   0.00000  Uiso   1.00
O1230  O     0.83865   0.82802   0.83749   0.00000  Uiso   1.00
O1231  O     0.84515   0.74768   0.77821   0.00000  Uiso   1.00
O1232  O     0.81247   0.92803   0.76767   0.00000  Uiso   1.00
O1233  O     0.74119   0.79917   0.73607   0.00000  Uiso   1.00
O1234  O     0.93452   0.85845   0.71806   0.00000  Uiso   1.00
O1235  O     0.73656   0.85627   0.77820   0.00000  Uiso   1.00
O1236  O     0.92106   0.81944   0.76768   0.00000  Uiso   1.00
O1237  O     0.80467   0.73570   0.73607   0.00000  Uiso   1.00
O1238  O     0.87104   0.92193   0.71806   0.00000  Uiso   1.00
Zn1239 Zn    0.85910   0.80756   0.78278   0.00000  Uiso   1.00
Zn1240 Zn    0.80125   0.79044   0.72258   0.00000  Uiso   1.00
Zn1241 Zn    0.87833   0.86331   0.71188   0.00000  Uiso   1.00
Zn1242 Zn    0.79465   0.87202   0.78277   0.00000  Uiso   1.00
loop_
_geom_bond_atom_site_label_1
_geom_bond_atom_site_label_2
_geom_bond_distance
_geom_bond_site_symmetry_2
_ccdc_geom_bond_type
C1     O62     1.270   .     A
C1     O60     1.271   .     A
C1     C11     1.438   .     S
C2     H39     1.076   .     S
C2     C3      1.384   .     A
C2     C31     1.416   .     A
C3     H52     1.084   .     S
C3     C626    1.388   .     S
C4     O63     1.279   .     A
C4     C10     1.455   .     S
C4     O61     1.283   .     A
C5     C6      1.421   .     A
C5     C7      1.403   .     A
C5     C624    1.388   1_554 S
C6     C32     1.428   .     A
C6     C9      1.411   .     A
C7     C8      1.390   .     A
C7     H45     1.084   .     S
C8     C20     1.394   .     A
C8     H51     1.083   .     S
C9     C20     1.392   .     A
C9     H50     1.077   .     S
C10    C80     1.335   .     S
C10    H115    1.088   .     S
C11    C148    1.335   1_455 S
C11    H185    1.086   1_455 S
C12    H36     1.084   .     S
C12    C19     1.397   .     A
C12    C21     1.399   .     A
C13    C16     1.451   .     S
C13    C221    1.331   .     S
C13    H255    1.088   .     S
C14    C15     1.435   .     S
C14    C427    1.331   1_545 S
C14    H463    1.086   1_545 S
C15    O64     1.279   .     A
C15    O58     1.279   .     A
C16    O65     1.270   .     A
C16    O59     1.270   .     A
C17    O54     1.273   .     A
C17    O56     1.271   .     A
C17    C20     1.451   .     S
C18    O55     1.281   .     A
C18    C19     1.471   .     S
C18    O57     1.285   .     A
C19    C23     1.393   .     A
C21    C30     1.421   .     A
C21    C22     1.484   .     S
C22    C24     1.405   .     A
C22    C649    1.406   .     S
C23    C29     1.408   .     A
C23    H37     1.075   .     S
C24    H40     1.083   .     S
C24    C163    1.398   1_455 S
C25    H41     1.082   .     S
C25    C93     1.398   .     S
C25    C647    1.398   .     S
C26    C27     1.397   .     A
C26    H42     1.082   .     S
C26    C646    1.398   1_554 S
C27    H43     1.081   .     S
C27    C97     1.399   .     S
C28    H44     1.083   .     S
C28    C643    1.406   1_554 S
C28    C165    1.399   1_455 S
C29    C30     1.423   .     A
C29    C31     1.429   .     A
C30    C655    1.399   .     S
C31    C653    1.425   .     S
C32    C33     1.412   .     A
C32    C652    1.425   1_554 S
C33    H38     1.075   .     S
C33    C34     1.385   .     A
C34    H35     1.082   .     S
C34    C651    1.399   1_554 S
H46    C148    1.088   1_455 S
H47    C80     1.086   .     S
H48    C427    1.088   1_545 S
H49    C221    1.086   .     S
O53    Zn69    1.931   .     S
O53    Zn66    1.963   .     S
O53    Zn67    1.944   .     S
O53    Zn68    1.932   .     S
O54    Zn67    1.934   .     S
O55    Zn69    1.946   .     S
O56    Zn68    1.940   .     S
O57    Zn66    1.930   .     S
O58    Zn66    1.927   .     S
O59    Zn69    1.930   .     S
O60    Zn67    1.925   .     S
O61    Zn68    1.937   .     S
O62    Zn69    1.931   .     S
O63    Zn66    1.921   .     S
O64    Zn67    1.937   .     S
O65    Zn68    1.930   .     S
C70    O131    1.270   .     A
C70    O129    1.271   .     A
C70    C80     1.438   .     S
C71    H108    1.076   .     S
C71    C72     1.384   .     A
C71    C100    1.416   .     A
C72    H121    1.084   .     S
C72    C695    1.388   .     S
C73    O132    1.279   .     A
C73    C79     1.455   .     S
C73    O130    1.283   .     A
C74    C75     1.421   .     A
C74    C76     1.403   .     A
C74    C693    1.388   1_554 S
C75    C101    1.428   .     A
C75    C78     1.411   .     A
C76    C77     1.390   .     A
C76    H114    1.084   .     S
C77    C89     1.394   .     A
C77    H120    1.083   .     S
C78    C89     1.392   .     A
C78    H119    1.077   .     S
C79    C149    1.335   .     S
C79    H184    1.088   .     S
C81    H105    1.084   .     S
C81    C88     1.397   .     A
C81    C90     1.399   .     A
C82    C85     1.451   .     S
C82    C290    1.331   .     S
C82    H324    1.088   .     S
C83    C84     1.435   .     S
C83    C496    1.331   1_545 S
C83    H532    1.086   1_545 S
C84    O133    1.279   .     A
C84    O127    1.279   .     A
C85    O134    1.270   .     A
C85    O128    1.270   .     A
C86    O123    1.273   .     A
C86    O125    1.271   .     A
C86    C89     1.451   .     S
C87    O124    1.281   .     A
C87    C88     1.471   .     S
C87    O126    1.285   .     A
C88    C92     1.393   .     A
C90    C99     1.421   .     A
C90    C91     1.484   .     S
C91    C93     1.405   .     A
C91    C718    1.406   .     S
C92    C98     1.408   .     A
C92    H106    1.075   .     S
C93    H109    1.083   .     S
C94    H110    1.082   .     S
C94    C162    1.398   .     S
C94    C716    1.398   .     S
C95    C96     1.397   .     A
C95    H111    1.082   .     S
C95    C715    1.398   1_554 S
C96    H112    1.081   .     S
C96    C166    1.399   .     S
C97    H113    1.083   .     S
C97    C712    1.406   1_554 S
C98    C99     1.423   .     A
C98    C100    1.429   .     A
C99    C724    1.399   .     S
C100   C722    1.425   .     S
C101   C102    1.412   .     A
C101   C721    1.425   1_554 S
C102   H107    1.075   .     S
C102   C103    1.385   .     A
C103   H104    1.082   .     S
C103   C720    1.399   1_554 S
H116   C149    1.086   .     S
H117   C496    1.088   1_545 S
H118   C290    1.086   .     S
O122   Zn138   1.931   .     S
O122   Zn135   1.963   .     S
O122   Zn136   1.944   .     S
O122   Zn137   1.932   .     S
O123   Zn136   1.934   .     S
O124   Zn138   1.946   .     S
O125   Zn137   1.940   .     S
O126   Zn135   1.930   .     S
O127   Zn135   1.927   .     S
O128   Zn138   1.930   .     S
O129   Zn136   1.925   .     S
O130   Zn137   1.937   .     S
O131   Zn138   1.931   .     S
O132   Zn135   1.921   .     S
O133   Zn136   1.937   .     S
O134   Zn137   1.930   .     S
C139   O200    1.270   .     A
C139   O198    1.271   .     A
C139   C149    1.438   .     S
C140   H177    1.076   .     S
C140   C141    1.384   .     A
C140   C169    1.416   .     A
C141   H190    1.084   .     S
C141   C764    1.388   .     S
C142   O201    1.279   .     A
C142   C148    1.455   .     S
C142   O199    1.283   .     A
C143   C144    1.421   .     A
C143   C145    1.403   .     A
C143   C762    1.388   1_554 S
C144   C170    1.428   .     A
C144   C147    1.411   .     A
C145   C146    1.390   .     A
C145   H183    1.084   .     S
C146   C158    1.394   .     A
C146   H189    1.083   .     S
C147   C158    1.392   .     A
C147   H188    1.077   .     S
C148   C11     1.335   1_655 S
C148   H46     1.088   1_655 S
C150   H174    1.084   .     S
C150   C157    1.397   .     A
C150   C159    1.399   .     A
C151   C154    1.451   .     S
C151   C359    1.331   .     S
C151   H393    1.088   .     S
C152   C153    1.435   .     S
C152   C565    1.331   1_545 S
C152   H601    1.086   1_545 S
C153   O202    1.279   .     A
C153   O196    1.279   .     A
C154   O203    1.270   .     A
C154   O197    1.270   .     A
C155   O192    1.273   .     A
C155   O194    1.271   .     A
C155   C158    1.451   .     S
C156   O193    1.281   .     A
C156   C157    1.471   .     S
C156   O195    1.285   .     A
C157   C161    1.393   .     A
C159   C168    1.421   .     A
C159   C160    1.484   .     S
C160   C162    1.405   .     A
C160   C787    1.406   .     S
C161   C167    1.408   .     A
C161   H175    1.075   .     S
C162   H178    1.083   .     S
C163   H179    1.082   .     S
C163   C24     1.398   1_655 S
C163   C785    1.398   .     S
C164   C165    1.397   .     A
C164   H180    1.082   .     S
C164   C784    1.398   1_554 S
C165   H181    1.081   .     S
C165   C28     1.399   1_655 S
C166   H182    1.083   .     S
C166   C781    1.406   1_554 S
C167   C168    1.423   .     A
C167   C169    1.429   .     A
C168   C793    1.399   .     S
C169   C791    1.425   .     S
C170   C171    1.412   .     A
C170   C790    1.425   1_554 S
C171   H176    1.075   .     S
C171   C172    1.385   .     A
C172   H173    1.082   .     S
C172   C789    1.399   1_554 S
H185   C11     1.086   1_655 S
H186   C565    1.088   1_545 S
H187   C359    1.086   .     S
O191   Zn207   1.931   .     S
O191   Zn204   1.963   .     S
O191   Zn205   1.944   .     S
O191   Zn206   1.932   .     S
O192   Zn205   1.934   .     S
O193   Zn207   1.946   .     S
O194   Zn206   1.940   .     S
O195   Zn204   1.930   .     S
O196   Zn204   1.927   .     S
O197   Zn207   1.930   .     S
O198   Zn205   1.925   .     S
O199   Zn206   1.937   .     S
O200   Zn207   1.931   .     S
O201   Zn204   1.921   .     S
O202   Zn205   1.937   .     S
O203   Zn206   1.930   .     S
C208   O269    1.270   .     A
C208   O267    1.271   .     A
C208   C218    1.438   .     S
C209   H246    1.076   .     S
C209   C210    1.384   .     A
C209   C238    1.416   .     A
C210   H259    1.084   .     S
C210   C833    1.388   .     S
C211   O270    1.279   .     A
C211   C217    1.455   .     S
C211   O268    1.283   .     A
C212   C213    1.421   .     A
C212   C214    1.403   .     A
C212   C831    1.388   1_554 S
C213   C239    1.428   .     A
C213   C216    1.411   .     A
C214   C215    1.390   .     A
C214   H252    1.084   .     S
C215   C227    1.394   .     A
C215   H258    1.083   .     S
C216   C227    1.392   .     A
C216   H257    1.077   .     S
C217   C287    1.335   .     S
C217   H322    1.088   .     S
C218   C355    1.335   1_455 S
C218   H392    1.086   1_455 S
C219   H243    1.084   .     S
C219   C226    1.397   .     A
C219   C228    1.399   .     A
C220   C223    1.451   .     S
C220   C428    1.331   .     S
C220   H462    1.088   .     S
C221   C222    1.435   .     S
C222   O271    1.279   .     A
C222   O265    1.279   .     A
C223   O272    1.270   .     A
C223   O266    1.270   .     A
C224   O261    1.273   .     A
C224   O263    1.271   .     A
C224   C227    1.451   .     S
C225   O262    1.281   .     A
C225   C226    1.471   .     S
C225   O264    1.285   .     A
C226   C230    1.393   .     A
C228   C237    1.421   .     A
C228   C229    1.484   .     S
C229   C231    1.405   .     A
C229   C856    1.406   .     S
C230   C236    1.408   .     A
C230   H244    1.075   .     S
C231   H247    1.083   .     S
C231   C370    1.398   1_455 S
C232   H248    1.082   .     S
C232   C300    1.398   .     S
C232   C854    1.398   .     S
C233   C234    1.397   .     A
C233   H249    1.082   .     S
C233   C853    1.398   1_554 S
C234   H250    1.081   .     S
C234   C304    1.399   .     S
C235   H251    1.083   .     S
C235   C850    1.406   1_554 S
C235   C372    1.399   1_455 S
C236   C237    1.423   .     A
C236   C238    1.429   .     A
C237   C862    1.399   .     S
C238   C860    1.425   .     S
C239   C240    1.412   .     A
C239   C859    1.425   1_554 S
C240   H245    1.075   .     S
C240   C241    1.385   .     A
C241   H242    1.082   .     S
C241   C858    1.399   1_554 S
H253   C355    1.088   1_455 S
H254   C287    1.086   .     S
H256   C428    1.086   .     S
O260   Zn276   1.931   .     S
O260   Zn273   1.963   .     S
O260   Zn274   1.944   .     S
O260   Zn275   1.932   .     S
O261   Zn274   1.934   .     S
O262   Zn276   1.946   .     S
O263   Zn275   1.940   .     S
O264   Zn273   1.930   .     S
O265   Zn273   1.927   .     S
O266   Zn276   1.930   .     S
O267   Zn274   1.925   .     S
O268   Zn275   1.937   .     S
O269   Zn276   1.931   .     S
O270   Zn273   1.921   .     S
O271   Zn274   1.937   .     S
O272   Zn275   1.930   .     S
C277   O338    1.270   .     A
C277   O336    1.271   .     A
C277   C287    1.438   .     S
C278   H315    1.076   .     S
C278   C279    1.384   .     A
C278   C307    1.416   .     A
C279   H328    1.084   .     S
C279   C902    1.388   .     S
C280   O339    1.279   .     A
C280   C286    1.455   .     S
C280   O337    1.283   .     A
C281   C282    1.421   .     A
C281   C283    1.403   .     A
C281   C900    1.388   1_554 S
C282   C308    1.428   .     A
C282   C285    1.411   .     A
C283   C284    1.390   .     A
C283   H321    1.084   .     S
C284   C296    1.394   .     A
C284   H327    1.083   .     S
C285   C296    1.392   .     A
C285   H326    1.077   .     S
C286   C356    1.335   .     S
C286   H391    1.088   .     S
C288   H312    1.084   .     S
C288   C295    1.397   .     A
C288   C297    1.399   .     A
C289   C292    1.451   .     S
C289   C497    1.331   .     S
C289   H531    1.088   .     S
C290   C291    1.435   .     S
C291   O340    1.279   .     A
C291   O334    1.279   .     A
C292   O341    1.270   .     A
C292   O335    1.270   .     A
C293   O330    1.273   .     A
C293   O332    1.271   .     A
C293   C296    1.451   .     S
C294   O331    1.281   .     A
C294   C295    1.471   .     S
C294   O333    1.285   .     A
C295   C299    1.393   .     A
C297   C306    1.421   .     A
C297   C298    1.484   .     S
C298   C300    1.405   .     A
C298   C925    1.406   .     S
C299   C305    1.408   .     A
C299   H313    1.075   .     S
C300   H316    1.083   .     S
C301   H317    1.082   .     S
C301   C369    1.398   .     S
C301   C923    1.398   .     S
C302   C303    1.397   .     A
C302   H318    1.082   .     S
C302   C922    1.398   1_554 S
C303   H319    1.081   .     S
C303   C373    1.399   .     S
C304   H320    1.083   .     S
C304   C919    1.406   1_554 S
C305   C306    1.423   .     A
C305   C307    1.429   .     A
C306   C931    1.399   .     S
C307   C929    1.425   .     S
C308   C309    1.412   .     A
C308   C928    1.425   1_554 S
C309   H314    1.075   .     S
C309   C310    1.385   .     A
C310   H311    1.082   .     S
C310   C927    1.399   1_554 S
H323   C356    1.086   .     S
H325   C497    1.086   .     S
O329   Zn345   1.931   .     S
O329   Zn342   1.963   .     S
O329   Zn343   1.944   .     S
O329   Zn344   1.932   .     S
O330   Zn343   1.934   .     S
O331   Zn345   1.946   .     S
O332   Zn344   1.940   .     S
O333   Zn342   1.930   .     S
O334   Zn342   1.927   .     S
O335   Zn345   1.930   .     S
O336   Zn343   1.925   .     S
O337   Zn344   1.937   .     S
O338   Zn345   1.931   .     S
O339   Zn342   1.921   .     S
O340   Zn343   1.937   .     S
O341   Zn344   1.930   .     S
C346   O407    1.270   .     A
C346   O405    1.271   .     A
C346   C356    1.438   .     S
C347   H384    1.076   .     S
C347   C348    1.384   .     A
C347   C376    1.416   .     A
C348   H397    1.084   .     S
C348   C971    1.388   .     S
C349   O408    1.279   .     A
C349   C355    1.455   .     S
C349   O406    1.283   .     A
C350   C351    1.421   .     A
C350   C352    1.403   .     A
C350   C969    1.388   1_554 S
C351   C377    1.428   .     A
C351   C354    1.411   .     A
C352   C353    1.390   .     A
C352   H390    1.084   .     S
C353   C365    1.394   .     A
C353   H396    1.083   .     S
C354   C365    1.392   .     A
C354   H395    1.077   .     S
C355   C218    1.335   1_655 S
C355   H253    1.088   1_655 S
C357   H381    1.084   .     S
C357   C364    1.397   .     A
C357   C366    1.399   .     A
C358   C361    1.451   .     S
C358   C566    1.331   .     S
C358   H600    1.088   .     S
C359   C360    1.435   .     S
C360   O409    1.279   .     A
C360   O403    1.279   .     A
C361   O410    1.270   .     A
C361   O404    1.270   .     A
C362   O399    1.273   .     A
C362   O401    1.271   .     A
C362   C365    1.451   .     S
C363   O400    1.281   .     A
C363   C364    1.471   .     S
C363   O402    1.285   .     A
C364   C368    1.393   .     A
C366   C375    1.421   .     A
C366   C367    1.484   .     S
C367   C369    1.405   .     A
C367   C994    1.406   .     S
C368   C374    1.408   .     A
C368   H382    1.075   .     S
C369   H385    1.083   .     S
C370   H386    1.082   .     S
C370   C231    1.398   1_655 S
C370   C992    1.398   .     S
C371   C372    1.397   .     A
C371   H387    1.082   .     S
C371   C991    1.398   1_554 S
C372   H388    1.081   .     S
C372   C235    1.399   1_655 S
C373   H389    1.083   .     S
C373   C988    1.406   1_554 S
C374   C375    1.423   .     A
C374   C376    1.429   .     A
C375   C1000   1.399   .     S
C376   C998    1.425   .     S
C377   C378    1.412   .     A
C377   C997    1.425   1_554 S
C378   H383    1.075   .     S
C378   C379    1.385   .     A
C379   H380    1.082   .     S
C379   C996    1.399   1_554 S
H392   C218    1.086   1_655 S
H394   C566    1.086   .     S
O398   Zn414   1.931   .     S
O398   Zn411   1.963   .     S
O398   Zn412   1.944   .     S
O398   Zn413   1.932   .     S
O399   Zn412   1.934   .     S
O400   Zn414   1.946   .     S
O401   Zn413   1.940   .     S
O402   Zn411   1.930   .     S
O403   Zn411   1.927   .     S
O404   Zn414   1.930   .     S
O405   Zn412   1.925   .     S
O406   Zn413   1.937   .     S
O407   Zn414   1.931   .     S
O408   Zn411   1.921   .     S
O409   Zn412   1.937   .     S
O410   Zn413   1.930   .     S
C415   O476    1.270   .     A
C415   O474    1.271   .     A
C415   C425    1.438   .     S
C416   H453    1.076   .     S
C416   C417    1.384   .     A
C416   C445    1.416   .     A
C417   H466    1.084   .     S
C417   C1040   1.388   .     S
C418   O477    1.279   .     A
C418   C424    1.455   .     S
C418   O475    1.283   .     A
C419   C420    1.421   .     A
C419   C421    1.403   .     A
C419   C1038   1.388   1_554 S
C420   C446    1.428   .     A
C420   C423    1.411   .     A
C421   C422    1.390   .     A
C421   H459    1.084   .     S
C422   C434    1.394   .     A
C422   H465    1.083   .     S
C423   C434    1.392   .     A
C423   H464    1.077   .     S
C424   C494    1.335   .     S
C424   H529    1.088   .     S
C425   C562    1.335   1_455 S
C425   H599    1.086   1_455 S
C426   H450    1.084   .     S
C426   C433    1.397   .     A
C426   C435    1.399   .     A
C427   C430    1.451   .     S
C427   C14     1.331   1_565 S
C427   H48     1.088   1_565 S
C428   C429    1.435   .     S
C429   O478    1.279   .     A
C429   O472    1.279   .     A
C430   O479    1.270   .     A
C430   O473    1.270   .     A
C431   O468    1.273   .     A
C431   O470    1.271   .     A
C431   C434    1.451   .     S
C432   O469    1.281   .     A
C432   C433    1.471   .     S
C432   O471    1.285   .     A
C433   C437    1.393   .     A
C435   C444    1.421   .     A
C435   C436    1.484   .     S
C436   C438    1.405   .     A
C436   C1063   1.406   .     S
C437   C443    1.408   .     A
C437   H451    1.075   .     S
C438   H454    1.083   .     S
C438   C577    1.398   1_455 S
C439   H455    1.082   .     S
C439   C507    1.398   .     S
C439   C1061   1.398   .     S
C440   C441    1.397   .     A
C440   H456    1.082   .     S
C440   C1060   1.398   1_554 S
C441   H457    1.081   .     S
C441   C511    1.399   .     S
C442   H458    1.083   .     S
C442   C1057   1.406   1_554 S
C442   C579    1.399   1_455 S
C443   C444    1.423   .     A
C443   C445    1.429   .     A
C444   C1069   1.399   .     S
C445   C1067   1.425   .     S
C446   C447    1.412   .     A
C446   C1066   1.425   1_554 S
C447   H452    1.075   .     S
C447   C448    1.385   .     A
C448   H449    1.082   .     S
C448   C1065   1.399   1_554 S
H460   C562    1.088   1_455 S
H461   C494    1.086   .     S
H463   C14     1.086   1_565 S
O467   Zn483   1.931   .     S
O467   Zn480   1.963   .     S
O467   Zn481   1.944   .     S
O467   Zn482   1.932   .     S
O468   Zn481   1.934   .     S
O469   Zn483   1.946   .     S
O470   Zn482   1.940   .     S
O471   Zn480   1.930   .     S
O472   Zn480   1.927   .     S
O473   Zn483   1.930   .     S
O474   Zn481   1.925   .     S
O475   Zn482   1.937   .     S
O476   Zn483   1.931   .     S
O477   Zn480   1.921   .     S
O478   Zn481   1.937   .     S
O479   Zn482   1.930   .     S
C484   O545    1.270   .     A
C484   O543    1.271   .     A
C484   C494    1.438   .     S
C485   H522    1.076   .     S
C485   C486    1.384   .     A
C485   C514    1.416   .     A
C486   H535    1.084   .     S
C486   C1109   1.388   .     S
C487   O546    1.279   .     A
C487   C493    1.455   .     S
C487   O544    1.283   .     A
C488   C489    1.421   .     A
C488   C490    1.403   .     A
C488   C1107   1.388   1_554 S
C489   C515    1.428   .     A
C489   C492    1.411   .     A
C490   C491    1.390   .     A
C490   H528    1.084   .     S
C491   C503    1.394   .     A
C491   H534    1.083   .     S
C492   C503    1.392   .     A
C492   H533    1.077   .     S
C493   C563    1.335   .     S
C493   H598    1.088   .     S
C495   H519    1.084   .     S
C495   C502    1.397   .     A
C495   C504    1.399   .     A
C496   C499    1.451   .     S
C496   C83     1.331   1_565 S
C496   H117    1.088   1_565 S
C497   C498    1.435   .     S
C498   O547    1.279   .     A
C498   O541    1.279   .     A
C499   O548    1.270   .     A
C499   O542    1.270   .     A
C500   O537    1.273   .     A
C500   O539    1.271   .     A
C500   C503    1.451   .     S
C501   O538    1.281   .     A
C501   C502    1.471   .     S
C501   O540    1.285   .     A
C502   C506    1.393   .     A
C504   C513    1.421   .     A
C504   C505    1.484   .     S
C505   C507    1.405   .     A
C505   C1132   1.406   .     S
C506   C512    1.408   .     A
C506   H520    1.075   .     S
C507   H523    1.083   .     S
C508   H524    1.082   .     S
C508   C576    1.398   .     S
C508   C1130   1.398   .     S
C509   C510    1.397   .     A
C509   H525    1.082   .     S
C509   C1129   1.398   1_554 S
C510   H526    1.081   .     S
C510   C580    1.399   .     S
C511   H527    1.083   .     S
C511   C1126   1.406   1_554 S
C512   C513    1.423   .     A
C512   C514    1.429   .     A
C513   C1138   1.399   .     S
C514   C1136   1.425   .     S
C515   C516    1.412   .     A
C515   C1135   1.425   1_554 S
C516   H521    1.075   .     S
C516   C517    1.385   .     A
C517   H518    1.082   .     S
C517   C1134   1.399   1_554 S
H530   C563    1.086   .     S
H532   C83     1.086   1_565 S
O536   Zn552   1.931   .     S
O536   Zn549   1.963   .     S
O536   Zn550   1.944   .     S
O536   Zn551   1.932   .     S
O537   Zn550   1.934   .     S
O538   Zn552   1.946   .     S
O539   Zn551   1.940   .     S
O540   Zn549   1.930   .     S
O541   Zn549   1.927   .     S
O542   Zn552   1.930   .     S
O543   Zn550   1.925   .     S
O544   Zn551   1.937   .     S
O545   Zn552   1.931   .     S
O546   Zn549   1.921   .     S
O547   Zn550   1.937   .     S
O548   Zn551   1.930   .     S
C553   O614    1.270   .     A
C553   O612    1.271   .     A
C553   C563    1.438   .     S
C554   H591    1.076   .     S
C554   C555    1.384   .     A
C554   C583    1.416   .     A
C555   H604    1.084   .     S
C555   C1178   1.388   .     S
C556   O615    1.279   .     A
C556   C562    1.455   .     S
C556   O613    1.283   .     A
C557   C558    1.421   .     A
C557   C559    1.403   .     A
C557   C1176   1.388   1_554 S
C558   C584    1.428   .     A
C558   C561    1.411   .     A
C559   C560    1.390   .     A
C559   H597    1.084   .     S
C560   C572    1.394   .     A
C560   H603    1.083   .     S
C561   C572    1.392   .     A
C561   H602    1.077   .     S
C562   C425    1.335   1_655 S
C562   H460    1.088   1_655 S
C564   H588    1.084   .     S
C564   C571    1.397   .     A
C564   C573    1.399   .     A
C565   C568    1.451   .     S
C565   C152    1.331   1_565 S
C565   H186    1.088   1_565 S
C566   C567    1.435   .     S
C567   O616    1.279   .     A
C567   O610    1.279   .     A
C568   O617    1.270   .     A
C568   O611    1.270   .     A
C569   O606    1.273   .     A
C569   O608    1.271   .     A
C569   C572    1.451   .     S
C570   O607    1.281   .     A
C570   C571    1.471   .     S
C570   O609    1.285   .     A
C571   C575    1.393   .     A
C573   C582    1.421   .     A
C573   C574    1.484   .     S
C574   C576    1.405   .     A
C574   C1201   1.406   .     S
C575   C581    1.408   .     A
C575   H589    1.075   .     S
C576   H592    1.083   .     S
C577   H593    1.082   .     S
C577   C438    1.398   1_655 S
C577   C1199   1.398   .     S
C578   C579    1.397   .     A
C578   H594    1.082   .     S
C578   C1198   1.398   1_554 S
C579   H595    1.081   .     S
C579   C442    1.399   1_655 S
C580   H596    1.083   .     S
C580   C1195   1.406   1_554 S
C581   C582    1.423   .     A
C581   C583    1.429   .     A
C582   C1207   1.399   .     S
C583   C1205   1.425   .     S
C584   C585    1.412   .     A
C584   C1204   1.425   1_554 S
C585   H590    1.075   .     S
C585   C586    1.385   .     A
C586   H587    1.082   .     S
C586   C1203   1.399   1_554 S
H599   C425    1.086   1_655 S
H601   C152    1.086   1_565 S
O605   Zn621   1.931   .     S
O605   Zn618   1.963   .     S
O605   Zn619   1.944   .     S
O605   Zn620   1.932   .     S
O606   Zn619   1.934   .     S
O607   Zn621   1.946   .     S
O608   Zn620   1.940   .     S
O609   Zn618   1.930   .     S
O610   Zn618   1.927   .     S
O611   Zn621   1.930   .     S
O612   Zn619   1.925   .     S
O613   Zn620   1.937   .     S
O614   Zn621   1.931   .     S
O615   Zn618   1.921   .     S
O616   Zn619   1.937   .     S
O617   Zn620   1.930   .     S
C622   O683    1.270   .     A
C622   O681    1.271   .     A
C622   C632    1.438   .     S
C623   H660    1.076   .     S
C623   C624    1.384   .     A
C623   C652    1.416   .     A
C624   H673    1.084   .     S
C624   C5      1.388   1_556 S
C625   O684    1.279   .     A
C625   C631    1.455   .     S
C625   O682    1.283   .     A
C626   C627    1.421   .     A
C626   C628    1.403   .     A
C627   C653    1.428   .     A
C627   C630    1.411   .     A
C628   C629    1.390   .     A
C628   H666    1.084   .     S
C629   C641    1.394   .     A
C629   H672    1.083   .     S
C630   C641    1.392   .     A
C630   H671    1.077   .     S
C631   C701    1.335   .     S
C631   H736    1.088   .     S
C632   C769    1.335   1_455 S
C632   H806    1.086   1_455 S
C633   H657    1.084   .     S
C633   C640    1.397   .     A
C633   C642    1.399   .     A
C634   C637    1.451   .     S
C634   C842    1.331   .     S
C634   H876    1.088   .     S
C635   C636    1.435   .     S
C635   C1048   1.331   1_545 S
C635   H1084   1.086   1_545 S
C636   O685    1.279   .     A
C636   O679    1.279   .     A
C637   O686    1.270   .     A
C637   O680    1.270   .     A
C638   O675    1.273   .     A
C638   O677    1.271   .     A
C638   C641    1.451   .     S
C639   O676    1.281   .     A
C639   C640    1.471   .     S
C639   O678    1.285   .     A
C640   C644    1.393   .     A
C642   C651    1.421   .     A
C642   C643    1.484   .     S
C643   C645    1.405   .     A
C643   C28     1.406   1_556 S
C644   C650    1.408   .     A
C644   H658    1.075   .     S
C645   H661    1.083   .     S
C645   C784    1.398   1_455 S
C646   H662    1.082   .     S
C646   C714    1.398   .     S
C646   C26     1.398   1_556 S
C647   C648    1.397   .     A
C647   H663    1.082   .     S
C648   H664    1.081   .     S
C648   C718    1.399   .     S
C649   H665    1.083   .     S
C649   C786    1.399   1_455 S
C650   C651    1.423   .     A
C650   C652    1.429   .     A
C651   C34     1.399   1_556 S
C652   C32     1.425   1_556 S
C653   C654    1.412   .     A
C654   H659    1.075   .     S
C654   C655    1.385   .     A
C655   H656    1.082   .     S
H667   C769    1.088   1_455 S
H668   C701    1.086   .     S
H669   C1048   1.088   1_545 S
H670   C842    1.086   .     S
O674   Zn690   1.931   .     S
O674   Zn687   1.963   .     S
O674   Zn688   1.944   .     S
O674   Zn689   1.932   .     S
O675   Zn688   1.934   .     S
O676   Zn690   1.946   .     S
O677   Zn689   1.940   .     S
O678   Zn687   1.930   .     S
O679   Zn687   1.927   .     S
O680   Zn690   1.930   .     S
O681   Zn688   1.925   .     S
O682   Zn689   1.937   .     S
O683   Zn690   1.931   .     S
O684   Zn687   1.921   .     S
O685   Zn688   1.937   .     S
O686   Zn689   1.930   .     S
C691   O752    1.270   .     A
C691   O750    1.271   .     A
C691   C701    1.438   .     S
C692   H729    1.076   .     S
C692   C693    1.384   .     A
C692   C721    1.416   .     A
C693   H742    1.084   .     S
C693   C74     1.388   1_556 S
C694   O753    1.279   .     A
C694   C700    1.455   .     S
C694   O751    1.283   .     A
C695   C696    1.421   .     A
C695   C697    1.403   .     A
C696   C722    1.428   .     A
C696   C699    1.411   .     A
C697   C698    1.390   .     A
C697   H735    1.084   .     S
C698   C710    1.394   .     A
C698   H741    1.083   .     S
C699   C710    1.392   .     A
C699   H740    1.077   .     S
C700   C770    1.335   .     S
C700   H805    1.088   .     S
C702   H726    1.084   .     S
C702   C709    1.397   .     A
C702   C711    1.399   .     A
C703   C706    1.451   .     S
C703   C911    1.331   .     S
C703   H945    1.088   .     S
C704   C705    1.435   .     S
C704   C1117   1.331   1_545 S
C704   H1153   1.086   1_545 S
C705   O754    1.279   .     A
C705   O748    1.279   .     A
C706   O755    1.270   .     A
C706   O749    1.270   .     A
C707   O744    1.273   .     A
C707   O746    1.271   .     A
C707   C710    1.451   .     S
C708   O745    1.281   .     A
C708   C709    1.471   .     S
C708   O747    1.285   .     A
C709   C713    1.393   .     A
C711   C720    1.421   .     A
C711   C712    1.484   .     S
C712   C714    1.405   .     A
C712   C97     1.406   1_556 S
C713   C719    1.408   .     A
C713   H727    1.075   .     S
C714   H730    1.083   .     S
C715   H731    1.082   .     S
C715   C783    1.398   .     S
C715   C95     1.398   1_556 S
C716   C717    1.397   .     A
C716   H732    1.082   .     S
C717   H733    1.081   .     S
C717   C787    1.399   .     S
C718   H734    1.083   .     S
C719   C720    1.423   .     A
C719   C721    1.429   .     A
C720   C103    1.399   1_556 S
C721   C101    1.425   1_556 S
C722   C723    1.412   .     A
C723   H728    1.075   .     S
C723   C724    1.385   .     A
C724   H725    1.082   .     S
H737   C770    1.086   .     S
H738   C1117   1.088   1_545 S
H739   C911    1.086   .     S
O743   Zn759   1.931   .     S
O743   Zn756   1.963   .     S
O743   Zn757   1.944   .     S
O743   Zn758   1.932   .     S
O744   Zn757   1.934   .     S
O745   Zn759   1.946   .     S
O746   Zn758   1.940   .     S
O747   Zn756   1.930   .     S
O748   Zn756   1.927   .     S
O749   Zn759   1.930   .     S
O750   Zn757   1.925   .     S
O751   Zn758   1.937   .     S
O752   Zn759   1.931   .     S
O753   Zn756   1.921   .     S
O754   Zn757   1.937   .     S
O755   Zn758   1.930   .     S
C760   O821    1.270   .     A
C760   O819    1.271   .     A
C760   C770    1.438   .     S
C761   H798    1.076   .     S
C761   C762    1.384   .     A
C761   C790    1.416   .     A
C762   H811    1.084   .     S
C762   C143    1.388   1_556 S
C763   O822    1.279   .     A
C763   C769    1.455   .     S
C763   O820    1.283   .     A
C764   C765    1.421   .     A
C764   C766    1.403   .     A
C765   C791    1.428   .     A
C765   C768    1.411   .     A
C766   C767    1.390   .     A
C766   H804    1.084   .     S
C767   C779    1.394   .     A
C767   H810    1.083   .     S
C768   C779    1.392   .     A
C768   H809    1.077   .     S
C769   C632    1.335   1_655 S
C769   H667    1.088   1_655 S
C771   H795    1.084   .     S
C771   C778    1.397   .     A
C771   C780    1.399   .     A
C772   C775    1.451   .     S
C772   C980    1.331   .     S
C772   H1014   1.088   .     S
C773   C774    1.435   .     S
C773   C1186   1.331   1_545 S
C773   H1222   1.086   1_545 S
C774   O823    1.279   .     A
C774   O817    1.279   .     A
C775   O824    1.270   .     A
C775   O818    1.270   .     A
C776   O813    1.273   .     A
C776   O815    1.271   .     A
C776   C779    1.451   .     S
C777   O814    1.281   .     A
C777   C778    1.471   .     S
C777   O816    1.285   .     A
C778   C782    1.393   .     A
C780   C789    1.421   .     A
C780   C781    1.484   .     S
C781   C783    1.405   .     A
C781   C166    1.406   1_556 S
C782   C788    1.408   .     A
C782   H796    1.075   .     S
C783   H799    1.083   .     S
C784   H800    1.082   .     S
C784   C645    1.398   1_655 S
C784   C164    1.398   1_556 S
C785   C786    1.397   .     A
C785   H801    1.082   .     S
C786   H802    1.081   .     S
C786   C649    1.399   1_655 S
C787   H803    1.083   .     S
C788   C789    1.423   .     A
C788   C790    1.429   .     A
C789   C172    1.399   1_556 S
C790   C170    1.425   1_556 S
C791   C792    1.412   .     A
C792   H797    1.075   .     S
C792   C793    1.385   .     A
C793   H794    1.082   .     S
H806   C632    1.086   1_655 S
H807   C1186   1.088   1_545 S
H808   C980    1.086   .     S
O812   Zn828   1.931   .     S
O812   Zn825   1.963   .     S
O812   Zn826   1.944   .     S
O812   Zn827   1.932   .     S
O813   Zn826   1.934   .     S
O814   Zn828   1.946   .     S
O815   Zn827   1.940   .     S
O816   Zn825   1.930   .     S
O817   Zn825   1.927   .     S
O818   Zn828   1.930   .     S
O819   Zn826   1.925   .     S
O820   Zn827   1.937   .     S
O821   Zn828   1.931   .     S
O822   Zn825   1.921   .     S
O823   Zn826   1.937   .     S
O824   Zn827   1.930   .     S
C829   O890    1.270   .     A
C829   O888    1.271   .     A
C829   C839    1.438   .     S
C830   H867    1.076   .     S
C830   C831    1.384   .     A
C830   C859    1.416   .     A
C831   H880    1.084   .     S
C831   C212    1.388   1_556 S
C832   O891    1.279   .     A
C832   C838    1.455   .     S
C832   O889    1.283   .     A
C833   C834    1.421   .     A
C833   C835    1.403   .     A
C834   C860    1.428   .     A
C834   C837    1.411   .     A
C835   C836    1.390   .     A
C835   H873    1.084   .     S
C836   C848    1.394   .     A
C836   H879    1.083   .     S
C837   C848    1.392   .     A
C837   H878    1.077   .     S
C838   C908    1.335   .     S
C838   H943    1.088   .     S
C839   C976    1.335   1_455 S
C839   H1013   1.086   1_455 S
C840   H864    1.084   .     S
C840   C847    1.397   .     A
C840   C849    1.399   .     A
C841   C844    1.451   .     S
C841   C1049   1.331   .     S
C841   H1083   1.088   .     S
C842   C843    1.435   .     S
C843   O892    1.279   .     A
C843   O886    1.279   .     A
C844   O893    1.270   .     A
C844   O887    1.270   .     A
C845   O882    1.273   .     A
C845   O884    1.271   .     A
C845   C848    1.451   .     S
C846   O883    1.281   .     A
C846   C847    1.471   .     S
C846   O885    1.285   .     A
C847   C851    1.393   .     A
C849   C858    1.421   .     A
C849   C850    1.484   .     S
C850   C852    1.405   .     A
C850   C235    1.406   1_556 S
C851   C857    1.408   .     A
C851   H865    1.075   .     S
C852   H868    1.083   .     S
C852   C991    1.398   1_455 S
C853   H869    1.082   .     S
C853   C921    1.398   .     S
C853   C233    1.398   1_556 S
C854   C855    1.397   .     A
C854   H870    1.082   .     S
C855   H871    1.081   .     S
C855   C925    1.399   .     S
C856   H872    1.083   .     S
C856   C993    1.399   1_455 S
C857   C858    1.423   .     A
C857   C859    1.429   .     A
C858   C241    1.399   1_556 S
C859   C239    1.425   1_556 S
C860   C861    1.412   .     A
C861   H866    1.075   .     S
C861   C862    1.385   .     A
C862   H863    1.082   .     S
H874   C976    1.088   1_455 S
H875   C908    1.086   .     S
H877   C1049   1.086   .     S
O881   Zn897   1.931   .     S
O881   Zn894   1.963   .     S
O881   Zn895   1.944   .     S
O881   Zn896   1.932   .     S
O882   Zn895   1.934   .     S
O883   Zn897   1.946   .     S
O884   Zn896   1.940   .     S
O885   Zn894   1.930   .     S
O886   Zn894   1.927   .     S
O887   Zn897   1.930   .     S
O888   Zn895   1.925   .     S
O889   Zn896   1.937   .     S
O890   Zn897   1.931   .     S
O891   Zn894   1.921   .     S
O892   Zn895   1.937   .     S
O893   Zn896   1.930   .     S
C898   O959    1.270   .     A
C898   O957    1.271   .     A
C898   C908    1.438   .     S
C899   H936    1.076   .     S
C899   C900    1.384   .     A
C899   C928    1.416   .     A
C900   H949    1.084   .     S
C900   C281    1.388   1_556 S
C901   O960    1.279   .     A
C901   C907    1.455   .     S
C901   O958    1.283   .     A
C902   C903    1.421   .     A
C902   C904    1.403   .     A
C903   C929    1.428   .     A
C903   C906    1.411   .     A
C904   C905    1.390   .     A
C904   H942    1.084   .     S
C905   C917    1.394   .     A
C905   H948    1.083   .     S
C906   C917    1.392   .     A
C906   H947    1.077   .     S
C907   C977    1.335   .     S
C907   H1012   1.088   .     S
C909   H933    1.084   .     S
C909   C916    1.397   .     A
C909   C918    1.399   .     A
C910   C913    1.451   .     S
C910   C1118   1.331   .     S
C910   H1152   1.088   .     S
C911   C912    1.435   .     S
C912   O961    1.279   .     A
C912   O955    1.279   .     A
C913   O962    1.270   .     A
C913   O956    1.270   .     A
C914   O951    1.273   .     A
C914   O953    1.271   .     A
C914   C917    1.451   .     S
C915   O952    1.281   .     A
C915   C916    1.471   .     S
C915   O954    1.285   .     A
C916   C920    1.393   .     A
C918   C927    1.421   .     A
C918   C919    1.484   .     S
C919   C921    1.405   .     A
C919   C304    1.406   1_556 S
C920   C926    1.408   .     A
C920   H934    1.075   .     S
C921   H937    1.083   .     S
C922   H938    1.082   .     S
C922   C990    1.398   .     S
C922   C302    1.398   1_556 S
C923   C924    1.397   .     A
C923   H939    1.082   .     S
C924   H940    1.081   .     S
C924   C994    1.399   .     S
C925   H941    1.083   .     S
C926   C927    1.423   .     A
C926   C928    1.429   .     A
C927   C310    1.399   1_556 S
C928   C308    1.425   1_556 S
C929   C930    1.412   .     A
C930   H935    1.075   .     S
C930   C931    1.385   .     A
C931   H932    1.082   .     S
H944   C977    1.086   .     S
H946   C1118   1.086   .     S
O950   Zn966   1.931   .     S
O950   Zn963   1.963   .     S
O950   Zn964   1.944   .     S
O950   Zn965   1.932   .     S
O951   Zn964   1.934   .     S
O952   Zn966   1.946   .     S
O953   Zn965   1.940   .     S
O954   Zn963   1.930   .     S
O955   Zn963   1.927   .     S
O956   Zn966   1.930   .     S
O957   Zn964   1.925   .     S
O958   Zn965   1.937   .     S
O959   Zn966   1.931   .     S
O960   Zn963   1.921   .     S
O961   Zn964   1.937   .     S
O962   Zn965   1.930   .     S
C967   O1028   1.270   .     A
C967   O1026   1.271   .     A
C967   C977    1.438   .     S
C968   H1005   1.076   .     S
C968   C969    1.384   .     A
C968   C997    1.416   .     A
C969   H1018   1.084   .     S
C969   C350    1.388   1_556 S
C970   O1029   1.279   .     A
C970   C976    1.455   .     S
C970   O1027   1.283   .     A
C971   C972    1.421   .     A
C971   C973    1.403   .     A
C972   C998    1.428   .     A
C972   C975    1.411   .     A
C973   C974    1.390   .     A
C973   H1011   1.084   .     S
C974   C986    1.394   .     A
C974   H1017   1.083   .     S
C975   C986    1.392   .     A
C975   H1016   1.077   .     S
C976   C839    1.335   1_655 S
C976   H874    1.088   1_655 S
C978   H1002   1.084   .     S
C978   C985    1.397   .     A
C978   C987    1.399   .     A
C979   C982    1.451   .     S
C979   C1187   1.331   .     S
C979   H1221   1.088   .     S
C980   C981    1.435   .     S
C981   O1030   1.279   .     A
C981   O1024   1.279   .     A
C982   O1031   1.270   .     A
C982   O1025   1.270   .     A
C983   O1020   1.273   .     A
C983   O1022   1.271   .     A
C983   C986    1.451   .     S
C984   O1021   1.281   .     A
C984   C985    1.471   .     S
C984   O1023   1.285   .     A
C985   C989    1.393   .     A
C987   C996    1.421   .     A
C987   C988    1.484   .     S
C988   C990    1.405   .     A
C988   C373    1.406   1_556 S
C989   C995    1.408   .     A
C989   H1003   1.075   .     S
C990   H1006   1.083   .     S
C991   H1007   1.082   .     S
C991   C852    1.398   1_655 S
C991   C371    1.398   1_556 S
C992   C993    1.397   .     A
C992   H1008   1.082   .     S
C993   H1009   1.081   .     S
C993   C856    1.399   1_655 S
C994   H1010   1.083   .     S
C995   C996    1.423   .     A
C995   C997    1.429   .     A
C996   C379    1.399   1_556 S
C997   C377    1.425   1_556 S
C998   C999    1.412   .     A
C999   H1004   1.075   .     S
C999   C1000   1.385   .     A
C1000  H1001   1.082   .     S
H1013  C839    1.086   1_655 S
H1015  C1187   1.086   .     S
O1019  Zn1035  1.931   .     S
O1019  Zn1032  1.963   .     S
O1019  Zn1033  1.944   .     S
O1019  Zn1034  1.932   .     S
O1020  Zn1033  1.934   .     S
O1021  Zn1035  1.946   .     S
O1022  Zn1034  1.940   .     S
O1023  Zn1032  1.930   .     S
O1024  Zn1032  1.927   .     S
O1025  Zn1035  1.930   .     S
O1026  Zn1033  1.925   .     S
O1027  Zn1034  1.937   .     S
O1028  Zn1035  1.931   .     S
O1029  Zn1032  1.921   .     S
O1030  Zn1033  1.937   .     S
O1031  Zn1034  1.930   .     S
C1036  O1097   1.270   .     A
C1036  O1095   1.271   .     A
C1036  C1046   1.438   .     S
C1037  H1074   1.076   .     S
C1037  C1038   1.384   .     A
C1037  C1066   1.416   .     A
C1038  H1087   1.084   .     S
C1038  C419    1.388   1_556 S
C1039  O1098   1.279   .     A
C1039  C1045   1.455   .     S
C1039  O1096   1.283   .     A
C1040  C1041   1.421   .     A
C1040  C1042   1.403   .     A
C1041  C1067   1.428   .     A
C1041  C1044   1.411   .     A
C1042  C1043   1.390   .     A
C1042  H1080   1.084   .     S
C1043  C1055   1.394   .     A
C1043  H1086   1.083   .     S
C1044  C1055   1.392   .     A
C1044  H1085   1.077   .     S
C1045  C1115   1.335   .     S
C1045  H1150   1.088   .     S
C1046  C1183   1.335   1_455 S
C1046  H1220   1.086   1_455 S
C1047  H1071   1.084   .     S
C1047  C1054   1.397   .     A
C1047  C1056   1.399   .     A
C1048  C1051   1.451   .     S
C1048  C635    1.331   1_565 S
C1048  H669    1.088   1_565 S
C1049  C1050   1.435   .     S
C1050  O1099   1.279   .     A
C1050  O1093   1.279   .     A
C1051  O1100   1.270   .     A
C1051  O1094   1.270   .     A
C1052  O1089   1.273   .     A
C1052  O1091   1.271   .     A
C1052  C1055   1.451   .     S
C1053  O1090   1.281   .     A
C1053  C1054   1.471   .     S
C1053  O1092   1.285   .     A
C1054  C1058   1.393   .     A
C1056  C1065   1.421   .     A
C1056  C1057   1.484   .     S
C1057  C1059   1.405   .     A
C1057  C442    1.406   1_556 S
C1058  C1064   1.408   .     A
C1058  H1072   1.075   .     S
C1059  H1075   1.083   .     S
C1059  C1198   1.398   1_455 S
C1060  H1076   1.082   .     S
C1060  C1128   1.398   .     S
C1060  C440    1.398   1_556 S
C1061  C1062   1.397   .     A
C1061  H1077   1.082   .     S
C1062  H1078   1.081   .     S
C1062  C1132   1.399   .     S
C1063  H1079   1.083   .     S
C1063  C1200   1.399   1_455 S
C1064  C1065   1.423   .     A
C1064  C1066   1.429   .     A
C1065  C448    1.399   1_556 S
C1066  C446    1.425   1_556 S
C1067  C1068   1.412   .     A
C1068  H1073   1.075   .     S
C1068  C1069   1.385   .     A
C1069  H1070   1.082   .     S
H1081  C1183   1.088   1_455 S
H1082  C1115   1.086   .     S
H1084  C635    1.086   1_565 S
O1088  Zn1104  1.931   .     S
O1088  Zn1101  1.963   .     S
O1088  Zn1102  1.944   .     S
O1088  Zn1103  1.932   .     S
O1089  Zn1102  1.934   .     S
O1090  Zn1104  1.946   .     S
O1091  Zn1103  1.940   .     S
O1092  Zn1101  1.930   .     S
O1093  Zn1101  1.927   .     S
O1094  Zn1104  1.930   .     S
O1095  Zn1102  1.925   .     S
O1096  Zn1103  1.937   .     S
O1097  Zn1104  1.931   .     S
O1098  Zn1101  1.921   .     S
O1099  Zn1102  1.937   .     S
O1100  Zn1103  1.930   .     S
C1105  O1166   1.270   .     A
C1105  O1164   1.271   .     A
C1105  C1115   1.438   .     S
C1106  H1143   1.076   .     S
C1106  C1107   1.384   .     A
C1106  C1135   1.416   .     A
C1107  H1156   1.084   .     S
C1107  C488    1.388   1_556 S
C1108  O1167   1.279   .     A
C1108  C1114   1.455   .     S
C1108  O1165   1.283   .     A
C1109  C1110   1.421   .     A
C1109  C1111   1.403   .     A
C1110  C1136   1.428   .     A
C1110  C1113   1.411   .     A
C1111  C1112   1.390   .     A
C1111  H1149   1.084   .     S
C1112  C1124   1.394   .     A
C1112  H1155   1.083   .     S
C1113  C1124   1.392   .     A
C1113  H1154   1.077   .     S
C1114  C1184   1.335   .     S
C1114  H1219   1.088   .     S
C1116  H1140   1.084   .     S
C1116  C1123   1.397   .     A
C1116  C1125   1.399   .     A
C1117  C1120   1.451   .     S
C1117  C704    1.331   1_565 S
C1117  H738    1.088   1_565 S
C1118  C1119   1.435   .     S
C1119  O1168   1.279   .     A
C1119  O1162   1.279   .     A
C1120  O1169   1.270   .     A
C1120  O1163   1.270   .     A
C1121  O1158   1.273   .     A
C1121  O1160   1.271   .     A
C1121  C1124   1.451   .     S
C1122  O1159   1.281   .     A
C1122  C1123   1.471   .     S
C1122  O1161   1.285   .     A
C1123  C1127   1.393   .     A
C1125  C1134   1.421   .     A
C1125  C1126   1.484   .     S
C1126  C1128   1.405   .     A
C1126  C511    1.406   1_556 S
C1127  C1133   1.408   .     A
C1127  H1141   1.075   .     S
C1128  H1144   1.083   .     S
C1129  H1145   1.082   .     S
C1129  C1197   1.398   .     S
C1129  C509    1.398   1_556 S
C1130  C1131   1.397   .     A
C1130  H1146   1.082   .     S
C1131  H1147   1.081   .     S
C1131  C1201   1.399   .     S
C1132  H1148   1.083   .     S
C1133  C1134   1.423   .     A
C1133  C1135   1.429   .     A
C1134  C517    1.399   1_556 S
C1135  C515    1.425   1_556 S
C1136  C1137   1.412   .     A
C1137  H1142   1.075   .     S
C1137  C1138   1.385   .     A
C1138  H1139   1.082   .     S
H1151  C1184   1.086   .     S
H1153  C704    1.086   1_565 S
O1157  Zn1173  1.931   .     S
O1157  Zn1170  1.963   .     S
O1157  Zn1171  1.944   .     S
O1157  Zn1172  1.932   .     S
O1158  Zn1171  1.934   .     S
O1159  Zn1173  1.946   .     S
O1160  Zn1172  1.940   .     S
O1161  Zn1170  1.930   .     S
O1162  Zn1170  1.927   .     S
O1163  Zn1173  1.930   .     S
O1164  Zn1171  1.925   .     S
O1165  Zn1172  1.937   .     S
O1166  Zn1173  1.931   .     S
O1167  Zn1170  1.921   .     S
O1168  Zn1171  1.937   .     S
O1169  Zn1172  1.930   .     S
C1174  O1235   1.270   .     A
C1174  O1233   1.271   .     A
C1174  C1184   1.438   .     S
C1175  H1212   1.076   .     S
C1175  C1176   1.384   .     A
C1175  C1204   1.416   .     A
C1176  H1225   1.084   .     S
C1176  C557    1.388   1_556 S
C1177  O1236   1.279   .     A
C1177  C1183   1.455   .     S
C1177  O1234   1.283   .     A
C1178  C1179   1.421   .     A
C1178  C1180   1.403   .     A
C1179  C1205   1.428   .     A
C1179  C1182   1.411   .     A
C1180  C1181   1.390   .     A
C1180  H1218   1.084   .     S
C1181  C1193   1.394   .     A
C1181  H1224   1.083   .     S
C1182  C1193   1.392   .     A
C1182  H1223   1.077   .     S
C1183  C1046   1.335   1_655 S
C1183  H1081   1.088   1_655 S
C1185  H1209   1.084   .     S
C1185  C1192   1.397   .     A
C1185  C1194   1.399   .     A
C1186  C1189   1.451   .     S
C1186  C773    1.331   1_565 S
C1186  H807    1.088   1_565 S
C1187  C1188   1.435   .     S
C1188  O1237   1.279   .     A
C1188  O1231   1.279   .     A
C1189  O1238   1.270   .     A
C1189  O1232   1.270   .     A
C1190  O1227   1.273   .     A
C1190  O1229   1.271   .     A
C1190  C1193   1.451   .     S
C1191  O1228   1.281   .     A
C1191  C1192   1.471   .     S
C1191  O1230   1.285   .     A
C1192  C1196   1.393   .     A
C1194  C1203   1.421   .     A
C1194  C1195   1.484   .     S
C1195  C1197   1.405   .     A
C1195  C580    1.406   1_556 S
C1196  C1202   1.408   .     A
C1196  H1210   1.075   .     S
C1197  H1213   1.083   .     S
C1198  H1214   1.082   .     S
C1198  C1059   1.398   1_655 S
C1198  C578    1.398   1_556 S
C1199  C1200   1.397   .     A
C1199  H1215   1.082   .     S
C1200  H1216   1.081   .     S
C1200  C1063   1.399   1_655 S
C1201  H1217   1.083   .     S
C1202  C1203   1.423   .     A
C1202  C1204   1.429   .     A
C1203  C586    1.399   1_556 S
C1204  C584    1.425   1_556 S
C1205  C1206   1.412   .     A
C1206  H1211   1.075   .     S
C1206  C1207   1.385   .     A
C1207  H1208   1.082   .     S
H1220  C1046   1.086   1_655 S
H1222  C773    1.086   1_565 S
O1226  Zn1242  1.931   .     S
O1226  Zn1239  1.963   .     S
O1226  Zn1240  1.944   .     S
O1226  Zn1241  1.932   .     S
O1227  Zn1240  1.934   .     S
O1228  Zn1242  1.946   .     S
O1229  Zn1241  1.940   .     S
O1230  Zn1239  1.930   .     S
O1231  Zn1239  1.927   .     S
O1232  Zn1242  1.930   .     S
O1233  Zn1240  1.925   .     S
O1234  Zn1241  1.937   .     S
O1235  Zn1242  1.931   .     S
O1236  Zn1239  1.921   .     S
O1237  Zn1240  1.937   .     S
O1238  Zn1241  1.930   .     S
