data_str_m1_o10_o18_pcu_sym.239
_audit_creation_date              2020-01-03
_audit_creation_method            'Materials Studio'
_symmetry_space_group_name_H-M    'P1'
_symmetry_Int_Tables_number       1
_symmetry_cell_setting            triclinic
loop_
_symmetry_equiv_pos_as_xyz
  x,y,z
_cell_length_a                    32.5466
_cell_length_b                    32.5563
_cell_length_c                    35.4642
_cell_angle_alpha                 98.1026
_cell_angle_beta                  73.2691
_cell_angle_gamma                 98.5674
loop_
_atom_site_label
_atom_site_type_symbol
_atom_site_fract_x
_atom_site_fract_y
_atom_site_fract_z
_atom_site_U_iso_or_equiv
_atom_site_adp_type
_atom_site_occupancy
Zn1    Zn    0.19244   0.14090   0.28277   0.00000  Uiso   1.00
Zn2    Zn    0.13459   0.12378   0.22257   0.00000  Uiso   1.00
Zn3    Zn    0.21166   0.19664   0.21188   0.00000  Uiso   1.00
Zn4    Zn    0.12798   0.20535   0.28277   0.00000  Uiso   1.00
O5     O     0.16667   0.16667   0.25000   0.00000  Uiso   1.00
O6     O     0.06990   0.18960   0.27820   0.00000  Uiso   1.00
O7     O     0.25440   0.15277   0.26767   0.00000  Uiso   1.00
O8     O     0.13800   0.06903   0.23607   0.00000  Uiso   1.00
O9     O     0.20437   0.25527   0.21805   0.00000  Uiso   1.00
O10    O     0.15693   0.12393   0.16625   0.00000  Uiso   1.00
O11    O     0.12687   0.20646   0.33749   0.00000  Uiso   1.00
O12    O     0.21088   0.17493   0.15877   0.00000  Uiso   1.00
O13    O     0.17198   0.16135   0.33749   0.00000  Uiso   1.00
O14    O     0.17849   0.08101   0.27820   0.00000  Uiso   1.00
O15    O     0.14581   0.26136   0.26767   0.00000  Uiso   1.00
O16    O     0.07452   0.13251   0.23607   0.00000  Uiso   1.00
O17    O     0.26785   0.19179   0.21805   0.00000  Uiso   1.00
C18    C     0.05247   0.15979   0.25880   0.00000  Uiso   1.00
C19    C     0.28108   0.17353   0.24123   0.00000  Uiso   1.00
C20    C     0.15600   0.05605   0.25888   0.00000  Uiso   1.00
C21    C     0.17690   0.27768   0.24134   0.00000  Uiso   1.00
C22    C     0.18798   0.14540   0.14389   0.00000  Uiso   1.00
C23    C     0.14557   0.18774   0.35631   0.00000  Uiso   1.00
C24    C     0.13200   0.19147   0.39998   0.00000  Uiso   1.00
C25    C     0.19728   0.13536   0.10105   0.00000  Uiso   1.00
C26    C     0.07312   0.19543   0.45996   0.00000  Uiso   1.00
C27    C     0.08957   0.19942   0.41974   0.00000  Uiso   1.00
C28    C     0.15905   0.18179   0.42158   0.00000  Uiso   1.00
C29    C     0.13942   0.16930   0.46042   0.00000  Uiso   1.00
C30    C     0.09733   0.17961   0.48029   0.00000  Uiso   1.00
C31    C     0.16013   0.14764   0.48042   0.00000  Uiso   1.00
C32    C     0.14505   0.14750   0.02225   0.00000  Uiso   1.00
C33    C     0.10141   0.15572   0.04127   0.00000  Uiso   1.00
C34    C     0.07878   0.17226   0.01979   0.00000  Uiso   1.00
C35    C     0.19258   0.12232   0.45944   0.00000  Uiso   1.00
C36    C     0.21582   0.10472   0.47903   0.00000  Uiso   1.00
C37    C     0.20827   0.11334   0.01991   0.00000  Uiso   1.00
C38    C     0.17354   0.13602   0.04189   0.00000  Uiso   1.00
C39    C     0.23543   0.09998   0.03892   0.00000  Uiso   1.00
C40    C     0.22986   0.11021   0.07961   0.00000  Uiso   1.00
C41    C     0.17077   0.14920   0.08186   0.00000  Uiso   1.00
H42    H     0.04564   0.17846   0.03364   0.00000  Uiso   1.00
H43    H     0.15002   0.17234   0.09798   0.00000  Uiso   1.00
H44    H     0.24091   0.08575   0.46194   0.00000  Uiso   1.00
H45    H     0.04041   0.20239   0.47463   0.00000  Uiso   1.00
H46    H     0.06869   0.20787   0.40389   0.00000  Uiso   1.00
H47    H     0.19844   0.11387   0.42798   0.00000  Uiso   1.00
H48    H     0.26129   0.08177   0.02200   0.00000  Uiso   1.00
C49    C     0.32699   0.17618   0.23768   0.00000  Uiso   1.00
H50    H     0.01663   0.19361   0.21502   0.00000  Uiso   1.00
C51    C     0.00712   0.15725   0.26220   0.00000  Uiso   1.00
H52    H     0.31816   0.13971   0.28510   0.00000  Uiso   1.00
C53    C     0.18101   0.32216   0.23810   0.00000  Uiso   1.00
H54    H     0.20814   0.00278   0.21599   0.00000  Uiso   1.00
C55    C     0.15168   0.01204   0.26214   0.00000  Uiso   1.00
H56    H     0.12415   0.33216   0.28428   0.00000  Uiso   1.00
C57    C     0.25953   0.09422   0.09853   0.00000  Uiso   1.00
H58    H     0.25284   0.10407   0.13072   0.00000  Uiso   1.00
H59    H     0.25592   0.05955   0.09429   0.00000  Uiso   1.00
H60    H     0.29353   0.10600   0.08425   0.00000  Uiso   1.00
C61    C     0.20789   0.19354   0.40595   0.00000  Uiso   1.00
C62    C     0.22638   0.22398   0.43558   0.00000  Uiso   1.00
H63    H     0.20772   0.25132   0.44540   0.00000  Uiso   1.00
H64    H     0.22580   0.20871   0.46178   0.00000  Uiso   1.00
H65    H     0.26052   0.23528   0.42126   0.00000  Uiso   1.00
H66    H     0.22607   0.16611   0.39648   0.00000  Uiso   1.00
H67    H     0.21530   0.21001   0.37899   0.00000  Uiso   1.00
C68    C     0.07435   0.13981   0.08045   0.00000  Uiso   1.00
C69    C     0.07236   0.09246   0.07931   0.00000  Uiso   1.00
H70    H     0.06092   0.07663   0.05370   0.00000  Uiso   1.00
H71    H     0.10438   0.08304   0.07712   0.00000  Uiso   1.00
H72    H     0.04937   0.08188   0.10692   0.00000  Uiso   1.00
H73    H     0.08456   0.15574   0.10635   0.00000  Uiso   1.00
H74    H     0.04042   0.14674   0.08695   0.00000  Uiso   1.00
Zn75   Zn    0.52577   0.14090   0.28277   0.00000  Uiso   1.00
Zn76   Zn    0.46792   0.12378   0.22257   0.00000  Uiso   1.00
Zn77   Zn    0.54500   0.19664   0.21188   0.00000  Uiso   1.00
Zn78   Zn    0.46131   0.20535   0.28277   0.00000  Uiso   1.00
O79    O     0.50000   0.16667   0.25000   0.00000  Uiso   1.00
O80    O     0.40323   0.18960   0.27820   0.00000  Uiso   1.00
O81    O     0.58773   0.15277   0.26767   0.00000  Uiso   1.00
O82    O     0.47133   0.06903   0.23607   0.00000  Uiso   1.00
O83    O     0.53771   0.25527   0.21805   0.00000  Uiso   1.00
O84    O     0.49027   0.12393   0.16625   0.00000  Uiso   1.00
O85    O     0.46020   0.20646   0.33749   0.00000  Uiso   1.00
O86    O     0.54421   0.17493   0.15877   0.00000  Uiso   1.00
O87    O     0.50532   0.16135   0.33749   0.00000  Uiso   1.00
O88    O     0.51182   0.08101   0.27820   0.00000  Uiso   1.00
O89    O     0.47914   0.26136   0.26767   0.00000  Uiso   1.00
O90    O     0.40785   0.13251   0.23607   0.00000  Uiso   1.00
O91    O     0.60119   0.19179   0.21805   0.00000  Uiso   1.00
C92    C     0.38580   0.15979   0.25880   0.00000  Uiso   1.00
C93    C     0.61441   0.17353   0.24123   0.00000  Uiso   1.00
C94    C     0.48933   0.05605   0.25888   0.00000  Uiso   1.00
C95    C     0.51023   0.27768   0.24134   0.00000  Uiso   1.00
C96    C     0.52131   0.14540   0.14389   0.00000  Uiso   1.00
C97    C     0.47891   0.18774   0.35631   0.00000  Uiso   1.00
C98    C     0.46533   0.19147   0.39998   0.00000  Uiso   1.00
C99    C     0.53061   0.13536   0.10105   0.00000  Uiso   1.00
C100   C     0.40646   0.19543   0.45996   0.00000  Uiso   1.00
C101   C     0.42291   0.19942   0.41974   0.00000  Uiso   1.00
C102   C     0.49238   0.18179   0.42158   0.00000  Uiso   1.00
C103   C     0.47276   0.16930   0.46042   0.00000  Uiso   1.00
C104   C     0.43066   0.17961   0.48029   0.00000  Uiso   1.00
C105   C     0.49346   0.14764   0.48042   0.00000  Uiso   1.00
C106   C     0.47839   0.14750   0.02225   0.00000  Uiso   1.00
C107   C     0.43474   0.15572   0.04127   0.00000  Uiso   1.00
C108   C     0.41211   0.17226   0.01979   0.00000  Uiso   1.00
C109   C     0.52591   0.12232   0.45944   0.00000  Uiso   1.00
C110   C     0.54916   0.10472   0.47903   0.00000  Uiso   1.00
C111   C     0.54161   0.11334   0.01991   0.00000  Uiso   1.00
C112   C     0.50687   0.13602   0.04189   0.00000  Uiso   1.00
C113   C     0.56877   0.09998   0.03892   0.00000  Uiso   1.00
C114   C     0.56319   0.11021   0.07961   0.00000  Uiso   1.00
C115   C     0.50410   0.14920   0.08186   0.00000  Uiso   1.00
H116   H     0.37898   0.17846   0.03364   0.00000  Uiso   1.00
H117   H     0.48335   0.17234   0.09798   0.00000  Uiso   1.00
H118   H     0.57424   0.08575   0.46194   0.00000  Uiso   1.00
H119   H     0.37375   0.20239   0.47463   0.00000  Uiso   1.00
H120   H     0.40202   0.20787   0.40389   0.00000  Uiso   1.00
H121   H     0.53178   0.11387   0.42798   0.00000  Uiso   1.00
H122   H     0.59462   0.08177   0.02200   0.00000  Uiso   1.00
C123   C     0.66033   0.17618   0.23768   0.00000  Uiso   1.00
H124   H     0.34996   0.19361   0.21502   0.00000  Uiso   1.00
C125   C     0.34045   0.15725   0.26220   0.00000  Uiso   1.00
H126   H     0.65149   0.13971   0.28510   0.00000  Uiso   1.00
C127   C     0.51435   0.32216   0.23810   0.00000  Uiso   1.00
H128   H     0.54148   0.00278   0.21599   0.00000  Uiso   1.00
C129   C     0.48502   0.01204   0.26214   0.00000  Uiso   1.00
H130   H     0.45749   0.33216   0.28428   0.00000  Uiso   1.00
C131   C     0.59286   0.09422   0.09853   0.00000  Uiso   1.00
H132   H     0.58618   0.10407   0.13072   0.00000  Uiso   1.00
H133   H     0.58925   0.05955   0.09429   0.00000  Uiso   1.00
H134   H     0.62686   0.10600   0.08425   0.00000  Uiso   1.00
C135   C     0.54122   0.19354   0.40595   0.00000  Uiso   1.00
C136   C     0.55972   0.22398   0.43558   0.00000  Uiso   1.00
H137   H     0.54105   0.25132   0.44540   0.00000  Uiso   1.00
H138   H     0.55913   0.20871   0.46178   0.00000  Uiso   1.00
H139   H     0.59385   0.23528   0.42126   0.00000  Uiso   1.00
H140   H     0.55941   0.16611   0.39648   0.00000  Uiso   1.00
H141   H     0.54864   0.21001   0.37899   0.00000  Uiso   1.00
C142   C     0.40769   0.13981   0.08045   0.00000  Uiso   1.00
C143   C     0.40569   0.09246   0.07931   0.00000  Uiso   1.00
H144   H     0.39426   0.07663   0.05370   0.00000  Uiso   1.00
H145   H     0.43772   0.08304   0.07712   0.00000  Uiso   1.00
H146   H     0.38270   0.08188   0.10692   0.00000  Uiso   1.00
H147   H     0.41790   0.15574   0.10635   0.00000  Uiso   1.00
H148   H     0.37375   0.14674   0.08695   0.00000  Uiso   1.00
Zn149  Zn    0.85910   0.14090   0.28277   0.00000  Uiso   1.00
Zn150  Zn    0.80125   0.12378   0.22257   0.00000  Uiso   1.00
Zn151  Zn    0.87833   0.19664   0.21188   0.00000  Uiso   1.00
Zn152  Zn    0.79465   0.20535   0.28277   0.00000  Uiso   1.00
O153   O     0.83333   0.16667   0.25000   0.00000  Uiso   1.00
O154   O     0.73656   0.18960   0.27820   0.00000  Uiso   1.00
O155   O     0.92106   0.15277   0.26767   0.00000  Uiso   1.00
O156   O     0.80467   0.06903   0.23607   0.00000  Uiso   1.00
O157   O     0.87104   0.25527   0.21805   0.00000  Uiso   1.00
O158   O     0.82360   0.12393   0.16625   0.00000  Uiso   1.00
O159   O     0.79354   0.20646   0.33749   0.00000  Uiso   1.00
O160   O     0.87755   0.17493   0.15877   0.00000  Uiso   1.00
O161   O     0.83865   0.16135   0.33749   0.00000  Uiso   1.00
O162   O     0.84515   0.08101   0.27820   0.00000  Uiso   1.00
O163   O     0.81247   0.26136   0.26767   0.00000  Uiso   1.00
O164   O     0.74119   0.13251   0.23607   0.00000  Uiso   1.00
O165   O     0.93452   0.19179   0.21805   0.00000  Uiso   1.00
C166   C     0.71914   0.15979   0.25880   0.00000  Uiso   1.00
C167   C     0.94774   0.17353   0.24123   0.00000  Uiso   1.00
C168   C     0.82266   0.05605   0.25888   0.00000  Uiso   1.00
C169   C     0.84357   0.27768   0.24134   0.00000  Uiso   1.00
C170   C     0.85465   0.14540   0.14389   0.00000  Uiso   1.00
C171   C     0.81224   0.18774   0.35631   0.00000  Uiso   1.00
C172   C     0.79866   0.19147   0.39998   0.00000  Uiso   1.00
C173   C     0.86395   0.13536   0.10105   0.00000  Uiso   1.00
C174   C     0.73979   0.19543   0.45996   0.00000  Uiso   1.00
C175   C     0.75624   0.19942   0.41974   0.00000  Uiso   1.00
C176   C     0.82572   0.18179   0.42158   0.00000  Uiso   1.00
C177   C     0.80609   0.16930   0.46042   0.00000  Uiso   1.00
C178   C     0.76400   0.17961   0.48029   0.00000  Uiso   1.00
C179   C     0.82680   0.14764   0.48042   0.00000  Uiso   1.00
C180   C     0.81172   0.14750   0.02225   0.00000  Uiso   1.00
C181   C     0.76808   0.15572   0.04127   0.00000  Uiso   1.00
C182   C     0.74545   0.17226   0.01979   0.00000  Uiso   1.00
C183   C     0.85925   0.12232   0.45944   0.00000  Uiso   1.00
C184   C     0.88249   0.10472   0.47903   0.00000  Uiso   1.00
C185   C     0.87494   0.11334   0.01991   0.00000  Uiso   1.00
C186   C     0.84020   0.13602   0.04189   0.00000  Uiso   1.00
C187   C     0.90210   0.09998   0.03892   0.00000  Uiso   1.00
C188   C     0.89652   0.11021   0.07961   0.00000  Uiso   1.00
C189   C     0.83743   0.14920   0.08186   0.00000  Uiso   1.00
H190   H     0.71231   0.17846   0.03364   0.00000  Uiso   1.00
H191   H     0.81668   0.17234   0.09798   0.00000  Uiso   1.00
H192   H     0.90758   0.08575   0.46194   0.00000  Uiso   1.00
H193   H     0.70708   0.20239   0.47463   0.00000  Uiso   1.00
H194   H     0.73536   0.20787   0.40389   0.00000  Uiso   1.00
H195   H     0.86511   0.11387   0.42798   0.00000  Uiso   1.00
H196   H     0.92795   0.08177   0.02200   0.00000  Uiso   1.00
C197   C     0.99366   0.17618   0.23768   0.00000  Uiso   1.00
H198   H     0.68330   0.19361   0.21502   0.00000  Uiso   1.00
C199   C     0.67379   0.15725   0.26220   0.00000  Uiso   1.00
H200   H     0.98482   0.13971   0.28510   0.00000  Uiso   1.00
C201   C     0.84768   0.32216   0.23810   0.00000  Uiso   1.00
H202   H     0.87481   0.00278   0.21599   0.00000  Uiso   1.00
C203   C     0.81835   0.01204   0.26214   0.00000  Uiso   1.00
H204   H     0.79082   0.33216   0.28428   0.00000  Uiso   1.00
C205   C     0.92619   0.09422   0.09853   0.00000  Uiso   1.00
H206   H     0.91951   0.10407   0.13072   0.00000  Uiso   1.00
H207   H     0.92258   0.05955   0.09429   0.00000  Uiso   1.00
H208   H     0.96019   0.10600   0.08425   0.00000  Uiso   1.00
C209   C     0.87455   0.19354   0.40595   0.00000  Uiso   1.00
C210   C     0.89305   0.22398   0.43558   0.00000  Uiso   1.00
H211   H     0.87439   0.25132   0.44540   0.00000  Uiso   1.00
H212   H     0.89247   0.20871   0.46178   0.00000  Uiso   1.00
H213   H     0.92718   0.23528   0.42126   0.00000  Uiso   1.00
H214   H     0.89274   0.16611   0.39648   0.00000  Uiso   1.00
H215   H     0.88197   0.21001   0.37899   0.00000  Uiso   1.00
C216   C     0.74102   0.13981   0.08045   0.00000  Uiso   1.00
C217   C     0.73902   0.09246   0.07931   0.00000  Uiso   1.00
H218   H     0.72759   0.07663   0.05370   0.00000  Uiso   1.00
H219   H     0.77105   0.08304   0.07712   0.00000  Uiso   1.00
H220   H     0.71604   0.08188   0.10692   0.00000  Uiso   1.00
H221   H     0.75123   0.15574   0.10635   0.00000  Uiso   1.00
H222   H     0.70708   0.14674   0.08695   0.00000  Uiso   1.00
Zn223  Zn    0.19244   0.47423   0.28277   0.00000  Uiso   1.00
Zn224  Zn    0.13459   0.45711   0.22257   0.00000  Uiso   1.00
Zn225  Zn    0.21166   0.52997   0.21188   0.00000  Uiso   1.00
Zn226  Zn    0.12798   0.53868   0.28277   0.00000  Uiso   1.00
O227   O     0.16667   0.50000   0.25000   0.00000  Uiso   1.00
O228   O     0.06990   0.52293   0.27820   0.00000  Uiso   1.00
O229   O     0.25440   0.48610   0.26767   0.00000  Uiso   1.00
O230   O     0.13800   0.40236   0.23607   0.00000  Uiso   1.00
O231   O     0.20437   0.58860   0.21805   0.00000  Uiso   1.00
O232   O     0.15693   0.45726   0.16625   0.00000  Uiso   1.00
O233   O     0.12687   0.53979   0.33749   0.00000  Uiso   1.00
O234   O     0.21088   0.50826   0.15877   0.00000  Uiso   1.00
O235   O     0.17198   0.49468   0.33749   0.00000  Uiso   1.00
O236   O     0.17849   0.41434   0.27820   0.00000  Uiso   1.00
O237   O     0.14581   0.59469   0.26767   0.00000  Uiso   1.00
O238   O     0.07452   0.46584   0.23607   0.00000  Uiso   1.00
O239   O     0.26785   0.52512   0.21805   0.00000  Uiso   1.00
C240   C     0.05247   0.49313   0.25880   0.00000  Uiso   1.00
C241   C     0.28108   0.50687   0.24123   0.00000  Uiso   1.00
C242   C     0.15600   0.38938   0.25888   0.00000  Uiso   1.00
C243   C     0.17690   0.61101   0.24134   0.00000  Uiso   1.00
C244   C     0.18798   0.47874   0.14389   0.00000  Uiso   1.00
C245   C     0.14557   0.52108   0.35631   0.00000  Uiso   1.00
C246   C     0.13200   0.52480   0.39998   0.00000  Uiso   1.00
C247   C     0.19728   0.46870   0.10105   0.00000  Uiso   1.00
C248   C     0.07312   0.52876   0.45996   0.00000  Uiso   1.00
C249   C     0.08957   0.53275   0.41974   0.00000  Uiso   1.00
C250   C     0.15905   0.51512   0.42158   0.00000  Uiso   1.00
C251   C     0.13942   0.50263   0.46042   0.00000  Uiso   1.00
C252   C     0.09733   0.51294   0.48029   0.00000  Uiso   1.00
C253   C     0.16013   0.48098   0.48042   0.00000  Uiso   1.00
C254   C     0.14505   0.48084   0.02225   0.00000  Uiso   1.00
C255   C     0.10141   0.48905   0.04127   0.00000  Uiso   1.00
C256   C     0.07878   0.50560   0.01979   0.00000  Uiso   1.00
C257   C     0.19258   0.45565   0.45944   0.00000  Uiso   1.00
C258   C     0.21582   0.43806   0.47903   0.00000  Uiso   1.00
C259   C     0.20827   0.44668   0.01991   0.00000  Uiso   1.00
C260   C     0.17354   0.46935   0.04189   0.00000  Uiso   1.00
C261   C     0.23543   0.43331   0.03892   0.00000  Uiso   1.00
C262   C     0.22986   0.44354   0.07961   0.00000  Uiso   1.00
C263   C     0.17077   0.48253   0.08186   0.00000  Uiso   1.00
H264   H     0.04564   0.51179   0.03364   0.00000  Uiso   1.00
H265   H     0.15002   0.50568   0.09798   0.00000  Uiso   1.00
H266   H     0.24091   0.41909   0.46194   0.00000  Uiso   1.00
H267   H     0.04041   0.53573   0.47463   0.00000  Uiso   1.00
H268   H     0.06869   0.54120   0.40389   0.00000  Uiso   1.00
H269   H     0.19844   0.44720   0.42798   0.00000  Uiso   1.00
H270   H     0.26129   0.41511   0.02200   0.00000  Uiso   1.00
C271   C     0.32699   0.50951   0.23768   0.00000  Uiso   1.00
H272   H     0.01663   0.52694   0.21502   0.00000  Uiso   1.00
C273   C     0.00712   0.49058   0.26220   0.00000  Uiso   1.00
H274   H     0.31816   0.47305   0.28510   0.00000  Uiso   1.00
C275   C     0.18101   0.65549   0.23810   0.00000  Uiso   1.00
H276   H     0.20814   0.33612   0.21599   0.00000  Uiso   1.00
C277   C     0.15168   0.34538   0.26214   0.00000  Uiso   1.00
H278   H     0.12415   0.66549   0.28428   0.00000  Uiso   1.00
C279   C     0.25953   0.42755   0.09853   0.00000  Uiso   1.00
H280   H     0.25284   0.43740   0.13072   0.00000  Uiso   1.00
H281   H     0.25592   0.39289   0.09429   0.00000  Uiso   1.00
H282   H     0.29353   0.43934   0.08425   0.00000  Uiso   1.00
C283   C     0.20789   0.52687   0.40595   0.00000  Uiso   1.00
C284   C     0.22638   0.55731   0.43558   0.00000  Uiso   1.00
H285   H     0.20772   0.58465   0.44540   0.00000  Uiso   1.00
H286   H     0.22580   0.54204   0.46178   0.00000  Uiso   1.00
H287   H     0.26052   0.56862   0.42126   0.00000  Uiso   1.00
H288   H     0.22607   0.49945   0.39648   0.00000  Uiso   1.00
H289   H     0.21530   0.54334   0.37899   0.00000  Uiso   1.00
C290   C     0.07435   0.47314   0.08045   0.00000  Uiso   1.00
C291   C     0.07236   0.42579   0.07931   0.00000  Uiso   1.00
H292   H     0.06092   0.40997   0.05370   0.00000  Uiso   1.00
H293   H     0.10438   0.41637   0.07712   0.00000  Uiso   1.00
H294   H     0.04937   0.41521   0.10692   0.00000  Uiso   1.00
H295   H     0.08456   0.48908   0.10635   0.00000  Uiso   1.00
H296   H     0.04042   0.48007   0.08695   0.00000  Uiso   1.00
Zn297  Zn    0.52577   0.47423   0.28277   0.00000  Uiso   1.00
Zn298  Zn    0.46792   0.45711   0.22257   0.00000  Uiso   1.00
Zn299  Zn    0.54500   0.52997   0.21188   0.00000  Uiso   1.00
Zn300  Zn    0.46131   0.53868   0.28277   0.00000  Uiso   1.00
O301   O     0.50000   0.50000   0.25000   0.00000  Uiso   1.00
O302   O     0.40323   0.52293   0.27820   0.00000  Uiso   1.00
O303   O     0.58773   0.48610   0.26767   0.00000  Uiso   1.00
O304   O     0.47133   0.40236   0.23607   0.00000  Uiso   1.00
O305   O     0.53771   0.58860   0.21805   0.00000  Uiso   1.00
O306   O     0.49027   0.45726   0.16625   0.00000  Uiso   1.00
O307   O     0.46020   0.53979   0.33749   0.00000  Uiso   1.00
O308   O     0.54421   0.50826   0.15877   0.00000  Uiso   1.00
O309   O     0.50532   0.49468   0.33749   0.00000  Uiso   1.00
O310   O     0.51182   0.41434   0.27820   0.00000  Uiso   1.00
O311   O     0.47914   0.59469   0.26767   0.00000  Uiso   1.00
O312   O     0.40785   0.46584   0.23607   0.00000  Uiso   1.00
O313   O     0.60119   0.52512   0.21805   0.00000  Uiso   1.00
C314   C     0.38580   0.49313   0.25880   0.00000  Uiso   1.00
C315   C     0.61441   0.50687   0.24123   0.00000  Uiso   1.00
C316   C     0.48933   0.38938   0.25888   0.00000  Uiso   1.00
C317   C     0.51023   0.61101   0.24134   0.00000  Uiso   1.00
C318   C     0.52131   0.47874   0.14389   0.00000  Uiso   1.00
C319   C     0.47891   0.52108   0.35631   0.00000  Uiso   1.00
C320   C     0.46533   0.52480   0.39998   0.00000  Uiso   1.00
C321   C     0.53061   0.46870   0.10105   0.00000  Uiso   1.00
C322   C     0.40646   0.52876   0.45996   0.00000  Uiso   1.00
C323   C     0.42291   0.53275   0.41974   0.00000  Uiso   1.00
C324   C     0.49238   0.51512   0.42158   0.00000  Uiso   1.00
C325   C     0.47276   0.50263   0.46042   0.00000  Uiso   1.00
C326   C     0.43066   0.51294   0.48029   0.00000  Uiso   1.00
C327   C     0.49346   0.48098   0.48042   0.00000  Uiso   1.00
C328   C     0.47839   0.48084   0.02225   0.00000  Uiso   1.00
C329   C     0.43474   0.48905   0.04127   0.00000  Uiso   1.00
C330   C     0.41211   0.50560   0.01979   0.00000  Uiso   1.00
C331   C     0.52591   0.45565   0.45944   0.00000  Uiso   1.00
C332   C     0.54916   0.43806   0.47903   0.00000  Uiso   1.00
C333   C     0.54161   0.44668   0.01991   0.00000  Uiso   1.00
C334   C     0.50687   0.46935   0.04189   0.00000  Uiso   1.00
C335   C     0.56877   0.43331   0.03892   0.00000  Uiso   1.00
C336   C     0.56319   0.44354   0.07961   0.00000  Uiso   1.00
C337   C     0.50410   0.48253   0.08186   0.00000  Uiso   1.00
H338   H     0.37898   0.51179   0.03364   0.00000  Uiso   1.00
H339   H     0.48335   0.50568   0.09798   0.00000  Uiso   1.00
H340   H     0.57424   0.41909   0.46194   0.00000  Uiso   1.00
H341   H     0.37375   0.53573   0.47463   0.00000  Uiso   1.00
H342   H     0.40202   0.54120   0.40389   0.00000  Uiso   1.00
H343   H     0.53178   0.44720   0.42798   0.00000  Uiso   1.00
H344   H     0.59462   0.41511   0.02200   0.00000  Uiso   1.00
C345   C     0.66033   0.50951   0.23768   0.00000  Uiso   1.00
H346   H     0.34996   0.52694   0.21502   0.00000  Uiso   1.00
C347   C     0.34045   0.49058   0.26220   0.00000  Uiso   1.00
H348   H     0.65149   0.47305   0.28510   0.00000  Uiso   1.00
C349   C     0.51435   0.65549   0.23810   0.00000  Uiso   1.00
H350   H     0.54148   0.33612   0.21599   0.00000  Uiso   1.00
C351   C     0.48502   0.34538   0.26214   0.00000  Uiso   1.00
H352   H     0.45749   0.66549   0.28428   0.00000  Uiso   1.00
C353   C     0.59286   0.42755   0.09853   0.00000  Uiso   1.00
H354   H     0.58618   0.43740   0.13072   0.00000  Uiso   1.00
H355   H     0.58925   0.39289   0.09429   0.00000  Uiso   1.00
H356   H     0.62686   0.43934   0.08425   0.00000  Uiso   1.00
C357   C     0.54122   0.52687   0.40595   0.00000  Uiso   1.00
C358   C     0.55972   0.55731   0.43558   0.00000  Uiso   1.00
H359   H     0.54105   0.58465   0.44540   0.00000  Uiso   1.00
H360   H     0.55913   0.54204   0.46178   0.00000  Uiso   1.00
H361   H     0.59385   0.56862   0.42126   0.00000  Uiso   1.00
H362   H     0.55941   0.49945   0.39648   0.00000  Uiso   1.00
H363   H     0.54864   0.54334   0.37899   0.00000  Uiso   1.00
C364   C     0.40769   0.47314   0.08045   0.00000  Uiso   1.00
C365   C     0.40569   0.42579   0.07931   0.00000  Uiso   1.00
H366   H     0.39426   0.40997   0.05370   0.00000  Uiso   1.00
H367   H     0.43772   0.41637   0.07712   0.00000  Uiso   1.00
H368   H     0.38270   0.41521   0.10692   0.00000  Uiso   1.00
H369   H     0.41790   0.48908   0.10635   0.00000  Uiso   1.00
H370   H     0.37375   0.48007   0.08695   0.00000  Uiso   1.00
Zn371  Zn    0.85910   0.47423   0.28277   0.00000  Uiso   1.00
Zn372  Zn    0.80125   0.45711   0.22257   0.00000  Uiso   1.00
Zn373  Zn    0.87833   0.52997   0.21188   0.00000  Uiso   1.00
Zn374  Zn    0.79465   0.53868   0.28277   0.00000  Uiso   1.00
O375   O     0.83333   0.50000   0.25000   0.00000  Uiso   1.00
O376   O     0.73656   0.52293   0.27820   0.00000  Uiso   1.00
O377   O     0.92106   0.48610   0.26767   0.00000  Uiso   1.00
O378   O     0.80467   0.40236   0.23607   0.00000  Uiso   1.00
O379   O     0.87104   0.58860   0.21805   0.00000  Uiso   1.00
O380   O     0.82360   0.45726   0.16625   0.00000  Uiso   1.00
O381   O     0.79354   0.53979   0.33749   0.00000  Uiso   1.00
O382   O     0.87755   0.50826   0.15877   0.00000  Uiso   1.00
O383   O     0.83865   0.49468   0.33749   0.00000  Uiso   1.00
O384   O     0.84515   0.41434   0.27820   0.00000  Uiso   1.00
O385   O     0.81247   0.59469   0.26767   0.00000  Uiso   1.00
O386   O     0.74119   0.46584   0.23607   0.00000  Uiso   1.00
O387   O     0.93452   0.52512   0.21805   0.00000  Uiso   1.00
C388   C     0.71914   0.49313   0.25880   0.00000  Uiso   1.00
C389   C     0.94774   0.50687   0.24123   0.00000  Uiso   1.00
C390   C     0.82266   0.38938   0.25888   0.00000  Uiso   1.00
C391   C     0.84357   0.61101   0.24134   0.00000  Uiso   1.00
C392   C     0.85465   0.47874   0.14389   0.00000  Uiso   1.00
C393   C     0.81224   0.52108   0.35631   0.00000  Uiso   1.00
C394   C     0.79866   0.52480   0.39998   0.00000  Uiso   1.00
C395   C     0.86395   0.46870   0.10105   0.00000  Uiso   1.00
C396   C     0.73979   0.52876   0.45996   0.00000  Uiso   1.00
C397   C     0.75624   0.53275   0.41974   0.00000  Uiso   1.00
C398   C     0.82572   0.51512   0.42158   0.00000  Uiso   1.00
C399   C     0.80609   0.50263   0.46042   0.00000  Uiso   1.00
C400   C     0.76400   0.51294   0.48029   0.00000  Uiso   1.00
C401   C     0.82680   0.48098   0.48042   0.00000  Uiso   1.00
C402   C     0.81172   0.48084   0.02225   0.00000  Uiso   1.00
C403   C     0.76808   0.48905   0.04127   0.00000  Uiso   1.00
C404   C     0.74545   0.50560   0.01979   0.00000  Uiso   1.00
C405   C     0.85925   0.45565   0.45944   0.00000  Uiso   1.00
C406   C     0.88249   0.43806   0.47903   0.00000  Uiso   1.00
C407   C     0.87494   0.44668   0.01991   0.00000  Uiso   1.00
C408   C     0.84020   0.46935   0.04189   0.00000  Uiso   1.00
C409   C     0.90210   0.43331   0.03892   0.00000  Uiso   1.00
C410   C     0.89652   0.44354   0.07961   0.00000  Uiso   1.00
C411   C     0.83743   0.48253   0.08186   0.00000  Uiso   1.00
H412   H     0.71231   0.51179   0.03364   0.00000  Uiso   1.00
H413   H     0.81668   0.50568   0.09798   0.00000  Uiso   1.00
H414   H     0.90758   0.41909   0.46194   0.00000  Uiso   1.00
H415   H     0.70708   0.53573   0.47463   0.00000  Uiso   1.00
H416   H     0.73536   0.54120   0.40389   0.00000  Uiso   1.00
H417   H     0.86511   0.44720   0.42798   0.00000  Uiso   1.00
H418   H     0.92795   0.41511   0.02200   0.00000  Uiso   1.00
C419   C     0.99366   0.50951   0.23768   0.00000  Uiso   1.00
H420   H     0.68330   0.52694   0.21502   0.00000  Uiso   1.00
C421   C     0.67379   0.49058   0.26220   0.00000  Uiso   1.00
H422   H     0.98482   0.47305   0.28510   0.00000  Uiso   1.00
C423   C     0.84768   0.65549   0.23810   0.00000  Uiso   1.00
H424   H     0.87481   0.33612   0.21599   0.00000  Uiso   1.00
C425   C     0.81835   0.34538   0.26214   0.00000  Uiso   1.00
H426   H     0.79082   0.66549   0.28428   0.00000  Uiso   1.00
C427   C     0.92619   0.42755   0.09853   0.00000  Uiso   1.00
H428   H     0.91951   0.43740   0.13072   0.00000  Uiso   1.00
H429   H     0.92258   0.39289   0.09429   0.00000  Uiso   1.00
H430   H     0.96019   0.43934   0.08425   0.00000  Uiso   1.00
C431   C     0.87455   0.52687   0.40595   0.00000  Uiso   1.00
C432   C     0.89305   0.55731   0.43558   0.00000  Uiso   1.00
H433   H     0.87439   0.58465   0.44540   0.00000  Uiso   1.00
H434   H     0.89247   0.54204   0.46178   0.00000  Uiso   1.00
H435   H     0.92718   0.56862   0.42126   0.00000  Uiso   1.00
H436   H     0.89274   0.49945   0.39648   0.00000  Uiso   1.00
H437   H     0.88197   0.54334   0.37899   0.00000  Uiso   1.00
C438   C     0.74102   0.47314   0.08045   0.00000  Uiso   1.00
C439   C     0.73902   0.42579   0.07931   0.00000  Uiso   1.00
H440   H     0.72759   0.40997   0.05370   0.00000  Uiso   1.00
H441   H     0.77105   0.41637   0.07712   0.00000  Uiso   1.00
H442   H     0.71604   0.41521   0.10692   0.00000  Uiso   1.00
H443   H     0.75123   0.48908   0.10635   0.00000  Uiso   1.00
H444   H     0.70708   0.48007   0.08695   0.00000  Uiso   1.00
Zn445  Zn    0.19244   0.80756   0.28277   0.00000  Uiso   1.00
Zn446  Zn    0.13459   0.79044   0.22257   0.00000  Uiso   1.00
Zn447  Zn    0.21166   0.86331   0.21188   0.00000  Uiso   1.00
Zn448  Zn    0.12798   0.87202   0.28277   0.00000  Uiso   1.00
O449   O     0.16667   0.83333   0.25000   0.00000  Uiso   1.00
O450   O     0.06990   0.85627   0.27820   0.00000  Uiso   1.00
O451   O     0.25440   0.81944   0.26767   0.00000  Uiso   1.00
O452   O     0.13800   0.73570   0.23607   0.00000  Uiso   1.00
O453   O     0.20437   0.92193   0.21805   0.00000  Uiso   1.00
O454   O     0.15693   0.79060   0.16625   0.00000  Uiso   1.00
O455   O     0.12687   0.87313   0.33749   0.00000  Uiso   1.00
O456   O     0.21088   0.84159   0.15877   0.00000  Uiso   1.00
O457   O     0.17198   0.82802   0.33749   0.00000  Uiso   1.00
O458   O     0.17849   0.74768   0.27820   0.00000  Uiso   1.00
O459   O     0.14581   0.92803   0.26767   0.00000  Uiso   1.00
O460   O     0.07452   0.79917   0.23607   0.00000  Uiso   1.00
O461   O     0.26785   0.85845   0.21805   0.00000  Uiso   1.00
C462   C     0.05247   0.82646   0.25880   0.00000  Uiso   1.00
C463   C     0.28108   0.84020   0.24123   0.00000  Uiso   1.00
C464   C     0.15600   0.72271   0.25888   0.00000  Uiso   1.00
C465   C     0.17690   0.94435   0.24134   0.00000  Uiso   1.00
C466   C     0.18798   0.81207   0.14389   0.00000  Uiso   1.00
C467   C     0.14557   0.85441   0.35631   0.00000  Uiso   1.00
C468   C     0.13200   0.85813   0.39998   0.00000  Uiso   1.00
C469   C     0.19728   0.80203   0.10105   0.00000  Uiso   1.00
C470   C     0.07312   0.86210   0.45996   0.00000  Uiso   1.00
C471   C     0.08957   0.86608   0.41974   0.00000  Uiso   1.00
C472   C     0.15905   0.84846   0.42158   0.00000  Uiso   1.00
C473   C     0.13942   0.83597   0.46042   0.00000  Uiso   1.00
C474   C     0.09733   0.84628   0.48029   0.00000  Uiso   1.00
C475   C     0.16013   0.81431   0.48042   0.00000  Uiso   1.00
C476   C     0.14505   0.81417   0.02225   0.00000  Uiso   1.00
C477   C     0.10141   0.82239   0.04127   0.00000  Uiso   1.00
C478   C     0.07878   0.83893   0.01979   0.00000  Uiso   1.00
C479   C     0.19258   0.78899   0.45944   0.00000  Uiso   1.00
C480   C     0.21582   0.77139   0.47903   0.00000  Uiso   1.00
C481   C     0.20827   0.78001   0.01991   0.00000  Uiso   1.00
C482   C     0.17354   0.80269   0.04189   0.00000  Uiso   1.00
C483   C     0.23543   0.76665   0.03892   0.00000  Uiso   1.00
C484   C     0.22986   0.77687   0.07961   0.00000  Uiso   1.00
C485   C     0.17077   0.81586   0.08186   0.00000  Uiso   1.00
H486   H     0.04564   0.84512   0.03364   0.00000  Uiso   1.00
H487   H     0.15002   0.83901   0.09798   0.00000  Uiso   1.00
H488   H     0.24091   0.75242   0.46194   0.00000  Uiso   1.00
H489   H     0.04041   0.86906   0.47463   0.00000  Uiso   1.00
H490   H     0.06869   0.87454   0.40389   0.00000  Uiso   1.00
H491   H     0.19844   0.78054   0.42798   0.00000  Uiso   1.00
H492   H     0.26129   0.74844   0.02200   0.00000  Uiso   1.00
C493   C     0.32699   0.84285   0.23768   0.00000  Uiso   1.00
H494   H     0.01663   0.86027   0.21502   0.00000  Uiso   1.00
C495   C     0.00712   0.82392   0.26220   0.00000  Uiso   1.00
H496   H     0.31816   0.80638   0.28510   0.00000  Uiso   1.00
C497   C     0.18101   0.98882   0.23810   0.00000  Uiso   1.00
H498   H     0.20814   0.66945   0.21599   0.00000  Uiso   1.00
C499   C     0.15168   0.67871   0.26214   0.00000  Uiso   1.00
H500   H     0.12415   0.99882   0.28428   0.00000  Uiso   1.00
C501   C     0.25953   0.76089   0.09853   0.00000  Uiso   1.00
H502   H     0.25284   0.77074   0.13072   0.00000  Uiso   1.00
H503   H     0.25592   0.72622   0.09429   0.00000  Uiso   1.00
H504   H     0.29353   0.77267   0.08425   0.00000  Uiso   1.00
C505   C     0.20789   0.86021   0.40595   0.00000  Uiso   1.00
C506   C     0.22638   0.89065   0.43558   0.00000  Uiso   1.00
H507   H     0.20772   0.91799   0.44540   0.00000  Uiso   1.00
H508   H     0.22580   0.87537   0.46178   0.00000  Uiso   1.00
H509   H     0.26052   0.90195   0.42126   0.00000  Uiso   1.00
H510   H     0.22607   0.83278   0.39648   0.00000  Uiso   1.00
H511   H     0.21530   0.87668   0.37899   0.00000  Uiso   1.00
C512   C     0.07435   0.80648   0.08045   0.00000  Uiso   1.00
C513   C     0.07236   0.75913   0.07931   0.00000  Uiso   1.00
H514   H     0.06092   0.74330   0.05370   0.00000  Uiso   1.00
H515   H     0.10438   0.74970   0.07712   0.00000  Uiso   1.00
H516   H     0.04937   0.74854   0.10692   0.00000  Uiso   1.00
H517   H     0.08456   0.82241   0.10635   0.00000  Uiso   1.00
H518   H     0.04042   0.81340   0.08695   0.00000  Uiso   1.00
Zn519  Zn    0.52577   0.80756   0.28277   0.00000  Uiso   1.00
Zn520  Zn    0.46792   0.79044   0.22257   0.00000  Uiso   1.00
Zn521  Zn    0.54500   0.86331   0.21188   0.00000  Uiso   1.00
Zn522  Zn    0.46131   0.87202   0.28277   0.00000  Uiso   1.00
O523   O     0.50000   0.83333   0.25000   0.00000  Uiso   1.00
O524   O     0.40323   0.85627   0.27820   0.00000  Uiso   1.00
O525   O     0.58773   0.81944   0.26767   0.00000  Uiso   1.00
O526   O     0.47133   0.73570   0.23607   0.00000  Uiso   1.00
O527   O     0.53771   0.92193   0.21805   0.00000  Uiso   1.00
O528   O     0.49027   0.79060   0.16625   0.00000  Uiso   1.00
O529   O     0.46020   0.87313   0.33749   0.00000  Uiso   1.00
O530   O     0.54421   0.84159   0.15877   0.00000  Uiso   1.00
O531   O     0.50532   0.82802   0.33749   0.00000  Uiso   1.00
O532   O     0.51182   0.74768   0.27820   0.00000  Uiso   1.00
O533   O     0.47914   0.92803   0.26767   0.00000  Uiso   1.00
O534   O     0.40785   0.79917   0.23607   0.00000  Uiso   1.00
O535   O     0.60119   0.85845   0.21805   0.00000  Uiso   1.00
C536   C     0.38580   0.82646   0.25880   0.00000  Uiso   1.00
C537   C     0.61441   0.84020   0.24123   0.00000  Uiso   1.00
C538   C     0.48933   0.72271   0.25888   0.00000  Uiso   1.00
C539   C     0.51023   0.94435   0.24134   0.00000  Uiso   1.00
C540   C     0.52131   0.81207   0.14389   0.00000  Uiso   1.00
C541   C     0.47891   0.85441   0.35631   0.00000  Uiso   1.00
C542   C     0.46533   0.85813   0.39998   0.00000  Uiso   1.00
C543   C     0.53061   0.80203   0.10105   0.00000  Uiso   1.00
C544   C     0.40646   0.86210   0.45996   0.00000  Uiso   1.00
C545   C     0.42291   0.86608   0.41974   0.00000  Uiso   1.00
C546   C     0.49238   0.84846   0.42158   0.00000  Uiso   1.00
C547   C     0.47276   0.83597   0.46042   0.00000  Uiso   1.00
C548   C     0.43066   0.84628   0.48029   0.00000  Uiso   1.00
C549   C     0.49346   0.81431   0.48042   0.00000  Uiso   1.00
C550   C     0.47839   0.81417   0.02225   0.00000  Uiso   1.00
C551   C     0.43474   0.82239   0.04127   0.00000  Uiso   1.00
C552   C     0.41211   0.83893   0.01979   0.00000  Uiso   1.00
C553   C     0.52591   0.78899   0.45944   0.00000  Uiso   1.00
C554   C     0.54916   0.77139   0.47903   0.00000  Uiso   1.00
C555   C     0.54161   0.78001   0.01991   0.00000  Uiso   1.00
C556   C     0.50687   0.80269   0.04189   0.00000  Uiso   1.00
C557   C     0.56877   0.76665   0.03892   0.00000  Uiso   1.00
C558   C     0.56319   0.77687   0.07961   0.00000  Uiso   1.00
C559   C     0.50410   0.81586   0.08186   0.00000  Uiso   1.00
H560   H     0.37898   0.84512   0.03364   0.00000  Uiso   1.00
H561   H     0.48335   0.83901   0.09798   0.00000  Uiso   1.00
H562   H     0.57424   0.75242   0.46194   0.00000  Uiso   1.00
H563   H     0.37375   0.86906   0.47463   0.00000  Uiso   1.00
H564   H     0.40202   0.87454   0.40389   0.00000  Uiso   1.00
H565   H     0.53178   0.78054   0.42798   0.00000  Uiso   1.00
H566   H     0.59462   0.74844   0.02200   0.00000  Uiso   1.00
C567   C     0.66033   0.84285   0.23768   0.00000  Uiso   1.00
H568   H     0.34996   0.86027   0.21502   0.00000  Uiso   1.00
C569   C     0.34045   0.82392   0.26220   0.00000  Uiso   1.00
H570   H     0.65149   0.80638   0.28510   0.00000  Uiso   1.00
C571   C     0.51435   0.98882   0.23810   0.00000  Uiso   1.00
H572   H     0.54148   0.66945   0.21599   0.00000  Uiso   1.00
C573   C     0.48502   0.67871   0.26214   0.00000  Uiso   1.00
H574   H     0.45749   0.99882   0.28428   0.00000  Uiso   1.00
C575   C     0.59286   0.76089   0.09853   0.00000  Uiso   1.00
H576   H     0.58618   0.77074   0.13072   0.00000  Uiso   1.00
H577   H     0.58925   0.72622   0.09429   0.00000  Uiso   1.00
H578   H     0.62686   0.77267   0.08425   0.00000  Uiso   1.00
C579   C     0.54122   0.86021   0.40595   0.00000  Uiso   1.00
C580   C     0.55972   0.89065   0.43558   0.00000  Uiso   1.00
H581   H     0.54105   0.91799   0.44540   0.00000  Uiso   1.00
H582   H     0.55913   0.87537   0.46178   0.00000  Uiso   1.00
H583   H     0.59385   0.90195   0.42126   0.00000  Uiso   1.00
H584   H     0.55941   0.83278   0.39648   0.00000  Uiso   1.00
H585   H     0.54864   0.87668   0.37899   0.00000  Uiso   1.00
C586   C     0.40769   0.80648   0.08045   0.00000  Uiso   1.00
C587   C     0.40569   0.75913   0.07931   0.00000  Uiso   1.00
H588   H     0.39426   0.74330   0.05370   0.00000  Uiso   1.00
H589   H     0.43772   0.74970   0.07712   0.00000  Uiso   1.00
H590   H     0.38270   0.74854   0.10692   0.00000  Uiso   1.00
H591   H     0.41790   0.82241   0.10635   0.00000  Uiso   1.00
H592   H     0.37375   0.81340   0.08695   0.00000  Uiso   1.00
Zn593  Zn    0.85910   0.80756   0.28277   0.00000  Uiso   1.00
Zn594  Zn    0.80125   0.79044   0.22257   0.00000  Uiso   1.00
Zn595  Zn    0.87833   0.86331   0.21188   0.00000  Uiso   1.00
Zn596  Zn    0.79465   0.87202   0.28277   0.00000  Uiso   1.00
O597   O     0.83333   0.83333   0.25000   0.00000  Uiso   1.00
O598   O     0.73656   0.85627   0.27820   0.00000  Uiso   1.00
O599   O     0.92106   0.81944   0.26767   0.00000  Uiso   1.00
O600   O     0.80467   0.73570   0.23607   0.00000  Uiso   1.00
O601   O     0.87104   0.92193   0.21805   0.00000  Uiso   1.00
O602   O     0.82360   0.79060   0.16625   0.00000  Uiso   1.00
O603   O     0.79354   0.87313   0.33749   0.00000  Uiso   1.00
O604   O     0.87755   0.84159   0.15877   0.00000  Uiso   1.00
O605   O     0.83865   0.82802   0.33749   0.00000  Uiso   1.00
O606   O     0.84515   0.74768   0.27820   0.00000  Uiso   1.00
O607   O     0.81247   0.92803   0.26767   0.00000  Uiso   1.00
O608   O     0.74119   0.79917   0.23607   0.00000  Uiso   1.00
O609   O     0.93452   0.85845   0.21805   0.00000  Uiso   1.00
C610   C     0.71914   0.82646   0.25880   0.00000  Uiso   1.00
C611   C     0.94774   0.84020   0.24123   0.00000  Uiso   1.00
C612   C     0.82266   0.72271   0.25888   0.00000  Uiso   1.00
C613   C     0.84357   0.94435   0.24134   0.00000  Uiso   1.00
C614   C     0.85465   0.81207   0.14389   0.00000  Uiso   1.00
C615   C     0.81224   0.85441   0.35631   0.00000  Uiso   1.00
C616   C     0.79866   0.85813   0.39998   0.00000  Uiso   1.00
C617   C     0.86395   0.80203   0.10105   0.00000  Uiso   1.00
C618   C     0.73979   0.86210   0.45996   0.00000  Uiso   1.00
C619   C     0.75624   0.86608   0.41974   0.00000  Uiso   1.00
C620   C     0.82572   0.84846   0.42158   0.00000  Uiso   1.00
C621   C     0.80609   0.83597   0.46042   0.00000  Uiso   1.00
C622   C     0.76400   0.84628   0.48029   0.00000  Uiso   1.00
C623   C     0.82680   0.81431   0.48042   0.00000  Uiso   1.00
C624   C     0.81172   0.81417   0.02225   0.00000  Uiso   1.00
C625   C     0.76808   0.82239   0.04127   0.00000  Uiso   1.00
C626   C     0.74545   0.83893   0.01979   0.00000  Uiso   1.00
C627   C     0.85925   0.78899   0.45944   0.00000  Uiso   1.00
C628   C     0.88249   0.77139   0.47903   0.00000  Uiso   1.00
C629   C     0.87494   0.78001   0.01991   0.00000  Uiso   1.00
C630   C     0.84020   0.80269   0.04189   0.00000  Uiso   1.00
C631   C     0.90210   0.76665   0.03892   0.00000  Uiso   1.00
C632   C     0.89652   0.77687   0.07961   0.00000  Uiso   1.00
C633   C     0.83743   0.81586   0.08186   0.00000  Uiso   1.00
H634   H     0.71231   0.84512   0.03364   0.00000  Uiso   1.00
H635   H     0.81668   0.83901   0.09798   0.00000  Uiso   1.00
H636   H     0.90758   0.75242   0.46194   0.00000  Uiso   1.00
H637   H     0.70708   0.86906   0.47463   0.00000  Uiso   1.00
H638   H     0.73536   0.87454   0.40389   0.00000  Uiso   1.00
H639   H     0.86511   0.78054   0.42798   0.00000  Uiso   1.00
H640   H     0.92795   0.74844   0.02200   0.00000  Uiso   1.00
C641   C     0.99366   0.84285   0.23768   0.00000  Uiso   1.00
H642   H     0.68330   0.86027   0.21502   0.00000  Uiso   1.00
C643   C     0.67379   0.82392   0.26220   0.00000  Uiso   1.00
H644   H     0.98482   0.80638   0.28510   0.00000  Uiso   1.00
C645   C     0.84768   0.98882   0.23810   0.00000  Uiso   1.00
H646   H     0.87481   0.66945   0.21599   0.00000  Uiso   1.00
C647   C     0.81835   0.67871   0.26214   0.00000  Uiso   1.00
H648   H     0.79082   0.99882   0.28428   0.00000  Uiso   1.00
C649   C     0.92619   0.76089   0.09853   0.00000  Uiso   1.00
H650   H     0.91951   0.77074   0.13072   0.00000  Uiso   1.00
H651   H     0.92258   0.72622   0.09429   0.00000  Uiso   1.00
H652   H     0.96019   0.77267   0.08425   0.00000  Uiso   1.00
C653   C     0.87455   0.86021   0.40595   0.00000  Uiso   1.00
C654   C     0.89305   0.89065   0.43558   0.00000  Uiso   1.00
H655   H     0.87439   0.91799   0.44540   0.00000  Uiso   1.00
H656   H     0.89247   0.87537   0.46178   0.00000  Uiso   1.00
H657   H     0.92718   0.90195   0.42126   0.00000  Uiso   1.00
H658   H     0.89274   0.83278   0.39648   0.00000  Uiso   1.00
H659   H     0.88197   0.87668   0.37899   0.00000  Uiso   1.00
C660   C     0.74102   0.80648   0.08045   0.00000  Uiso   1.00
C661   C     0.73902   0.75913   0.07931   0.00000  Uiso   1.00
H662   H     0.72759   0.74330   0.05370   0.00000  Uiso   1.00
H663   H     0.77105   0.74970   0.07712   0.00000  Uiso   1.00
H664   H     0.71604   0.74854   0.10692   0.00000  Uiso   1.00
H665   H     0.75123   0.82241   0.10635   0.00000  Uiso   1.00
H666   H     0.70708   0.81340   0.08695   0.00000  Uiso   1.00
Zn667  Zn    0.19244   0.14090   0.78277   0.00000  Uiso   1.00
Zn668  Zn    0.13459   0.12378   0.72257   0.00000  Uiso   1.00
Zn669  Zn    0.21166   0.19664   0.71188   0.00000  Uiso   1.00
Zn670  Zn    0.12798   0.20535   0.78277   0.00000  Uiso   1.00
O671   O     0.16667   0.16667   0.75000   0.00000  Uiso   1.00
O672   O     0.06990   0.18960   0.77820   0.00000  Uiso   1.00
O673   O     0.25440   0.15277   0.76767   0.00000  Uiso   1.00
O674   O     0.13800   0.06903   0.73607   0.00000  Uiso   1.00
O675   O     0.20437   0.25527   0.71805   0.00000  Uiso   1.00
O676   O     0.15693   0.12393   0.66625   0.00000  Uiso   1.00
O677   O     0.12687   0.20646   0.83749   0.00000  Uiso   1.00
O678   O     0.21088   0.17493   0.65877   0.00000  Uiso   1.00
O679   O     0.17198   0.16135   0.83749   0.00000  Uiso   1.00
O680   O     0.17849   0.08101   0.77820   0.00000  Uiso   1.00
O681   O     0.14581   0.26136   0.76767   0.00000  Uiso   1.00
O682   O     0.07452   0.13251   0.73607   0.00000  Uiso   1.00
O683   O     0.26785   0.19179   0.71805   0.00000  Uiso   1.00
C684   C     0.05247   0.15979   0.75880   0.00000  Uiso   1.00
C685   C     0.28108   0.17353   0.74123   0.00000  Uiso   1.00
C686   C     0.15600   0.05605   0.75888   0.00000  Uiso   1.00
C687   C     0.17690   0.27768   0.74134   0.00000  Uiso   1.00
C688   C     0.18798   0.14540   0.64389   0.00000  Uiso   1.00
C689   C     0.14557   0.18774   0.85631   0.00000  Uiso   1.00
C690   C     0.13200   0.19147   0.89998   0.00000  Uiso   1.00
C691   C     0.19728   0.13536   0.60105   0.00000  Uiso   1.00
C692   C     0.07312   0.19543   0.95996   0.00000  Uiso   1.00
C693   C     0.08957   0.19942   0.91974   0.00000  Uiso   1.00
C694   C     0.15905   0.18179   0.92158   0.00000  Uiso   1.00
C695   C     0.13942   0.16930   0.96042   0.00000  Uiso   1.00
C696   C     0.09733   0.17961   0.98029   0.00000  Uiso   1.00
C697   C     0.16013   0.14764   0.98042   0.00000  Uiso   1.00
C698   C     0.14505   0.14750   0.52225   0.00000  Uiso   1.00
C699   C     0.10141   0.15572   0.54127   0.00000  Uiso   1.00
C700   C     0.07878   0.17226   0.51979   0.00000  Uiso   1.00
C701   C     0.19258   0.12232   0.95944   0.00000  Uiso   1.00
C702   C     0.21582   0.10472   0.97903   0.00000  Uiso   1.00
C703   C     0.20827   0.11334   0.51991   0.00000  Uiso   1.00
C704   C     0.17354   0.13602   0.54189   0.00000  Uiso   1.00
C705   C     0.23543   0.09998   0.53892   0.00000  Uiso   1.00
C706   C     0.22986   0.11021   0.57961   0.00000  Uiso   1.00
C707   C     0.17077   0.14920   0.58186   0.00000  Uiso   1.00
H708   H     0.04564   0.17846   0.53364   0.00000  Uiso   1.00
H709   H     0.15002   0.17234   0.59798   0.00000  Uiso   1.00
H710   H     0.24091   0.08575   0.96194   0.00000  Uiso   1.00
H711   H     0.04041   0.20239   0.97463   0.00000  Uiso   1.00
H712   H     0.06869   0.20787   0.90389   0.00000  Uiso   1.00
H713   H     0.19844   0.11387   0.92798   0.00000  Uiso   1.00
H714   H     0.26129   0.08177   0.52200   0.00000  Uiso   1.00
C715   C     0.32699   0.17618   0.73768   0.00000  Uiso   1.00
H716   H     0.01663   0.19361   0.71502   0.00000  Uiso   1.00
C717   C     0.00712   0.15725   0.76220   0.00000  Uiso   1.00
H718   H     0.31816   0.13971   0.78510   0.00000  Uiso   1.00
C719   C     0.18101   0.32216   0.73810   0.00000  Uiso   1.00
H720   H     0.20814   0.00278   0.71599   0.00000  Uiso   1.00
C721   C     0.15168   0.01204   0.76214   0.00000  Uiso   1.00
H722   H     0.12415   0.33216   0.78428   0.00000  Uiso   1.00
C723   C     0.25953   0.09422   0.59853   0.00000  Uiso   1.00
H724   H     0.25284   0.10407   0.63072   0.00000  Uiso   1.00
H725   H     0.25592   0.05955   0.59429   0.00000  Uiso   1.00
H726   H     0.29353   0.10600   0.58425   0.00000  Uiso   1.00
C727   C     0.20789   0.19354   0.90595   0.00000  Uiso   1.00
C728   C     0.22638   0.22398   0.93558   0.00000  Uiso   1.00
H729   H     0.20772   0.25132   0.94540   0.00000  Uiso   1.00
H730   H     0.22580   0.20871   0.96178   0.00000  Uiso   1.00
H731   H     0.26052   0.23528   0.92126   0.00000  Uiso   1.00
H732   H     0.22607   0.16611   0.89648   0.00000  Uiso   1.00
H733   H     0.21530   0.21001   0.87899   0.00000  Uiso   1.00
C734   C     0.07435   0.13981   0.58045   0.00000  Uiso   1.00
C735   C     0.07236   0.09246   0.57931   0.00000  Uiso   1.00
H736   H     0.06092   0.07663   0.55370   0.00000  Uiso   1.00
H737   H     0.10438   0.08304   0.57712   0.00000  Uiso   1.00
H738   H     0.04937   0.08188   0.60692   0.00000  Uiso   1.00
H739   H     0.08456   0.15574   0.60635   0.00000  Uiso   1.00
H740   H     0.04042   0.14674   0.58695   0.00000  Uiso   1.00
Zn741  Zn    0.52577   0.14090   0.78277   0.00000  Uiso   1.00
Zn742  Zn    0.46792   0.12378   0.72257   0.00000  Uiso   1.00
Zn743  Zn    0.54500   0.19664   0.71188   0.00000  Uiso   1.00
Zn744  Zn    0.46131   0.20535   0.78277   0.00000  Uiso   1.00
O745   O     0.50000   0.16667   0.75000   0.00000  Uiso   1.00
O746   O     0.40323   0.18960   0.77820   0.00000  Uiso   1.00
O747   O     0.58773   0.15277   0.76767   0.00000  Uiso   1.00
O748   O     0.47133   0.06903   0.73607   0.00000  Uiso   1.00
O749   O     0.53771   0.25527   0.71805   0.00000  Uiso   1.00
O750   O     0.49027   0.12393   0.66625   0.00000  Uiso   1.00
O751   O     0.46020   0.20646   0.83749   0.00000  Uiso   1.00
O752   O     0.54421   0.17493   0.65877   0.00000  Uiso   1.00
O753   O     0.50532   0.16135   0.83749   0.00000  Uiso   1.00
O754   O     0.51182   0.08101   0.77820   0.00000  Uiso   1.00
O755   O     0.47914   0.26136   0.76767   0.00000  Uiso   1.00
O756   O     0.40785   0.13251   0.73607   0.00000  Uiso   1.00
O757   O     0.60119   0.19179   0.71805   0.00000  Uiso   1.00
C758   C     0.38580   0.15979   0.75880   0.00000  Uiso   1.00
C759   C     0.61441   0.17353   0.74123   0.00000  Uiso   1.00
C760   C     0.48933   0.05605   0.75888   0.00000  Uiso   1.00
C761   C     0.51023   0.27768   0.74134   0.00000  Uiso   1.00
C762   C     0.52131   0.14540   0.64389   0.00000  Uiso   1.00
C763   C     0.47891   0.18774   0.85631   0.00000  Uiso   1.00
C764   C     0.46533   0.19147   0.89998   0.00000  Uiso   1.00
C765   C     0.53061   0.13536   0.60105   0.00000  Uiso   1.00
C766   C     0.40646   0.19543   0.95996   0.00000  Uiso   1.00
C767   C     0.42291   0.19942   0.91974   0.00000  Uiso   1.00
C768   C     0.49238   0.18179   0.92158   0.00000  Uiso   1.00
C769   C     0.47276   0.16930   0.96042   0.00000  Uiso   1.00
C770   C     0.43066   0.17961   0.98029   0.00000  Uiso   1.00
C771   C     0.49346   0.14764   0.98042   0.00000  Uiso   1.00
C772   C     0.47839   0.14750   0.52225   0.00000  Uiso   1.00
C773   C     0.43474   0.15572   0.54127   0.00000  Uiso   1.00
C774   C     0.41211   0.17226   0.51979   0.00000  Uiso   1.00
C775   C     0.52591   0.12232   0.95944   0.00000  Uiso   1.00
C776   C     0.54916   0.10472   0.97903   0.00000  Uiso   1.00
C777   C     0.54161   0.11334   0.51991   0.00000  Uiso   1.00
C778   C     0.50687   0.13602   0.54189   0.00000  Uiso   1.00
C779   C     0.56877   0.09998   0.53892   0.00000  Uiso   1.00
C780   C     0.56319   0.11021   0.57961   0.00000  Uiso   1.00
C781   C     0.50410   0.14920   0.58186   0.00000  Uiso   1.00
H782   H     0.37898   0.17846   0.53364   0.00000  Uiso   1.00
H783   H     0.48335   0.17234   0.59798   0.00000  Uiso   1.00
H784   H     0.57424   0.08575   0.96194   0.00000  Uiso   1.00
H785   H     0.37375   0.20239   0.97463   0.00000  Uiso   1.00
H786   H     0.40202   0.20787   0.90389   0.00000  Uiso   1.00
H787   H     0.53178   0.11387   0.92798   0.00000  Uiso   1.00
H788   H     0.59462   0.08177   0.52200   0.00000  Uiso   1.00
C789   C     0.66033   0.17618   0.73768   0.00000  Uiso   1.00
H790   H     0.34996   0.19361   0.71502   0.00000  Uiso   1.00
C791   C     0.34045   0.15725   0.76220   0.00000  Uiso   1.00
H792   H     0.65149   0.13971   0.78510   0.00000  Uiso   1.00
C793   C     0.51435   0.32216   0.73810   0.00000  Uiso   1.00
H794   H     0.54148   0.00278   0.71599   0.00000  Uiso   1.00
C795   C     0.48502   0.01204   0.76214   0.00000  Uiso   1.00
H796   H     0.45749   0.33216   0.78428   0.00000  Uiso   1.00
C797   C     0.59286   0.09422   0.59853   0.00000  Uiso   1.00
H798   H     0.58618   0.10407   0.63072   0.00000  Uiso   1.00
H799   H     0.58925   0.05955   0.59429   0.00000  Uiso   1.00
H800   H     0.62686   0.10600   0.58425   0.00000  Uiso   1.00
C801   C     0.54122   0.19354   0.90595   0.00000  Uiso   1.00
C802   C     0.55972   0.22398   0.93558   0.00000  Uiso   1.00
H803   H     0.54105   0.25132   0.94540   0.00000  Uiso   1.00
H804   H     0.55913   0.20871   0.96178   0.00000  Uiso   1.00
H805   H     0.59385   0.23528   0.92126   0.00000  Uiso   1.00
H806   H     0.55941   0.16611   0.89648   0.00000  Uiso   1.00
H807   H     0.54864   0.21001   0.87899   0.00000  Uiso   1.00
C808   C     0.40769   0.13981   0.58045   0.00000  Uiso   1.00
C809   C     0.40569   0.09246   0.57931   0.00000  Uiso   1.00
H810   H     0.39426   0.07663   0.55370   0.00000  Uiso   1.00
H811   H     0.43772   0.08304   0.57712   0.00000  Uiso   1.00
H812   H     0.38270   0.08188   0.60692   0.00000  Uiso   1.00
H813   H     0.41790   0.15574   0.60635   0.00000  Uiso   1.00
H814   H     0.37375   0.14674   0.58695   0.00000  Uiso   1.00
Zn815  Zn    0.85910   0.14090   0.78277   0.00000  Uiso   1.00
Zn816  Zn    0.80125   0.12378   0.72257   0.00000  Uiso   1.00
Zn817  Zn    0.87833   0.19664   0.71188   0.00000  Uiso   1.00
Zn818  Zn    0.79465   0.20535   0.78277   0.00000  Uiso   1.00
O819   O     0.83333   0.16667   0.75000   0.00000  Uiso   1.00
O820   O     0.73656   0.18960   0.77820   0.00000  Uiso   1.00
O821   O     0.92106   0.15277   0.76767   0.00000  Uiso   1.00
O822   O     0.80467   0.06903   0.73607   0.00000  Uiso   1.00
O823   O     0.87104   0.25527   0.71805   0.00000  Uiso   1.00
O824   O     0.82360   0.12393   0.66625   0.00000  Uiso   1.00
O825   O     0.79354   0.20646   0.83749   0.00000  Uiso   1.00
O826   O     0.87755   0.17493   0.65877   0.00000  Uiso   1.00
O827   O     0.83865   0.16135   0.83749   0.00000  Uiso   1.00
O828   O     0.84515   0.08101   0.77820   0.00000  Uiso   1.00
O829   O     0.81247   0.26136   0.76767   0.00000  Uiso   1.00
O830   O     0.74119   0.13251   0.73607   0.00000  Uiso   1.00
O831   O     0.93452   0.19179   0.71805   0.00000  Uiso   1.00
C832   C     0.71914   0.15979   0.75880   0.00000  Uiso   1.00
C833   C     0.94774   0.17353   0.74123   0.00000  Uiso   1.00
C834   C     0.82266   0.05605   0.75888   0.00000  Uiso   1.00
C835   C     0.84357   0.27768   0.74134   0.00000  Uiso   1.00
C836   C     0.85465   0.14540   0.64389   0.00000  Uiso   1.00
C837   C     0.81224   0.18774   0.85631   0.00000  Uiso   1.00
C838   C     0.79866   0.19147   0.89998   0.00000  Uiso   1.00
C839   C     0.86395   0.13536   0.60105   0.00000  Uiso   1.00
C840   C     0.73979   0.19543   0.95996   0.00000  Uiso   1.00
C841   C     0.75624   0.19942   0.91974   0.00000  Uiso   1.00
C842   C     0.82572   0.18179   0.92158   0.00000  Uiso   1.00
C843   C     0.80609   0.16930   0.96042   0.00000  Uiso   1.00
C844   C     0.76400   0.17961   0.98029   0.00000  Uiso   1.00
C845   C     0.82680   0.14764   0.98042   0.00000  Uiso   1.00
C846   C     0.81172   0.14750   0.52225   0.00000  Uiso   1.00
C847   C     0.76808   0.15572   0.54127   0.00000  Uiso   1.00
C848   C     0.74545   0.17226   0.51979   0.00000  Uiso   1.00
C849   C     0.85925   0.12232   0.95944   0.00000  Uiso   1.00
C850   C     0.88249   0.10472   0.97903   0.00000  Uiso   1.00
C851   C     0.87494   0.11334   0.51991   0.00000  Uiso   1.00
C852   C     0.84020   0.13602   0.54189   0.00000  Uiso   1.00
C853   C     0.90210   0.09998   0.53892   0.00000  Uiso   1.00
C854   C     0.89652   0.11021   0.57961   0.00000  Uiso   1.00
C855   C     0.83743   0.14920   0.58186   0.00000  Uiso   1.00
H856   H     0.71231   0.17846   0.53364   0.00000  Uiso   1.00
H857   H     0.81668   0.17234   0.59798   0.00000  Uiso   1.00
H858   H     0.90758   0.08575   0.96194   0.00000  Uiso   1.00
H859   H     0.70708   0.20239   0.97463   0.00000  Uiso   1.00
H860   H     0.73536   0.20787   0.90389   0.00000  Uiso   1.00
H861   H     0.86511   0.11387   0.92798   0.00000  Uiso   1.00
H862   H     0.92795   0.08177   0.52200   0.00000  Uiso   1.00
C863   C     0.99366   0.17618   0.73768   0.00000  Uiso   1.00
H864   H     0.68330   0.19361   0.71502   0.00000  Uiso   1.00
C865   C     0.67379   0.15725   0.76220   0.00000  Uiso   1.00
H866   H     0.98482   0.13971   0.78510   0.00000  Uiso   1.00
C867   C     0.84768   0.32216   0.73810   0.00000  Uiso   1.00
H868   H     0.87481   0.00278   0.71599   0.00000  Uiso   1.00
C869   C     0.81835   0.01204   0.76214   0.00000  Uiso   1.00
H870   H     0.79082   0.33216   0.78428   0.00000  Uiso   1.00
C871   C     0.92619   0.09422   0.59853   0.00000  Uiso   1.00
H872   H     0.91951   0.10407   0.63072   0.00000  Uiso   1.00
H873   H     0.92258   0.05955   0.59429   0.00000  Uiso   1.00
H874   H     0.96019   0.10600   0.58425   0.00000  Uiso   1.00
C875   C     0.87455   0.19354   0.90595   0.00000  Uiso   1.00
C876   C     0.89305   0.22398   0.93558   0.00000  Uiso   1.00
H877   H     0.87439   0.25132   0.94540   0.00000  Uiso   1.00
H878   H     0.89247   0.20871   0.96178   0.00000  Uiso   1.00
H879   H     0.92718   0.23528   0.92126   0.00000  Uiso   1.00
H880   H     0.89274   0.16611   0.89648   0.00000  Uiso   1.00
H881   H     0.88197   0.21001   0.87899   0.00000  Uiso   1.00
C882   C     0.74102   0.13981   0.58045   0.00000  Uiso   1.00
C883   C     0.73902   0.09246   0.57931   0.00000  Uiso   1.00
H884   H     0.72759   0.07663   0.55370   0.00000  Uiso   1.00
H885   H     0.77105   0.08304   0.57712   0.00000  Uiso   1.00
H886   H     0.71604   0.08188   0.60692   0.00000  Uiso   1.00
H887   H     0.75123   0.15574   0.60635   0.00000  Uiso   1.00
H888   H     0.70708   0.14674   0.58695   0.00000  Uiso   1.00
Zn889  Zn    0.19244   0.47423   0.78277   0.00000  Uiso   1.00
Zn890  Zn    0.13459   0.45711   0.72257   0.00000  Uiso   1.00
Zn891  Zn    0.21166   0.52997   0.71188   0.00000  Uiso   1.00
Zn892  Zn    0.12798   0.53868   0.78277   0.00000  Uiso   1.00
O893   O     0.16667   0.50000   0.75000   0.00000  Uiso   1.00
O894   O     0.06990   0.52293   0.77820   0.00000  Uiso   1.00
O895   O     0.25440   0.48610   0.76767   0.00000  Uiso   1.00
O896   O     0.13800   0.40236   0.73607   0.00000  Uiso   1.00
O897   O     0.20437   0.58860   0.71805   0.00000  Uiso   1.00
O898   O     0.15693   0.45726   0.66625   0.00000  Uiso   1.00
O899   O     0.12687   0.53979   0.83749   0.00000  Uiso   1.00
O900   O     0.21088   0.50826   0.65877   0.00000  Uiso   1.00
O901   O     0.17198   0.49468   0.83749   0.00000  Uiso   1.00
O902   O     0.17849   0.41434   0.77820   0.00000  Uiso   1.00
O903   O     0.14581   0.59469   0.76767   0.00000  Uiso   1.00
O904   O     0.07452   0.46584   0.73607   0.00000  Uiso   1.00
O905   O     0.26785   0.52512   0.71805   0.00000  Uiso   1.00
C906   C     0.05247   0.49313   0.75880   0.00000  Uiso   1.00
C907   C     0.28108   0.50687   0.74123   0.00000  Uiso   1.00
C908   C     0.15600   0.38938   0.75888   0.00000  Uiso   1.00
C909   C     0.17690   0.61101   0.74134   0.00000  Uiso   1.00
C910   C     0.18798   0.47874   0.64389   0.00000  Uiso   1.00
C911   C     0.14557   0.52108   0.85631   0.00000  Uiso   1.00
C912   C     0.13200   0.52480   0.89998   0.00000  Uiso   1.00
C913   C     0.19728   0.46870   0.60105   0.00000  Uiso   1.00
C914   C     0.07312   0.52876   0.95996   0.00000  Uiso   1.00
C915   C     0.08957   0.53275   0.91974   0.00000  Uiso   1.00
C916   C     0.15905   0.51512   0.92158   0.00000  Uiso   1.00
C917   C     0.13942   0.50263   0.96042   0.00000  Uiso   1.00
C918   C     0.09733   0.51294   0.98029   0.00000  Uiso   1.00
C919   C     0.16013   0.48098   0.98042   0.00000  Uiso   1.00
C920   C     0.14505   0.48084   0.52225   0.00000  Uiso   1.00
C921   C     0.10141   0.48905   0.54127   0.00000  Uiso   1.00
C922   C     0.07878   0.50560   0.51979   0.00000  Uiso   1.00
C923   C     0.19258   0.45565   0.95944   0.00000  Uiso   1.00
C924   C     0.21582   0.43806   0.97903   0.00000  Uiso   1.00
C925   C     0.20827   0.44668   0.51991   0.00000  Uiso   1.00
C926   C     0.17354   0.46935   0.54189   0.00000  Uiso   1.00
C927   C     0.23543   0.43331   0.53892   0.00000  Uiso   1.00
C928   C     0.22986   0.44354   0.57961   0.00000  Uiso   1.00
C929   C     0.17077   0.48253   0.58186   0.00000  Uiso   1.00
H930   H     0.04564   0.51179   0.53364   0.00000  Uiso   1.00
H931   H     0.15002   0.50568   0.59798   0.00000  Uiso   1.00
H932   H     0.24091   0.41909   0.96194   0.00000  Uiso   1.00
H933   H     0.04041   0.53573   0.97463   0.00000  Uiso   1.00
H934   H     0.06869   0.54120   0.90389   0.00000  Uiso   1.00
H935   H     0.19844   0.44720   0.92798   0.00000  Uiso   1.00
H936   H     0.26129   0.41511   0.52200   0.00000  Uiso   1.00
C937   C     0.32699   0.50951   0.73768   0.00000  Uiso   1.00
H938   H     0.01663   0.52694   0.71502   0.00000  Uiso   1.00
C939   C     0.00712   0.49058   0.76220   0.00000  Uiso   1.00
H940   H     0.31816   0.47305   0.78510   0.00000  Uiso   1.00
C941   C     0.18101   0.65549   0.73810   0.00000  Uiso   1.00
H942   H     0.20814   0.33612   0.71599   0.00000  Uiso   1.00
C943   C     0.15168   0.34538   0.76214   0.00000  Uiso   1.00
H944   H     0.12415   0.66549   0.78428   0.00000  Uiso   1.00
C945   C     0.25953   0.42755   0.59853   0.00000  Uiso   1.00
H946   H     0.25284   0.43740   0.63072   0.00000  Uiso   1.00
H947   H     0.25592   0.39289   0.59429   0.00000  Uiso   1.00
H948   H     0.29353   0.43934   0.58425   0.00000  Uiso   1.00
C949   C     0.20789   0.52687   0.90595   0.00000  Uiso   1.00
C950   C     0.22638   0.55731   0.93558   0.00000  Uiso   1.00
H951   H     0.20772   0.58465   0.94540   0.00000  Uiso   1.00
H952   H     0.22580   0.54204   0.96178   0.00000  Uiso   1.00
H953   H     0.26052   0.56862   0.92126   0.00000  Uiso   1.00
H954   H     0.22607   0.49945   0.89648   0.00000  Uiso   1.00
H955   H     0.21530   0.54334   0.87899   0.00000  Uiso   1.00
C956   C     0.07435   0.47314   0.58045   0.00000  Uiso   1.00
C957   C     0.07236   0.42579   0.57931   0.00000  Uiso   1.00
H958   H     0.06092   0.40997   0.55370   0.00000  Uiso   1.00
H959   H     0.10438   0.41637   0.57712   0.00000  Uiso   1.00
H960   H     0.04937   0.41521   0.60692   0.00000  Uiso   1.00
H961   H     0.08456   0.48908   0.60635   0.00000  Uiso   1.00
H962   H     0.04042   0.48007   0.58695   0.00000  Uiso   1.00
Zn963  Zn    0.52577   0.47423   0.78277   0.00000  Uiso   1.00
Zn964  Zn    0.46792   0.45711   0.72257   0.00000  Uiso   1.00
Zn965  Zn    0.54500   0.52997   0.71188   0.00000  Uiso   1.00
Zn966  Zn    0.46131   0.53868   0.78277   0.00000  Uiso   1.00
O967   O     0.50000   0.50000   0.75000   0.00000  Uiso   1.00
O968   O     0.40323   0.52293   0.77820   0.00000  Uiso   1.00
O969   O     0.58773   0.48610   0.76767   0.00000  Uiso   1.00
O970   O     0.47133   0.40236   0.73607   0.00000  Uiso   1.00
O971   O     0.53771   0.58860   0.71805   0.00000  Uiso   1.00
O972   O     0.49027   0.45726   0.66625   0.00000  Uiso   1.00
O973   O     0.46020   0.53979   0.83749   0.00000  Uiso   1.00
O974   O     0.54421   0.50826   0.65877   0.00000  Uiso   1.00
O975   O     0.50532   0.49468   0.83749   0.00000  Uiso   1.00
O976   O     0.51182   0.41434   0.77820   0.00000  Uiso   1.00
O977   O     0.47914   0.59469   0.76767   0.00000  Uiso   1.00
O978   O     0.40785   0.46584   0.73607   0.00000  Uiso   1.00
O979   O     0.60119   0.52512   0.71805   0.00000  Uiso   1.00
C980   C     0.38580   0.49313   0.75880   0.00000  Uiso   1.00
C981   C     0.61441   0.50687   0.74123   0.00000  Uiso   1.00
C982   C     0.48933   0.38938   0.75888   0.00000  Uiso   1.00
C983   C     0.51023   0.61101   0.74134   0.00000  Uiso   1.00
C984   C     0.52131   0.47874   0.64389   0.00000  Uiso   1.00
C985   C     0.47891   0.52108   0.85631   0.00000  Uiso   1.00
C986   C     0.46533   0.52480   0.89998   0.00000  Uiso   1.00
C987   C     0.53061   0.46870   0.60105   0.00000  Uiso   1.00
C988   C     0.40646   0.52876   0.95996   0.00000  Uiso   1.00
C989   C     0.42291   0.53275   0.91974   0.00000  Uiso   1.00
C990   C     0.49238   0.51512   0.92158   0.00000  Uiso   1.00
C991   C     0.47276   0.50263   0.96042   0.00000  Uiso   1.00
C992   C     0.43066   0.51294   0.98029   0.00000  Uiso   1.00
C993   C     0.49346   0.48098   0.98042   0.00000  Uiso   1.00
C994   C     0.47839   0.48084   0.52225   0.00000  Uiso   1.00
C995   C     0.43474   0.48905   0.54127   0.00000  Uiso   1.00
C996   C     0.41211   0.50560   0.51979   0.00000  Uiso   1.00
C997   C     0.52591   0.45565   0.95944   0.00000  Uiso   1.00
C998   C     0.54916   0.43806   0.97903   0.00000  Uiso   1.00
C999   C     0.54161   0.44668   0.51991   0.00000  Uiso   1.00
C1000  C     0.50687   0.46935   0.54189   0.00000  Uiso   1.00
C1001  C     0.56877   0.43331   0.53892   0.00000  Uiso   1.00
C1002  C     0.56319   0.44354   0.57961   0.00000  Uiso   1.00
C1003  C     0.50410   0.48253   0.58186   0.00000  Uiso   1.00
H1004  H     0.37898   0.51179   0.53364   0.00000  Uiso   1.00
H1005  H     0.48335   0.50568   0.59798   0.00000  Uiso   1.00
H1006  H     0.57424   0.41909   0.96194   0.00000  Uiso   1.00
H1007  H     0.37375   0.53573   0.97463   0.00000  Uiso   1.00
H1008  H     0.40202   0.54120   0.90389   0.00000  Uiso   1.00
H1009  H     0.53178   0.44720   0.92798   0.00000  Uiso   1.00
H1010  H     0.59462   0.41511   0.52200   0.00000  Uiso   1.00
C1011  C     0.66033   0.50951   0.73768   0.00000  Uiso   1.00
H1012  H     0.34996   0.52694   0.71502   0.00000  Uiso   1.00
C1013  C     0.34045   0.49058   0.76220   0.00000  Uiso   1.00
H1014  H     0.65149   0.47305   0.78510   0.00000  Uiso   1.00
C1015  C     0.51435   0.65549   0.73810   0.00000  Uiso   1.00
H1016  H     0.54148   0.33612   0.71599   0.00000  Uiso   1.00
C1017  C     0.48502   0.34538   0.76214   0.00000  Uiso   1.00
H1018  H     0.45749   0.66549   0.78428   0.00000  Uiso   1.00
C1019  C     0.59286   0.42755   0.59853   0.00000  Uiso   1.00
H1020  H     0.58618   0.43740   0.63072   0.00000  Uiso   1.00
H1021  H     0.58925   0.39289   0.59429   0.00000  Uiso   1.00
H1022  H     0.62686   0.43934   0.58425   0.00000  Uiso   1.00
C1023  C     0.54122   0.52687   0.90595   0.00000  Uiso   1.00
C1024  C     0.55972   0.55731   0.93558   0.00000  Uiso   1.00
H1025  H     0.54105   0.58465   0.94540   0.00000  Uiso   1.00
H1026  H     0.55913   0.54204   0.96178   0.00000  Uiso   1.00
H1027  H     0.59385   0.56862   0.92126   0.00000  Uiso   1.00
H1028  H     0.55941   0.49945   0.89648   0.00000  Uiso   1.00
H1029  H     0.54864   0.54334   0.87899   0.00000  Uiso   1.00
C1030  C     0.40769   0.47314   0.58045   0.00000  Uiso   1.00
C1031  C     0.40569   0.42579   0.57931   0.00000  Uiso   1.00
H1032  H     0.39426   0.40997   0.55370   0.00000  Uiso   1.00
H1033  H     0.43772   0.41637   0.57712   0.00000  Uiso   1.00
H1034  H     0.38270   0.41521   0.60692   0.00000  Uiso   1.00
H1035  H     0.41790   0.48908   0.60635   0.00000  Uiso   1.00
H1036  H     0.37375   0.48007   0.58695   0.00000  Uiso   1.00
Zn1037 Zn    0.85910   0.47423   0.78277   0.00000  Uiso   1.00
Zn1038 Zn    0.80125   0.45711   0.72257   0.00000  Uiso   1.00
Zn1039 Zn    0.87833   0.52997   0.71188   0.00000  Uiso   1.00
Zn1040 Zn    0.79465   0.53868   0.78277   0.00000  Uiso   1.00
O1041  O     0.83333   0.50000   0.75000   0.00000  Uiso   1.00
O1042  O     0.73656   0.52293   0.77820   0.00000  Uiso   1.00
O1043  O     0.92106   0.48610   0.76767   0.00000  Uiso   1.00
O1044  O     0.80467   0.40236   0.73607   0.00000  Uiso   1.00
O1045  O     0.87104   0.58860   0.71805   0.00000  Uiso   1.00
O1046  O     0.82360   0.45726   0.66625   0.00000  Uiso   1.00
O1047  O     0.79354   0.53979   0.83749   0.00000  Uiso   1.00
O1048  O     0.87755   0.50826   0.65877   0.00000  Uiso   1.00
O1049  O     0.83865   0.49468   0.83749   0.00000  Uiso   1.00
O1050  O     0.84515   0.41434   0.77820   0.00000  Uiso   1.00
O1051  O     0.81247   0.59469   0.76767   0.00000  Uiso   1.00
O1052  O     0.74119   0.46584   0.73607   0.00000  Uiso   1.00
O1053  O     0.93452   0.52512   0.71805   0.00000  Uiso   1.00
C1054  C     0.71914   0.49313   0.75880   0.00000  Uiso   1.00
C1055  C     0.94774   0.50687   0.74123   0.00000  Uiso   1.00
C1056  C     0.82266   0.38938   0.75888   0.00000  Uiso   1.00
C1057  C     0.84357   0.61101   0.74134   0.00000  Uiso   1.00
C1058  C     0.85465   0.47874   0.64389   0.00000  Uiso   1.00
C1059  C     0.81224   0.52108   0.85631   0.00000  Uiso   1.00
C1060  C     0.79866   0.52480   0.89998   0.00000  Uiso   1.00
C1061  C     0.86395   0.46870   0.60105   0.00000  Uiso   1.00
C1062  C     0.73979   0.52876   0.95996   0.00000  Uiso   1.00
C1063  C     0.75624   0.53275   0.91974   0.00000  Uiso   1.00
C1064  C     0.82572   0.51512   0.92158   0.00000  Uiso   1.00
C1065  C     0.80609   0.50263   0.96042   0.00000  Uiso   1.00
C1066  C     0.76400   0.51294   0.98029   0.00000  Uiso   1.00
C1067  C     0.82680   0.48098   0.98042   0.00000  Uiso   1.00
C1068  C     0.81172   0.48084   0.52225   0.00000  Uiso   1.00
C1069  C     0.76808   0.48905   0.54127   0.00000  Uiso   1.00
C1070  C     0.74545   0.50560   0.51979   0.00000  Uiso   1.00
C1071  C     0.85925   0.45565   0.95944   0.00000  Uiso   1.00
C1072  C     0.88249   0.43806   0.97903   0.00000  Uiso   1.00
C1073  C     0.87494   0.44668   0.51991   0.00000  Uiso   1.00
C1074  C     0.84020   0.46935   0.54189   0.00000  Uiso   1.00
C1075  C     0.90210   0.43331   0.53892   0.00000  Uiso   1.00
C1076  C     0.89652   0.44354   0.57961   0.00000  Uiso   1.00
C1077  C     0.83743   0.48253   0.58186   0.00000  Uiso   1.00
H1078  H     0.71231   0.51179   0.53364   0.00000  Uiso   1.00
H1079  H     0.81668   0.50568   0.59798   0.00000  Uiso   1.00
H1080  H     0.90758   0.41909   0.96194   0.00000  Uiso   1.00
H1081  H     0.70708   0.53573   0.97463   0.00000  Uiso   1.00
H1082  H     0.73536   0.54120   0.90389   0.00000  Uiso   1.00
H1083  H     0.86511   0.44720   0.92798   0.00000  Uiso   1.00
H1084  H     0.92795   0.41511   0.52200   0.00000  Uiso   1.00
C1085  C     0.99366   0.50951   0.73768   0.00000  Uiso   1.00
H1086  H     0.68330   0.52694   0.71502   0.00000  Uiso   1.00
C1087  C     0.67379   0.49058   0.76220   0.00000  Uiso   1.00
H1088  H     0.98482   0.47305   0.78510   0.00000  Uiso   1.00
C1089  C     0.84768   0.65549   0.73810   0.00000  Uiso   1.00
H1090  H     0.87481   0.33612   0.71599   0.00000  Uiso   1.00
C1091  C     0.81835   0.34538   0.76214   0.00000  Uiso   1.00
H1092  H     0.79082   0.66549   0.78428   0.00000  Uiso   1.00
C1093  C     0.92619   0.42755   0.59853   0.00000  Uiso   1.00
H1094  H     0.91951   0.43740   0.63072   0.00000  Uiso   1.00
H1095  H     0.92258   0.39289   0.59429   0.00000  Uiso   1.00
H1096  H     0.96019   0.43934   0.58425   0.00000  Uiso   1.00
C1097  C     0.87455   0.52687   0.90595   0.00000  Uiso   1.00
C1098  C     0.89305   0.55731   0.93558   0.00000  Uiso   1.00
H1099  H     0.87439   0.58465   0.94540   0.00000  Uiso   1.00
H1100  H     0.89247   0.54204   0.96178   0.00000  Uiso   1.00
H1101  H     0.92718   0.56862   0.92126   0.00000  Uiso   1.00
H1102  H     0.89274   0.49945   0.89648   0.00000  Uiso   1.00
H1103  H     0.88197   0.54334   0.87899   0.00000  Uiso   1.00
C1104  C     0.74102   0.47314   0.58045   0.00000  Uiso   1.00
C1105  C     0.73902   0.42579   0.57931   0.00000  Uiso   1.00
H1106  H     0.72759   0.40997   0.55370   0.00000  Uiso   1.00
H1107  H     0.77105   0.41637   0.57712   0.00000  Uiso   1.00
H1108  H     0.71604   0.41521   0.60692   0.00000  Uiso   1.00
H1109  H     0.75123   0.48908   0.60635   0.00000  Uiso   1.00
H1110  H     0.70708   0.48007   0.58695   0.00000  Uiso   1.00
Zn1111 Zn    0.19244   0.80756   0.78277   0.00000  Uiso   1.00
Zn1112 Zn    0.13459   0.79044   0.72257   0.00000  Uiso   1.00
Zn1113 Zn    0.21166   0.86331   0.71188   0.00000  Uiso   1.00
Zn1114 Zn    0.12798   0.87202   0.78277   0.00000  Uiso   1.00
O1115  O     0.16667   0.83333   0.75000   0.00000  Uiso   1.00
O1116  O     0.06990   0.85627   0.77820   0.00000  Uiso   1.00
O1117  O     0.25440   0.81944   0.76767   0.00000  Uiso   1.00
O1118  O     0.13800   0.73570   0.73607   0.00000  Uiso   1.00
O1119  O     0.20437   0.92193   0.71805   0.00000  Uiso   1.00
O1120  O     0.15693   0.79060   0.66625   0.00000  Uiso   1.00
O1121  O     0.12687   0.87313   0.83749   0.00000  Uiso   1.00
O1122  O     0.21088   0.84159   0.65877   0.00000  Uiso   1.00
O1123  O     0.17198   0.82802   0.83749   0.00000  Uiso   1.00
O1124  O     0.17849   0.74768   0.77820   0.00000  Uiso   1.00
O1125  O     0.14581   0.92803   0.76767   0.00000  Uiso   1.00
O1126  O     0.07452   0.79917   0.73607   0.00000  Uiso   1.00
O1127  O     0.26785   0.85845   0.71805   0.00000  Uiso   1.00
C1128  C     0.05247   0.82646   0.75880   0.00000  Uiso   1.00
C1129  C     0.28108   0.84020   0.74123   0.00000  Uiso   1.00
C1130  C     0.15600   0.72271   0.75888   0.00000  Uiso   1.00
C1131  C     0.17690   0.94435   0.74134   0.00000  Uiso   1.00
C1132  C     0.18798   0.81207   0.64389   0.00000  Uiso   1.00
C1133  C     0.14557   0.85441   0.85631   0.00000  Uiso   1.00
C1134  C     0.13200   0.85813   0.89998   0.00000  Uiso   1.00
C1135  C     0.19728   0.80203   0.60105   0.00000  Uiso   1.00
C1136  C     0.07312   0.86210   0.95996   0.00000  Uiso   1.00
C1137  C     0.08957   0.86608   0.91974   0.00000  Uiso   1.00
C1138  C     0.15905   0.84846   0.92158   0.00000  Uiso   1.00
C1139  C     0.13942   0.83597   0.96042   0.00000  Uiso   1.00
C1140  C     0.09733   0.84628   0.98029   0.00000  Uiso   1.00
C1141  C     0.16013   0.81431   0.98042   0.00000  Uiso   1.00
C1142  C     0.14505   0.81417   0.52225   0.00000  Uiso   1.00
C1143  C     0.10141   0.82239   0.54127   0.00000  Uiso   1.00
C1144  C     0.07878   0.83893   0.51979   0.00000  Uiso   1.00
C1145  C     0.19258   0.78899   0.95944   0.00000  Uiso   1.00
C1146  C     0.21582   0.77139   0.97903   0.00000  Uiso   1.00
C1147  C     0.20827   0.78001   0.51991   0.00000  Uiso   1.00
C1148  C     0.17354   0.80269   0.54189   0.00000  Uiso   1.00
C1149  C     0.23543   0.76665   0.53892   0.00000  Uiso   1.00
C1150  C     0.22986   0.77687   0.57961   0.00000  Uiso   1.00
C1151  C     0.17077   0.81586   0.58186   0.00000  Uiso   1.00
H1152  H     0.04564   0.84512   0.53364   0.00000  Uiso   1.00
H1153  H     0.15002   0.83901   0.59798   0.00000  Uiso   1.00
H1154  H     0.24091   0.75242   0.96194   0.00000  Uiso   1.00
H1155  H     0.04041   0.86906   0.97463   0.00000  Uiso   1.00
H1156  H     0.06869   0.87454   0.90389   0.00000  Uiso   1.00
H1157  H     0.19844   0.78054   0.92798   0.00000  Uiso   1.00
H1158  H     0.26129   0.74844   0.52200   0.00000  Uiso   1.00
C1159  C     0.32699   0.84285   0.73768   0.00000  Uiso   1.00
H1160  H     0.01663   0.86027   0.71502   0.00000  Uiso   1.00
C1161  C     0.00712   0.82392   0.76220   0.00000  Uiso   1.00
H1162  H     0.31816   0.80638   0.78510   0.00000  Uiso   1.00
C1163  C     0.18101   0.98882   0.73810   0.00000  Uiso   1.00
H1164  H     0.20814   0.66945   0.71599   0.00000  Uiso   1.00
C1165  C     0.15168   0.67871   0.76214   0.00000  Uiso   1.00
H1166  H     0.12415   0.99882   0.78428   0.00000  Uiso   1.00
C1167  C     0.25953   0.76089   0.59853   0.00000  Uiso   1.00
H1168  H     0.25284   0.77074   0.63072   0.00000  Uiso   1.00
H1169  H     0.25592   0.72622   0.59429   0.00000  Uiso   1.00
H1170  H     0.29353   0.77267   0.58425   0.00000  Uiso   1.00
C1171  C     0.20789   0.86021   0.90595   0.00000  Uiso   1.00
C1172  C     0.22638   0.89065   0.93558   0.00000  Uiso   1.00
H1173  H     0.20772   0.91799   0.94540   0.00000  Uiso   1.00
H1174  H     0.22580   0.87537   0.96178   0.00000  Uiso   1.00
H1175  H     0.26052   0.90195   0.92126   0.00000  Uiso   1.00
H1176  H     0.22607   0.83278   0.89648   0.00000  Uiso   1.00
H1177  H     0.21530   0.87668   0.87899   0.00000  Uiso   1.00
C1178  C     0.07435   0.80648   0.58045   0.00000  Uiso   1.00
C1179  C     0.07236   0.75913   0.57931   0.00000  Uiso   1.00
H1180  H     0.06092   0.74330   0.55370   0.00000  Uiso   1.00
H1181  H     0.10438   0.74970   0.57712   0.00000  Uiso   1.00
H1182  H     0.04937   0.74854   0.60692   0.00000  Uiso   1.00
H1183  H     0.08456   0.82241   0.60635   0.00000  Uiso   1.00
H1184  H     0.04042   0.81340   0.58695   0.00000  Uiso   1.00
Zn1185 Zn    0.52577   0.80756   0.78277   0.00000  Uiso   1.00
Zn1186 Zn    0.46792   0.79044   0.72257   0.00000  Uiso   1.00
Zn1187 Zn    0.54500   0.86331   0.71188   0.00000  Uiso   1.00
Zn1188 Zn    0.46131   0.87202   0.78277   0.00000  Uiso   1.00
O1189  O     0.50000   0.83333   0.75000   0.00000  Uiso   1.00
O1190  O     0.40323   0.85627   0.77820   0.00000  Uiso   1.00
O1191  O     0.58773   0.81944   0.76767   0.00000  Uiso   1.00
O1192  O     0.47133   0.73570   0.73607   0.00000  Uiso   1.00
O1193  O     0.53771   0.92193   0.71805   0.00000  Uiso   1.00
O1194  O     0.49027   0.79060   0.66625   0.00000  Uiso   1.00
O1195  O     0.46020   0.87313   0.83749   0.00000  Uiso   1.00
O1196  O     0.54421   0.84159   0.65877   0.00000  Uiso   1.00
O1197  O     0.50532   0.82802   0.83749   0.00000  Uiso   1.00
O1198  O     0.51182   0.74768   0.77820   0.00000  Uiso   1.00
O1199  O     0.47914   0.92803   0.76767   0.00000  Uiso   1.00
O1200  O     0.40785   0.79917   0.73607   0.00000  Uiso   1.00
O1201  O     0.60119   0.85845   0.71805   0.00000  Uiso   1.00
C1202  C     0.38580   0.82646   0.75880   0.00000  Uiso   1.00
C1203  C     0.61441   0.84020   0.74123   0.00000  Uiso   1.00
C1204  C     0.48933   0.72271   0.75888   0.00000  Uiso   1.00
C1205  C     0.51023   0.94435   0.74134   0.00000  Uiso   1.00
C1206  C     0.52131   0.81207   0.64389   0.00000  Uiso   1.00
C1207  C     0.47891   0.85441   0.85631   0.00000  Uiso   1.00
C1208  C     0.46533   0.85813   0.89998   0.00000  Uiso   1.00
C1209  C     0.53061   0.80203   0.60105   0.00000  Uiso   1.00
C1210  C     0.40646   0.86210   0.95996   0.00000  Uiso   1.00
C1211  C     0.42291   0.86608   0.91974   0.00000  Uiso   1.00
C1212  C     0.49238   0.84846   0.92158   0.00000  Uiso   1.00
C1213  C     0.47276   0.83597   0.96042   0.00000  Uiso   1.00
C1214  C     0.43066   0.84628   0.98029   0.00000  Uiso   1.00
C1215  C     0.49346   0.81431   0.98042   0.00000  Uiso   1.00
C1216  C     0.47839   0.81417   0.52225   0.00000  Uiso   1.00
C1217  C     0.43474   0.82239   0.54127   0.00000  Uiso   1.00
C1218  C     0.41211   0.83893   0.51979   0.00000  Uiso   1.00
C1219  C     0.52591   0.78899   0.95944   0.00000  Uiso   1.00
C1220  C     0.54916   0.77139   0.97903   0.00000  Uiso   1.00
C1221  C     0.54161   0.78001   0.51991   0.00000  Uiso   1.00
C1222  C     0.50687   0.80269   0.54189   0.00000  Uiso   1.00
C1223  C     0.56877   0.76665   0.53892   0.00000  Uiso   1.00
C1224  C     0.56319   0.77687   0.57961   0.00000  Uiso   1.00
C1225  C     0.50410   0.81586   0.58186   0.00000  Uiso   1.00
H1226  H     0.37898   0.84512   0.53364   0.00000  Uiso   1.00
H1227  H     0.48335   0.83901   0.59798   0.00000  Uiso   1.00
H1228  H     0.57424   0.75242   0.96194   0.00000  Uiso   1.00
H1229  H     0.37375   0.86906   0.97463   0.00000  Uiso   1.00
H1230  H     0.40202   0.87454   0.90389   0.00000  Uiso   1.00
H1231  H     0.53178   0.78054   0.92798   0.00000  Uiso   1.00
H1232  H     0.59462   0.74844   0.52200   0.00000  Uiso   1.00
C1233  C     0.66033   0.84285   0.73768   0.00000  Uiso   1.00
H1234  H     0.34996   0.86027   0.71502   0.00000  Uiso   1.00
C1235  C     0.34045   0.82392   0.76220   0.00000  Uiso   1.00
H1236  H     0.65149   0.80638   0.78510   0.00000  Uiso   1.00
C1237  C     0.51435   0.98882   0.73810   0.00000  Uiso   1.00
H1238  H     0.54148   0.66945   0.71599   0.00000  Uiso   1.00
C1239  C     0.48502   0.67871   0.76214   0.00000  Uiso   1.00
H1240  H     0.45749   0.99882   0.78428   0.00000  Uiso   1.00
C1241  C     0.59286   0.76089   0.59853   0.00000  Uiso   1.00
H1242  H     0.58618   0.77074   0.63072   0.00000  Uiso   1.00
H1243  H     0.58925   0.72622   0.59429   0.00000  Uiso   1.00
H1244  H     0.62686   0.77267   0.58425   0.00000  Uiso   1.00
C1245  C     0.54122   0.86021   0.90595   0.00000  Uiso   1.00
C1246  C     0.55972   0.89065   0.93558   0.00000  Uiso   1.00
H1247  H     0.54105   0.91799   0.94540   0.00000  Uiso   1.00
H1248  H     0.55913   0.87537   0.96178   0.00000  Uiso   1.00
H1249  H     0.59385   0.90195   0.92126   0.00000  Uiso   1.00
H1250  H     0.55941   0.83278   0.89648   0.00000  Uiso   1.00
H1251  H     0.54864   0.87668   0.87899   0.00000  Uiso   1.00
C1252  C     0.40769   0.80648   0.58045   0.00000  Uiso   1.00
C1253  C     0.40569   0.75913   0.57931   0.00000  Uiso   1.00
H1254  H     0.39426   0.74330   0.55370   0.00000  Uiso   1.00
H1255  H     0.43772   0.74970   0.57712   0.00000  Uiso   1.00
H1256  H     0.38270   0.74854   0.60692   0.00000  Uiso   1.00
H1257  H     0.41790   0.82241   0.60635   0.00000  Uiso   1.00
H1258  H     0.37375   0.81340   0.58695   0.00000  Uiso   1.00
Zn1259 Zn    0.85910   0.80756   0.78277   0.00000  Uiso   1.00
Zn1260 Zn    0.80125   0.79044   0.72257   0.00000  Uiso   1.00
Zn1261 Zn    0.87833   0.86331   0.71188   0.00000  Uiso   1.00
Zn1262 Zn    0.79465   0.87202   0.78277   0.00000  Uiso   1.00
O1263  O     0.83333   0.83333   0.75000   0.00000  Uiso   1.00
O1264  O     0.73656   0.85627   0.77820   0.00000  Uiso   1.00
O1265  O     0.92106   0.81944   0.76767   0.00000  Uiso   1.00
O1266  O     0.80467   0.73570   0.73607   0.00000  Uiso   1.00
O1267  O     0.87104   0.92193   0.71805   0.00000  Uiso   1.00
O1268  O     0.82360   0.79060   0.66625   0.00000  Uiso   1.00
O1269  O     0.79354   0.87313   0.83749   0.00000  Uiso   1.00
O1270  O     0.87755   0.84159   0.65877   0.00000  Uiso   1.00
O1271  O     0.83865   0.82802   0.83749   0.00000  Uiso   1.00
O1272  O     0.84515   0.74768   0.77820   0.00000  Uiso   1.00
O1273  O     0.81247   0.92803   0.76767   0.00000  Uiso   1.00
O1274  O     0.74119   0.79917   0.73607   0.00000  Uiso   1.00
O1275  O     0.93452   0.85845   0.71805   0.00000  Uiso   1.00
C1276  C     0.71914   0.82646   0.75880   0.00000  Uiso   1.00
C1277  C     0.94774   0.84020   0.74123   0.00000  Uiso   1.00
C1278  C     0.82266   0.72271   0.75888   0.00000  Uiso   1.00
C1279  C     0.84357   0.94435   0.74134   0.00000  Uiso   1.00
C1280  C     0.85465   0.81207   0.64389   0.00000  Uiso   1.00
C1281  C     0.81224   0.85441   0.85631   0.00000  Uiso   1.00
C1282  C     0.79866   0.85813   0.89998   0.00000  Uiso   1.00
C1283  C     0.86395   0.80203   0.60105   0.00000  Uiso   1.00
C1284  C     0.73979   0.86210   0.95996   0.00000  Uiso   1.00
C1285  C     0.75624   0.86608   0.91974   0.00000  Uiso   1.00
C1286  C     0.82572   0.84846   0.92158   0.00000  Uiso   1.00
C1287  C     0.80609   0.83597   0.96042   0.00000  Uiso   1.00
C1288  C     0.76400   0.84628   0.98029   0.00000  Uiso   1.00
C1289  C     0.82680   0.81431   0.98042   0.00000  Uiso   1.00
C1290  C     0.81172   0.81417   0.52225   0.00000  Uiso   1.00
C1291  C     0.76808   0.82239   0.54127   0.00000  Uiso   1.00
C1292  C     0.74545   0.83893   0.51979   0.00000  Uiso   1.00
C1293  C     0.85925   0.78899   0.95944   0.00000  Uiso   1.00
C1294  C     0.88249   0.77139   0.97903   0.00000  Uiso   1.00
C1295  C     0.87494   0.78001   0.51991   0.00000  Uiso   1.00
C1296  C     0.84020   0.80269   0.54189   0.00000  Uiso   1.00
C1297  C     0.90210   0.76665   0.53892   0.00000  Uiso   1.00
C1298  C     0.89652   0.77687   0.57961   0.00000  Uiso   1.00
C1299  C     0.83743   0.81586   0.58186   0.00000  Uiso   1.00
H1300  H     0.71231   0.84512   0.53364   0.00000  Uiso   1.00
H1301  H     0.81668   0.83901   0.59798   0.00000  Uiso   1.00
H1302  H     0.90758   0.75242   0.96194   0.00000  Uiso   1.00
H1303  H     0.70708   0.86906   0.97463   0.00000  Uiso   1.00
H1304  H     0.73536   0.87454   0.90389   0.00000  Uiso   1.00
H1305  H     0.86511   0.78054   0.92798   0.00000  Uiso   1.00
H1306  H     0.92795   0.74844   0.52200   0.00000  Uiso   1.00
C1307  C     0.99366   0.84285   0.73768   0.00000  Uiso   1.00
H1308  H     0.68330   0.86027   0.71502   0.00000  Uiso   1.00
C1309  C     0.67379   0.82392   0.76220   0.00000  Uiso   1.00
H1310  H     0.98482   0.80638   0.78510   0.00000  Uiso   1.00
C1311  C     0.84768   0.98882   0.73810   0.00000  Uiso   1.00
H1312  H     0.87481   0.66945   0.71599   0.00000  Uiso   1.00
C1313  C     0.81835   0.67871   0.76214   0.00000  Uiso   1.00
H1314  H     0.79082   0.99882   0.78428   0.00000  Uiso   1.00
C1315  C     0.92619   0.76089   0.59853   0.00000  Uiso   1.00
H1316  H     0.91951   0.77074   0.63072   0.00000  Uiso   1.00
H1317  H     0.92258   0.72622   0.59429   0.00000  Uiso   1.00
H1318  H     0.96019   0.77267   0.58425   0.00000  Uiso   1.00
C1319  C     0.87455   0.86021   0.90595   0.00000  Uiso   1.00
C1320  C     0.89305   0.89065   0.93558   0.00000  Uiso   1.00
H1321  H     0.87439   0.91799   0.94540   0.00000  Uiso   1.00
H1322  H     0.89247   0.87537   0.96178   0.00000  Uiso   1.00
H1323  H     0.92718   0.90195   0.92126   0.00000  Uiso   1.00
H1324  H     0.89274   0.83278   0.89648   0.00000  Uiso   1.00
H1325  H     0.88197   0.87668   0.87899   0.00000  Uiso   1.00
C1326  C     0.74102   0.80648   0.58045   0.00000  Uiso   1.00
C1327  C     0.73902   0.75913   0.57931   0.00000  Uiso   1.00
H1328  H     0.72759   0.74330   0.55370   0.00000  Uiso   1.00
H1329  H     0.77105   0.74970   0.57712   0.00000  Uiso   1.00
H1330  H     0.71604   0.74854   0.60692   0.00000  Uiso   1.00
H1331  H     0.75123   0.82241   0.60635   0.00000  Uiso   1.00
H1332  H     0.70708   0.81340   0.58695   0.00000  Uiso   1.00
loop_
_geom_bond_atom_site_label_1
_geom_bond_atom_site_label_2
_geom_bond_distance
_geom_bond_site_symmetry_2
_ccdc_geom_bond_type
Zn1    O5      1.950   .     S
Zn1    O13     1.917   .     S
Zn1    O7      1.925   .     S
Zn1    O14     1.930   .     S
Zn2    O16     1.929   .     S
Zn2    O5      1.937   .     S
Zn2    O10     1.919   .     S
Zn2    O8      1.936   .     S
Zn3    O12     1.922   .     S
Zn3    O9      1.932   .     S
Zn3    O5      1.932   .     S
Zn3    O17     1.935   .     S
Zn4    O6      1.931   .     S
Zn4    O11     1.926   .     S
Zn4    O5      1.934   .     S
Zn4    O15     1.931   .     S
O6     C18     1.268   .     A
O7     C19     1.275   .     A
O8     C20     1.273   .     A
O9     C21     1.270   .     A
O10    C22     1.274   .     A
O11    C23     1.283   .     A
O12    C22     1.276   .     A
O13    C23     1.285   .     A
O14    C20     1.273   .     A
O15    C21     1.270   .     A
O16    C18     1.269   .     A
O17    C19     1.277   .     A
C18    C51     1.437   .     S
C19    C49     1.454   .     S
C20    C55     1.436   .     S
C21    C53     1.452   .     S
C22    C25     1.460   .     S
C23    C24     1.475   .     S
C24    C27     1.401   .     A
C24    C28     1.415   .     A
C25    C40     1.411   .     A
C25    C41     1.397   .     A
C26    C27     1.389   .     A
C26    H45     1.084   .     S
C26    C30     1.400   .     A
C27    H46     1.083   .     S
C28    C61     1.533   .     S
C28    C29     1.430   .     A
C29    C30     1.415   .     A
C29    C31     1.418   .     A
C30    C700    1.396   .     S
C31    C35     1.408   .     A
C31    C698    1.423   .     S
C32    C38     1.426   .     A
C32    C33     1.433   .     A
C32    C697    1.423   1_554 S
C33    C34     1.404   .     A
C33    C68     1.529   .     S
C34    H42     1.085   .     S
C34    C696    1.396   1_554 S
C35    C36     1.388   .     A
C35    H47     1.078   .     S
C36    H44     1.084   .     S
C36    C703    1.394   .     S
C37    C38     1.418   .     A
C37    C39     1.402   .     A
C37    C702    1.394   1_554 S
C38    C41     1.403   .     A
C39    C40     1.399   .     A
C39    H48     1.085   .     S
C40    C57     1.508   .     S
C41    H43     1.076   .     S
C49    H124    1.088   .     S
C49    C125    1.334   .     S
H50    C197    1.088   1_455 S
C51    C197    1.334   1_455 S
C51    H200    1.086   1_455 S
H52    C125    1.086   .     S
C53    H276    1.088   .     S
C53    C277    1.332   .     S
H54    C497    1.088   1_545 S
C55    C497    1.332   1_545 S
C55    H500    1.086   1_545 S
H56    C277    1.086   .     S
C57    H59     1.110   .     S
C57    H60     1.111   .     S
C57    H58     1.108   .     S
C61    H66     1.104   .     S
C61    H67     1.110   .     S
C61    C62     1.530   .     S
C62    H64     1.108   .     S
C62    H63     1.111   .     S
C62    H65     1.111   .     S
C68    H74     1.112   .     S
C68    C69     1.529   .     S
C68    H73     1.102   .     S
C69    H71     1.108   .     S
C69    H70     1.111   .     S
C69    H72     1.111   .     S
Zn75   O79     1.950   .     S
Zn75   O87     1.917   .     S
Zn75   O81     1.925   .     S
Zn75   O88     1.930   .     S
Zn76   O90     1.929   .     S
Zn76   O79     1.937   .     S
Zn76   O84     1.919   .     S
Zn76   O82     1.936   .     S
Zn77   O86     1.922   .     S
Zn77   O83     1.932   .     S
Zn77   O79     1.932   .     S
Zn77   O91     1.935   .     S
Zn78   O80     1.931   .     S
Zn78   O85     1.926   .     S
Zn78   O79     1.934   .     S
Zn78   O89     1.931   .     S
O80    C92     1.268   .     A
O81    C93     1.275   .     A
O82    C94     1.273   .     A
O83    C95     1.270   .     A
O84    C96     1.274   .     A
O85    C97     1.283   .     A
O86    C96     1.276   .     A
O87    C97     1.285   .     A
O88    C94     1.273   .     A
O89    C95     1.270   .     A
O90    C92     1.269   .     A
O91    C93     1.277   .     A
C92    C125    1.437   .     S
C93    C123    1.454   .     S
C94    C129    1.436   .     S
C95    C127    1.452   .     S
C96    C99     1.460   .     S
C97    C98     1.475   .     S
C98    C101    1.401   .     A
C98    C102    1.415   .     A
C99    C114    1.411   .     A
C99    C115    1.397   .     A
C100   C101    1.389   .     A
C100   H119    1.084   .     S
C100   C104    1.400   .     A
C101   H120    1.083   .     S
C102   C135    1.533   .     S
C102   C103    1.430   .     A
C103   C104    1.415   .     A
C103   C105    1.418   .     A
C104   C774    1.396   .     S
C105   C109    1.408   .     A
C105   C772    1.423   .     S
C106   C112    1.426   .     A
C106   C107    1.433   .     A
C106   C771    1.423   1_554 S
C107   C108    1.404   .     A
C107   C142    1.529   .     S
C108   H116    1.085   .     S
C108   C770    1.396   1_554 S
C109   C110    1.388   .     A
C109   H121    1.078   .     S
C110   H118    1.084   .     S
C110   C777    1.394   .     S
C111   C112    1.418   .     A
C111   C113    1.402   .     A
C111   C776    1.394   1_554 S
C112   C115    1.403   .     A
C113   C114    1.399   .     A
C113   H122    1.085   .     S
C114   C131    1.508   .     S
C115   H117    1.076   .     S
C123   H198    1.088   .     S
C123   C199    1.334   .     S
H126   C199    1.086   .     S
C127   H350    1.088   .     S
C127   C351    1.332   .     S
H128   C571    1.088   1_545 S
C129   C571    1.332   1_545 S
C129   H574    1.086   1_545 S
H130   C351    1.086   .     S
C131   H133    1.110   .     S
C131   H134    1.111   .     S
C131   H132    1.108   .     S
C135   H140    1.104   .     S
C135   H141    1.110   .     S
C135   C136    1.530   .     S
C136   H138    1.108   .     S
C136   H137    1.111   .     S
C136   H139    1.111   .     S
C142   H148    1.112   .     S
C142   C143    1.529   .     S
C142   H147    1.102   .     S
C143   H145    1.108   .     S
C143   H144    1.111   .     S
C143   H146    1.111   .     S
Zn149  O153    1.950   .     S
Zn149  O161    1.917   .     S
Zn149  O155    1.925   .     S
Zn149  O162    1.930   .     S
Zn150  O164    1.929   .     S
Zn150  O153    1.937   .     S
Zn150  O158    1.919   .     S
Zn150  O156    1.936   .     S
Zn151  O160    1.922   .     S
Zn151  O157    1.932   .     S
Zn151  O153    1.932   .     S
Zn151  O165    1.935   .     S
Zn152  O154    1.931   .     S
Zn152  O159    1.926   .     S
Zn152  O153    1.934   .     S
Zn152  O163    1.931   .     S
O154   C166    1.268   .     A
O155   C167    1.275   .     A
O156   C168    1.273   .     A
O157   C169    1.270   .     A
O158   C170    1.274   .     A
O159   C171    1.283   .     A
O160   C170    1.276   .     A
O161   C171    1.285   .     A
O162   C168    1.273   .     A
O163   C169    1.270   .     A
O164   C166    1.269   .     A
O165   C167    1.277   .     A
C166   C199    1.437   .     S
C167   C197    1.454   .     S
C168   C203    1.436   .     S
C169   C201    1.452   .     S
C170   C173    1.460   .     S
C171   C172    1.475   .     S
C172   C175    1.401   .     A
C172   C176    1.415   .     A
C173   C188    1.411   .     A
C173   C189    1.397   .     A
C174   C175    1.389   .     A
C174   H193    1.084   .     S
C174   C178    1.400   .     A
C175   H194    1.083   .     S
C176   C209    1.533   .     S
C176   C177    1.430   .     A
C177   C178    1.415   .     A
C177   C179    1.418   .     A
C178   C848    1.396   .     S
C179   C183    1.408   .     A
C179   C846    1.423   .     S
C180   C186    1.426   .     A
C180   C181    1.433   .     A
C180   C845    1.423   1_554 S
C181   C182    1.404   .     A
C181   C216    1.529   .     S
C182   H190    1.085   .     S
C182   C844    1.396   1_554 S
C183   C184    1.388   .     A
C183   H195    1.078   .     S
C184   H192    1.084   .     S
C184   C851    1.394   .     S
C185   C186    1.418   .     A
C185   C187    1.402   .     A
C185   C850    1.394   1_554 S
C186   C189    1.403   .     A
C187   C188    1.399   .     A
C187   H196    1.085   .     S
C188   C205    1.508   .     S
C189   H191    1.076   .     S
C197   H50     1.088   1_655 S
C197   C51     1.334   1_655 S
H200   C51     1.086   1_655 S
C201   H424    1.088   .     S
C201   C425    1.332   .     S
H202   C645    1.088   1_545 S
C203   C645    1.332   1_545 S
C203   H648    1.086   1_545 S
H204   C425    1.086   .     S
C205   H207    1.110   .     S
C205   H208    1.111   .     S
C205   H206    1.108   .     S
C209   H214    1.104   .     S
C209   H215    1.110   .     S
C209   C210    1.530   .     S
C210   H212    1.108   .     S
C210   H211    1.111   .     S
C210   H213    1.111   .     S
C216   H222    1.112   .     S
C216   C217    1.529   .     S
C216   H221    1.102   .     S
C217   H219    1.108   .     S
C217   H218    1.111   .     S
C217   H220    1.111   .     S
Zn223  O227    1.950   .     S
Zn223  O235    1.917   .     S
Zn223  O229    1.925   .     S
Zn223  O236    1.930   .     S
Zn224  O238    1.929   .     S
Zn224  O227    1.937   .     S
Zn224  O232    1.919   .     S
Zn224  O230    1.936   .     S
Zn225  O234    1.922   .     S
Zn225  O231    1.932   .     S
Zn225  O227    1.932   .     S
Zn225  O239    1.935   .     S
Zn226  O228    1.931   .     S
Zn226  O233    1.926   .     S
Zn226  O227    1.934   .     S
Zn226  O237    1.931   .     S
O228   C240    1.268   .     A
O229   C241    1.275   .     A
O230   C242    1.273   .     A
O231   C243    1.270   .     A
O232   C244    1.274   .     A
O233   C245    1.283   .     A
O234   C244    1.276   .     A
O235   C245    1.285   .     A
O236   C242    1.273   .     A
O237   C243    1.270   .     A
O238   C240    1.269   .     A
O239   C241    1.277   .     A
C240   C273    1.437   .     S
C241   C271    1.454   .     S
C242   C277    1.436   .     S
C243   C275    1.452   .     S
C244   C247    1.460   .     S
C245   C246    1.475   .     S
C246   C249    1.401   .     A
C246   C250    1.415   .     A
C247   C262    1.411   .     A
C247   C263    1.397   .     A
C248   C249    1.389   .     A
C248   H267    1.084   .     S
C248   C252    1.400   .     A
C249   H268    1.083   .     S
C250   C283    1.533   .     S
C250   C251    1.430   .     A
C251   C252    1.415   .     A
C251   C253    1.418   .     A
C252   C922    1.396   .     S
C253   C257    1.408   .     A
C253   C920    1.423   .     S
C254   C260    1.426   .     A
C254   C255    1.433   .     A
C254   C919    1.423   1_554 S
C255   C256    1.404   .     A
C255   C290    1.529   .     S
C256   H264    1.085   .     S
C256   C918    1.396   1_554 S
C257   C258    1.388   .     A
C257   H269    1.078   .     S
C258   H266    1.084   .     S
C258   C925    1.394   .     S
C259   C260    1.418   .     A
C259   C261    1.402   .     A
C259   C924    1.394   1_554 S
C260   C263    1.403   .     A
C261   C262    1.399   .     A
C261   H270    1.085   .     S
C262   C279    1.508   .     S
C263   H265    1.076   .     S
C271   H346    1.088   .     S
C271   C347    1.334   .     S
H272   C419    1.088   1_455 S
C273   C419    1.334   1_455 S
C273   H422    1.086   1_455 S
H274   C347    1.086   .     S
C275   H498    1.088   .     S
C275   C499    1.332   .     S
H278   C499    1.086   .     S
C279   H281    1.110   .     S
C279   H282    1.111   .     S
C279   H280    1.108   .     S
C283   H288    1.104   .     S
C283   H289    1.110   .     S
C283   C284    1.530   .     S
C284   H286    1.108   .     S
C284   H285    1.111   .     S
C284   H287    1.111   .     S
C290   H296    1.112   .     S
C290   C291    1.529   .     S
C290   H295    1.102   .     S
C291   H293    1.108   .     S
C291   H292    1.111   .     S
C291   H294    1.111   .     S
Zn297  O301    1.950   .     S
Zn297  O309    1.917   .     S
Zn297  O303    1.925   .     S
Zn297  O310    1.930   .     S
Zn298  O312    1.929   .     S
Zn298  O301    1.937   .     S
Zn298  O306    1.919   .     S
Zn298  O304    1.936   .     S
Zn299  O308    1.922   .     S
Zn299  O305    1.932   .     S
Zn299  O301    1.932   .     S
Zn299  O313    1.935   .     S
Zn300  O302    1.931   .     S
Zn300  O307    1.926   .     S
Zn300  O301    1.934   .     S
Zn300  O311    1.931   .     S
O302   C314    1.268   .     A
O303   C315    1.275   .     A
O304   C316    1.273   .     A
O305   C317    1.270   .     A
O306   C318    1.274   .     A
O307   C319    1.283   .     A
O308   C318    1.276   .     A
O309   C319    1.285   .     A
O310   C316    1.273   .     A
O311   C317    1.270   .     A
O312   C314    1.269   .     A
O313   C315    1.277   .     A
C314   C347    1.437   .     S
C315   C345    1.454   .     S
C316   C351    1.436   .     S
C317   C349    1.452   .     S
C318   C321    1.460   .     S
C319   C320    1.475   .     S
C320   C323    1.401   .     A
C320   C324    1.415   .     A
C321   C336    1.411   .     A
C321   C337    1.397   .     A
C322   C323    1.389   .     A
C322   H341    1.084   .     S
C322   C326    1.400   .     A
C323   H342    1.083   .     S
C324   C357    1.533   .     S
C324   C325    1.430   .     A
C325   C326    1.415   .     A
C325   C327    1.418   .     A
C326   C996    1.396   .     S
C327   C331    1.408   .     A
C327   C994    1.423   .     S
C328   C334    1.426   .     A
C328   C329    1.433   .     A
C328   C993    1.423   1_554 S
C329   C330    1.404   .     A
C329   C364    1.529   .     S
C330   H338    1.085   .     S
C330   C992    1.396   1_554 S
C331   C332    1.388   .     A
C331   H343    1.078   .     S
C332   H340    1.084   .     S
C332   C999    1.394   .     S
C333   C334    1.418   .     A
C333   C335    1.402   .     A
C333   C998    1.394   1_554 S
C334   C337    1.403   .     A
C335   C336    1.399   .     A
C335   H344    1.085   .     S
C336   C353    1.508   .     S
C337   H339    1.076   .     S
C345   H420    1.088   .     S
C345   C421    1.334   .     S
H348   C421    1.086   .     S
C349   H572    1.088   .     S
C349   C573    1.332   .     S
H352   C573    1.086   .     S
C353   H355    1.110   .     S
C353   H356    1.111   .     S
C353   H354    1.108   .     S
C357   H362    1.104   .     S
C357   H363    1.110   .     S
C357   C358    1.530   .     S
C358   H360    1.108   .     S
C358   H359    1.111   .     S
C358   H361    1.111   .     S
C364   H370    1.112   .     S
C364   C365    1.529   .     S
C364   H369    1.102   .     S
C365   H367    1.108   .     S
C365   H366    1.111   .     S
C365   H368    1.111   .     S
Zn371  O375    1.950   .     S
Zn371  O383    1.917   .     S
Zn371  O377    1.925   .     S
Zn371  O384    1.930   .     S
Zn372  O386    1.929   .     S
Zn372  O375    1.937   .     S
Zn372  O380    1.919   .     S
Zn372  O378    1.936   .     S
Zn373  O382    1.922   .     S
Zn373  O379    1.932   .     S
Zn373  O375    1.932   .     S
Zn373  O387    1.935   .     S
Zn374  O376    1.931   .     S
Zn374  O381    1.926   .     S
Zn374  O375    1.934   .     S
Zn374  O385    1.931   .     S
O376   C388    1.268   .     A
O377   C389    1.275   .     A
O378   C390    1.273   .     A
O379   C391    1.270   .     A
O380   C392    1.274   .     A
O381   C393    1.283   .     A
O382   C392    1.276   .     A
O383   C393    1.285   .     A
O384   C390    1.273   .     A
O385   C391    1.270   .     A
O386   C388    1.269   .     A
O387   C389    1.277   .     A
C388   C421    1.437   .     S
C389   C419    1.454   .     S
C390   C425    1.436   .     S
C391   C423    1.452   .     S
C392   C395    1.460   .     S
C393   C394    1.475   .     S
C394   C397    1.401   .     A
C394   C398    1.415   .     A
C395   C410    1.411   .     A
C395   C411    1.397   .     A
C396   C397    1.389   .     A
C396   H415    1.084   .     S
C396   C400    1.400   .     A
C397   H416    1.083   .     S
C398   C431    1.533   .     S
C398   C399    1.430   .     A
C399   C400    1.415   .     A
C399   C401    1.418   .     A
C400   C1070   1.396   .     S
C401   C405    1.408   .     A
C401   C1068   1.423   .     S
C402   C408    1.426   .     A
C402   C403    1.433   .     A
C402   C1067   1.423   1_554 S
C403   C404    1.404   .     A
C403   C438    1.529   .     S
C404   H412    1.085   .     S
C404   C1066   1.396   1_554 S
C405   C406    1.388   .     A
C405   H417    1.078   .     S
C406   H414    1.084   .     S
C406   C1073   1.394   .     S
C407   C408    1.418   .     A
C407   C409    1.402   .     A
C407   C1072   1.394   1_554 S
C408   C411    1.403   .     A
C409   C410    1.399   .     A
C409   H418    1.085   .     S
C410   C427    1.508   .     S
C411   H413    1.076   .     S
C419   H272    1.088   1_655 S
C419   C273    1.334   1_655 S
H422   C273    1.086   1_655 S
C423   H646    1.088   .     S
C423   C647    1.332   .     S
H426   C647    1.086   .     S
C427   H429    1.110   .     S
C427   H430    1.111   .     S
C427   H428    1.108   .     S
C431   H436    1.104   .     S
C431   H437    1.110   .     S
C431   C432    1.530   .     S
C432   H434    1.108   .     S
C432   H433    1.111   .     S
C432   H435    1.111   .     S
C438   H444    1.112   .     S
C438   C439    1.529   .     S
C438   H443    1.102   .     S
C439   H441    1.108   .     S
C439   H440    1.111   .     S
C439   H442    1.111   .     S
Zn445  O449    1.950   .     S
Zn445  O457    1.917   .     S
Zn445  O451    1.925   .     S
Zn445  O458    1.930   .     S
Zn446  O460    1.929   .     S
Zn446  O449    1.937   .     S
Zn446  O454    1.919   .     S
Zn446  O452    1.936   .     S
Zn447  O456    1.922   .     S
Zn447  O453    1.932   .     S
Zn447  O449    1.932   .     S
Zn447  O461    1.935   .     S
Zn448  O450    1.931   .     S
Zn448  O455    1.926   .     S
Zn448  O449    1.934   .     S
Zn448  O459    1.931   .     S
O450   C462    1.268   .     A
O451   C463    1.275   .     A
O452   C464    1.273   .     A
O453   C465    1.270   .     A
O454   C466    1.274   .     A
O455   C467    1.283   .     A
O456   C466    1.276   .     A
O457   C467    1.285   .     A
O458   C464    1.273   .     A
O459   C465    1.270   .     A
O460   C462    1.269   .     A
O461   C463    1.277   .     A
C462   C495    1.437   .     S
C463   C493    1.454   .     S
C464   C499    1.436   .     S
C465   C497    1.452   .     S
C466   C469    1.460   .     S
C467   C468    1.475   .     S
C468   C471    1.401   .     A
C468   C472    1.415   .     A
C469   C484    1.411   .     A
C469   C485    1.397   .     A
C470   C471    1.389   .     A
C470   H489    1.084   .     S
C470   C474    1.400   .     A
C471   H490    1.083   .     S
C472   C505    1.533   .     S
C472   C473    1.430   .     A
C473   C474    1.415   .     A
C473   C475    1.418   .     A
C474   C1144   1.396   .     S
C475   C479    1.408   .     A
C475   C1142   1.423   .     S
C476   C482    1.426   .     A
C476   C477    1.433   .     A
C476   C1141   1.423   1_554 S
C477   C478    1.404   .     A
C477   C512    1.529   .     S
C478   H486    1.085   .     S
C478   C1140   1.396   1_554 S
C479   C480    1.388   .     A
C479   H491    1.078   .     S
C480   H488    1.084   .     S
C480   C1147   1.394   .     S
C481   C482    1.418   .     A
C481   C483    1.402   .     A
C481   C1146   1.394   1_554 S
C482   C485    1.403   .     A
C483   C484    1.399   .     A
C483   H492    1.085   .     S
C484   C501    1.508   .     S
C485   H487    1.076   .     S
C493   H568    1.088   .     S
C493   C569    1.334   .     S
H494   C641    1.088   1_455 S
C495   C641    1.334   1_455 S
C495   H644    1.086   1_455 S
H496   C569    1.086   .     S
C497   H54     1.088   1_565 S
C497   C55     1.332   1_565 S
H500   C55     1.086   1_565 S
C501   H503    1.110   .     S
C501   H504    1.111   .     S
C501   H502    1.108   .     S
C505   H510    1.104   .     S
C505   H511    1.110   .     S
C505   C506    1.530   .     S
C506   H508    1.108   .     S
C506   H507    1.111   .     S
C506   H509    1.111   .     S
C512   H518    1.112   .     S
C512   C513    1.529   .     S
C512   H517    1.102   .     S
C513   H515    1.108   .     S
C513   H514    1.111   .     S
C513   H516    1.111   .     S
Zn519  O523    1.950   .     S
Zn519  O531    1.917   .     S
Zn519  O525    1.925   .     S
Zn519  O532    1.930   .     S
Zn520  O534    1.929   .     S
Zn520  O523    1.937   .     S
Zn520  O528    1.919   .     S
Zn520  O526    1.936   .     S
Zn521  O530    1.922   .     S
Zn521  O527    1.932   .     S
Zn521  O523    1.932   .     S
Zn521  O535    1.935   .     S
Zn522  O524    1.931   .     S
Zn522  O529    1.926   .     S
Zn522  O523    1.934   .     S
Zn522  O533    1.931   .     S
O524   C536    1.268   .     A
O525   C537    1.275   .     A
O526   C538    1.273   .     A
O527   C539    1.270   .     A
O528   C540    1.274   .     A
O529   C541    1.283   .     A
O530   C540    1.276   .     A
O531   C541    1.285   .     A
O532   C538    1.273   .     A
O533   C539    1.270   .     A
O534   C536    1.269   .     A
O535   C537    1.277   .     A
C536   C569    1.437   .     S
C537   C567    1.454   .     S
C538   C573    1.436   .     S
C539   C571    1.452   .     S
C540   C543    1.460   .     S
C541   C542    1.475   .     S
C542   C545    1.401   .     A
C542   C546    1.415   .     A
C543   C558    1.411   .     A
C543   C559    1.397   .     A
C544   C545    1.389   .     A
C544   H563    1.084   .     S
C544   C548    1.400   .     A
C545   H564    1.083   .     S
C546   C579    1.533   .     S
C546   C547    1.430   .     A
C547   C548    1.415   .     A
C547   C549    1.418   .     A
C548   C1218   1.396   .     S
C549   C553    1.408   .     A
C549   C1216   1.423   .     S
C550   C556    1.426   .     A
C550   C551    1.433   .     A
C550   C1215   1.423   1_554 S
C551   C552    1.404   .     A
C551   C586    1.529   .     S
C552   H560    1.085   .     S
C552   C1214   1.396   1_554 S
C553   C554    1.388   .     A
C553   H565    1.078   .     S
C554   H562    1.084   .     S
C554   C1221   1.394   .     S
C555   C556    1.418   .     A
C555   C557    1.402   .     A
C555   C1220   1.394   1_554 S
C556   C559    1.403   .     A
C557   C558    1.399   .     A
C557   H566    1.085   .     S
C558   C575    1.508   .     S
C559   H561    1.076   .     S
C567   H642    1.088   .     S
C567   C643    1.334   .     S
H570   C643    1.086   .     S
C571   H128    1.088   1_565 S
C571   C129    1.332   1_565 S
H574   C129    1.086   1_565 S
C575   H577    1.110   .     S
C575   H578    1.111   .     S
C575   H576    1.108   .     S
C579   H584    1.104   .     S
C579   H585    1.110   .     S
C579   C580    1.530   .     S
C580   H582    1.108   .     S
C580   H581    1.111   .     S
C580   H583    1.111   .     S
C586   H592    1.112   .     S
C586   C587    1.529   .     S
C586   H591    1.102   .     S
C587   H589    1.108   .     S
C587   H588    1.111   .     S
C587   H590    1.111   .     S
Zn593  O597    1.950   .     S
Zn593  O605    1.917   .     S
Zn593  O599    1.925   .     S
Zn593  O606    1.930   .     S
Zn594  O608    1.929   .     S
Zn594  O597    1.937   .     S
Zn594  O602    1.919   .     S
Zn594  O600    1.936   .     S
Zn595  O604    1.922   .     S
Zn595  O601    1.932   .     S
Zn595  O597    1.932   .     S
Zn595  O609    1.935   .     S
Zn596  O598    1.931   .     S
Zn596  O603    1.926   .     S
Zn596  O597    1.934   .     S
Zn596  O607    1.931   .     S
O598   C610    1.268   .     A
O599   C611    1.275   .     A
O600   C612    1.273   .     A
O601   C613    1.270   .     A
O602   C614    1.274   .     A
O603   C615    1.283   .     A
O604   C614    1.276   .     A
O605   C615    1.285   .     A
O606   C612    1.273   .     A
O607   C613    1.270   .     A
O608   C610    1.269   .     A
O609   C611    1.277   .     A
C610   C643    1.437   .     S
C611   C641    1.454   .     S
C612   C647    1.436   .     S
C613   C645    1.452   .     S
C614   C617    1.460   .     S
C615   C616    1.475   .     S
C616   C619    1.401   .     A
C616   C620    1.415   .     A
C617   C632    1.411   .     A
C617   C633    1.397   .     A
C618   C619    1.389   .     A
C618   H637    1.084   .     S
C618   C622    1.400   .     A
C619   H638    1.083   .     S
C620   C653    1.533   .     S
C620   C621    1.430   .     A
C621   C622    1.415   .     A
C621   C623    1.418   .     A
C622   C1292   1.396   .     S
C623   C627    1.408   .     A
C623   C1290   1.423   .     S
C624   C630    1.426   .     A
C624   C625    1.433   .     A
C624   C1289   1.423   1_554 S
C625   C626    1.404   .     A
C625   C660    1.529   .     S
C626   H634    1.085   .     S
C626   C1288   1.396   1_554 S
C627   C628    1.388   .     A
C627   H639    1.078   .     S
C628   H636    1.084   .     S
C628   C1295   1.394   .     S
C629   C630    1.418   .     A
C629   C631    1.402   .     A
C629   C1294   1.394   1_554 S
C630   C633    1.403   .     A
C631   C632    1.399   .     A
C631   H640    1.085   .     S
C632   C649    1.508   .     S
C633   H635    1.076   .     S
C641   H494    1.088   1_655 S
C641   C495    1.334   1_655 S
H644   C495    1.086   1_655 S
C645   H202    1.088   1_565 S
C645   C203    1.332   1_565 S
H648   C203    1.086   1_565 S
C649   H651    1.110   .     S
C649   H652    1.111   .     S
C649   H650    1.108   .     S
C653   H658    1.104   .     S
C653   H659    1.110   .     S
C653   C654    1.530   .     S
C654   H656    1.108   .     S
C654   H655    1.111   .     S
C654   H657    1.111   .     S
C660   H666    1.112   .     S
C660   C661    1.529   .     S
C660   H665    1.102   .     S
C661   H663    1.108   .     S
C661   H662    1.111   .     S
C661   H664    1.111   .     S
Zn667  O671    1.950   .     S
Zn667  O679    1.917   .     S
Zn667  O673    1.925   .     S
Zn667  O680    1.930   .     S
Zn668  O682    1.929   .     S
Zn668  O671    1.937   .     S
Zn668  O676    1.919   .     S
Zn668  O674    1.936   .     S
Zn669  O678    1.922   .     S
Zn669  O675    1.932   .     S
Zn669  O671    1.932   .     S
Zn669  O683    1.935   .     S
Zn670  O672    1.931   .     S
Zn670  O677    1.926   .     S
Zn670  O671    1.934   .     S
Zn670  O681    1.931   .     S
O672   C684    1.268   .     A
O673   C685    1.275   .     A
O674   C686    1.273   .     A
O675   C687    1.270   .     A
O676   C688    1.274   .     A
O677   C689    1.283   .     A
O678   C688    1.276   .     A
O679   C689    1.285   .     A
O680   C686    1.273   .     A
O681   C687    1.270   .     A
O682   C684    1.269   .     A
O683   C685    1.277   .     A
C684   C717    1.437   .     S
C685   C715    1.454   .     S
C686   C721    1.436   .     S
C687   C719    1.452   .     S
C688   C691    1.460   .     S
C689   C690    1.475   .     S
C690   C693    1.401   .     A
C690   C694    1.415   .     A
C691   C706    1.411   .     A
C691   C707    1.397   .     A
C692   C693    1.389   .     A
C692   H711    1.084   .     S
C692   C696    1.400   .     A
C693   H712    1.083   .     S
C694   C727    1.533   .     S
C694   C695    1.430   .     A
C695   C696    1.415   .     A
C695   C697    1.418   .     A
C696   C34     1.396   1_556 S
C697   C701    1.408   .     A
C697   C32     1.423   1_556 S
C698   C704    1.426   .     A
C698   C699    1.433   .     A
C699   C700    1.404   .     A
C699   C734    1.529   .     S
C700   H708    1.085   .     S
C701   C702    1.388   .     A
C701   H713    1.078   .     S
C702   H710    1.084   .     S
C702   C37     1.394   1_556 S
C703   C704    1.418   .     A
C703   C705    1.402   .     A
C704   C707    1.403   .     A
C705   C706    1.399   .     A
C705   H714    1.085   .     S
C706   C723    1.508   .     S
C707   H709    1.076   .     S
C715   H790    1.088   .     S
C715   C791    1.334   .     S
H716   C863    1.088   1_455 S
C717   C863    1.334   1_455 S
C717   H866    1.086   1_455 S
H718   C791    1.086   .     S
C719   H942    1.088   .     S
C719   C943    1.332   .     S
H720   C1163   1.088   1_545 S
C721   C1163   1.332   1_545 S
C721   H1166   1.086   1_545 S
H722   C943    1.086   .     S
C723   H725    1.110   .     S
C723   H726    1.111   .     S
C723   H724    1.108   .     S
C727   H732    1.104   .     S
C727   H733    1.110   .     S
C727   C728    1.530   .     S
C728   H730    1.108   .     S
C728   H729    1.111   .     S
C728   H731    1.111   .     S
C734   H740    1.112   .     S
C734   C735    1.529   .     S
C734   H739    1.102   .     S
C735   H737    1.108   .     S
C735   H736    1.111   .     S
C735   H738    1.111   .     S
Zn741  O745    1.950   .     S
Zn741  O753    1.917   .     S
Zn741  O747    1.925   .     S
Zn741  O754    1.930   .     S
Zn742  O756    1.929   .     S
Zn742  O745    1.937   .     S
Zn742  O750    1.919   .     S
Zn742  O748    1.936   .     S
Zn743  O752    1.922   .     S
Zn743  O749    1.932   .     S
Zn743  O745    1.932   .     S
Zn743  O757    1.935   .     S
Zn744  O746    1.931   .     S
Zn744  O751    1.926   .     S
Zn744  O745    1.934   .     S
Zn744  O755    1.931   .     S
O746   C758    1.268   .     A
O747   C759    1.275   .     A
O748   C760    1.273   .     A
O749   C761    1.270   .     A
O750   C762    1.274   .     A
O751   C763    1.283   .     A
O752   C762    1.276   .     A
O753   C763    1.285   .     A
O754   C760    1.273   .     A
O755   C761    1.270   .     A
O756   C758    1.269   .     A
O757   C759    1.277   .     A
C758   C791    1.437   .     S
C759   C789    1.454   .     S
C760   C795    1.436   .     S
C761   C793    1.452   .     S
C762   C765    1.460   .     S
C763   C764    1.475   .     S
C764   C767    1.401   .     A
C764   C768    1.415   .     A
C765   C780    1.411   .     A
C765   C781    1.397   .     A
C766   C767    1.389   .     A
C766   H785    1.084   .     S
C766   C770    1.400   .     A
C767   H786    1.083   .     S
C768   C801    1.533   .     S
C768   C769    1.430   .     A
C769   C770    1.415   .     A
C769   C771    1.418   .     A
C770   C108    1.396   1_556 S
C771   C775    1.408   .     A
C771   C106    1.423   1_556 S
C772   C778    1.426   .     A
C772   C773    1.433   .     A
C773   C774    1.404   .     A
C773   C808    1.529   .     S
C774   H782    1.085   .     S
C775   C776    1.388   .     A
C775   H787    1.078   .     S
C776   H784    1.084   .     S
C776   C111    1.394   1_556 S
C777   C778    1.418   .     A
C777   C779    1.402   .     A
C778   C781    1.403   .     A
C779   C780    1.399   .     A
C779   H788    1.085   .     S
C780   C797    1.508   .     S
C781   H783    1.076   .     S
C789   H864    1.088   .     S
C789   C865    1.334   .     S
H792   C865    1.086   .     S
C793   H1016   1.088   .     S
C793   C1017   1.332   .     S
H794   C1237   1.088   1_545 S
C795   C1237   1.332   1_545 S
C795   H1240   1.086   1_545 S
H796   C1017   1.086   .     S
C797   H799    1.110   .     S
C797   H800    1.111   .     S
C797   H798    1.108   .     S
C801   H806    1.104   .     S
C801   H807    1.110   .     S
C801   C802    1.530   .     S
C802   H804    1.108   .     S
C802   H803    1.111   .     S
C802   H805    1.111   .     S
C808   H814    1.112   .     S
C808   C809    1.529   .     S
C808   H813    1.102   .     S
C809   H811    1.108   .     S
C809   H810    1.111   .     S
C809   H812    1.111   .     S
Zn815  O819    1.950   .     S
Zn815  O827    1.917   .     S
Zn815  O821    1.925   .     S
Zn815  O828    1.930   .     S
Zn816  O830    1.929   .     S
Zn816  O819    1.937   .     S
Zn816  O824    1.919   .     S
Zn816  O822    1.936   .     S
Zn817  O826    1.922   .     S
Zn817  O823    1.932   .     S
Zn817  O819    1.932   .     S
Zn817  O831    1.935   .     S
Zn818  O820    1.931   .     S
Zn818  O825    1.926   .     S
Zn818  O819    1.934   .     S
Zn818  O829    1.931   .     S
O820   C832    1.268   .     A
O821   C833    1.275   .     A
O822   C834    1.273   .     A
O823   C835    1.270   .     A
O824   C836    1.274   .     A
O825   C837    1.283   .     A
O826   C836    1.276   .     A
O827   C837    1.285   .     A
O828   C834    1.273   .     A
O829   C835    1.270   .     A
O830   C832    1.269   .     A
O831   C833    1.277   .     A
C832   C865    1.437   .     S
C833   C863    1.454   .     S
C834   C869    1.436   .     S
C835   C867    1.452   .     S
C836   C839    1.460   .     S
C837   C838    1.475   .     S
C838   C841    1.401   .     A
C838   C842    1.415   .     A
C839   C854    1.411   .     A
C839   C855    1.397   .     A
C840   C841    1.389   .     A
C840   H859    1.084   .     S
C840   C844    1.400   .     A
C841   H860    1.083   .     S
C842   C875    1.533   .     S
C842   C843    1.430   .     A
C843   C844    1.415   .     A
C843   C845    1.418   .     A
C844   C182    1.396   1_556 S
C845   C849    1.408   .     A
C845   C180    1.423   1_556 S
C846   C852    1.426   .     A
C846   C847    1.433   .     A
C847   C848    1.404   .     A
C847   C882    1.529   .     S
C848   H856    1.085   .     S
C849   C850    1.388   .     A
C849   H861    1.078   .     S
C850   H858    1.084   .     S
C850   C185    1.394   1_556 S
C851   C852    1.418   .     A
C851   C853    1.402   .     A
C852   C855    1.403   .     A
C853   C854    1.399   .     A
C853   H862    1.085   .     S
C854   C871    1.508   .     S
C855   H857    1.076   .     S
C863   H716    1.088   1_655 S
C863   C717    1.334   1_655 S
H866   C717    1.086   1_655 S
C867   H1090   1.088   .     S
C867   C1091   1.332   .     S
H868   C1311   1.088   1_545 S
C869   C1311   1.332   1_545 S
C869   H1314   1.086   1_545 S
H870   C1091   1.086   .     S
C871   H873    1.110   .     S
C871   H874    1.111   .     S
C871   H872    1.108   .     S
C875   H880    1.104   .     S
C875   H881    1.110   .     S
C875   C876    1.530   .     S
C876   H878    1.108   .     S
C876   H877    1.111   .     S
C876   H879    1.111   .     S
C882   H888    1.112   .     S
C882   C883    1.529   .     S
C882   H887    1.102   .     S
C883   H885    1.108   .     S
C883   H884    1.111   .     S
C883   H886    1.111   .     S
Zn889  O893    1.950   .     S
Zn889  O901    1.917   .     S
Zn889  O895    1.925   .     S
Zn889  O902    1.930   .     S
Zn890  O904    1.929   .     S
Zn890  O893    1.937   .     S
Zn890  O898    1.919   .     S
Zn890  O896    1.936   .     S
Zn891  O900    1.922   .     S
Zn891  O897    1.932   .     S
Zn891  O893    1.932   .     S
Zn891  O905    1.935   .     S
Zn892  O894    1.931   .     S
Zn892  O899    1.926   .     S
Zn892  O893    1.934   .     S
Zn892  O903    1.931   .     S
O894   C906    1.268   .     A
O895   C907    1.275   .     A
O896   C908    1.273   .     A
O897   C909    1.270   .     A
O898   C910    1.274   .     A
O899   C911    1.283   .     A
O900   C910    1.276   .     A
O901   C911    1.285   .     A
O902   C908    1.273   .     A
O903   C909    1.270   .     A
O904   C906    1.269   .     A
O905   C907    1.277   .     A
C906   C939    1.437   .     S
C907   C937    1.454   .     S
C908   C943    1.436   .     S
C909   C941    1.452   .     S
C910   C913    1.460   .     S
C911   C912    1.475   .     S
C912   C915    1.401   .     A
C912   C916    1.415   .     A
C913   C928    1.411   .     A
C913   C929    1.397   .     A
C914   C915    1.389   .     A
C914   H933    1.084   .     S
C914   C918    1.400   .     A
C915   H934    1.083   .     S
C916   C949    1.533   .     S
C916   C917    1.430   .     A
C917   C918    1.415   .     A
C917   C919    1.418   .     A
C918   C256    1.396   1_556 S
C919   C923    1.408   .     A
C919   C254    1.423   1_556 S
C920   C926    1.426   .     A
C920   C921    1.433   .     A
C921   C922    1.404   .     A
C921   C956    1.529   .     S
C922   H930    1.085   .     S
C923   C924    1.388   .     A
C923   H935    1.078   .     S
C924   H932    1.084   .     S
C924   C259    1.394   1_556 S
C925   C926    1.418   .     A
C925   C927    1.402   .     A
C926   C929    1.403   .     A
C927   C928    1.399   .     A
C927   H936    1.085   .     S
C928   C945    1.508   .     S
C929   H931    1.076   .     S
C937   H1012   1.088   .     S
C937   C1013   1.334   .     S
H938   C1085   1.088   1_455 S
C939   C1085   1.334   1_455 S
C939   H1088   1.086   1_455 S
H940   C1013   1.086   .     S
C941   H1164   1.088   .     S
C941   C1165   1.332   .     S
H944   C1165   1.086   .     S
C945   H947    1.110   .     S
C945   H948    1.111   .     S
C945   H946    1.108   .     S
C949   H954    1.104   .     S
C949   H955    1.110   .     S
C949   C950    1.530   .     S
C950   H952    1.108   .     S
C950   H951    1.111   .     S
C950   H953    1.111   .     S
C956   H962    1.112   .     S
C956   C957    1.529   .     S
C956   H961    1.102   .     S
C957   H959    1.108   .     S
C957   H958    1.111   .     S
C957   H960    1.111   .     S
Zn963  O967    1.950   .     S
Zn963  O975    1.917   .     S
Zn963  O969    1.925   .     S
Zn963  O976    1.930   .     S
Zn964  O978    1.929   .     S
Zn964  O967    1.937   .     S
Zn964  O972    1.919   .     S
Zn964  O970    1.936   .     S
Zn965  O974    1.922   .     S
Zn965  O971    1.932   .     S
Zn965  O967    1.932   .     S
Zn965  O979    1.935   .     S
Zn966  O968    1.931   .     S
Zn966  O973    1.926   .     S
Zn966  O967    1.934   .     S
Zn966  O977    1.931   .     S
O968   C980    1.268   .     A
O969   C981    1.275   .     A
O970   C982    1.273   .     A
O971   C983    1.270   .     A
O972   C984    1.274   .     A
O973   C985    1.283   .     A
O974   C984    1.276   .     A
O975   C985    1.285   .     A
O976   C982    1.273   .     A
O977   C983    1.270   .     A
O978   C980    1.269   .     A
O979   C981    1.277   .     A
C980   C1013   1.437   .     S
C981   C1011   1.454   .     S
C982   C1017   1.436   .     S
C983   C1015   1.452   .     S
C984   C987    1.460   .     S
C985   C986    1.475   .     S
C986   C989    1.401   .     A
C986   C990    1.415   .     A
C987   C1002   1.411   .     A
C987   C1003   1.397   .     A
C988   C989    1.389   .     A
C988   H1007   1.084   .     S
C988   C992    1.400   .     A
C989   H1008   1.083   .     S
C990   C1023   1.533   .     S
C990   C991    1.430   .     A
C991   C992    1.415   .     A
C991   C993    1.418   .     A
C992   C330    1.396   1_556 S
C993   C997    1.408   .     A
C993   C328    1.423   1_556 S
C994   C1000   1.426   .     A
C994   C995    1.433   .     A
C995   C996    1.404   .     A
C995   C1030   1.529   .     S
C996   H1004   1.085   .     S
C997   C998    1.388   .     A
C997   H1009   1.078   .     S
C998   H1006   1.084   .     S
C998   C333    1.394   1_556 S
C999   C1000   1.418   .     A
C999   C1001   1.402   .     A
C1000  C1003   1.403   .     A
C1001  C1002   1.399   .     A
C1001  H1010   1.085   .     S
C1002  C1019   1.508   .     S
C1003  H1005   1.076   .     S
C1011  H1086   1.088   .     S
C1011  C1087   1.334   .     S
H1014  C1087   1.086   .     S
C1015  H1238   1.088   .     S
C1015  C1239   1.332   .     S
H1018  C1239   1.086   .     S
C1019  H1021   1.110   .     S
C1019  H1022   1.111   .     S
C1019  H1020   1.108   .     S
C1023  H1028   1.104   .     S
C1023  H1029   1.110   .     S
C1023  C1024   1.530   .     S
C1024  H1026   1.108   .     S
C1024  H1025   1.111   .     S
C1024  H1027   1.111   .     S
C1030  H1036   1.112   .     S
C1030  C1031   1.529   .     S
C1030  H1035   1.102   .     S
C1031  H1033   1.108   .     S
C1031  H1032   1.111   .     S
C1031  H1034   1.111   .     S
Zn1037 O1041   1.950   .     S
Zn1037 O1049   1.917   .     S
Zn1037 O1043   1.925   .     S
Zn1037 O1050   1.930   .     S
Zn1038 O1052   1.929   .     S
Zn1038 O1041   1.937   .     S
Zn1038 O1046   1.919   .     S
Zn1038 O1044   1.936   .     S
Zn1039 O1048   1.922   .     S
Zn1039 O1045   1.932   .     S
Zn1039 O1041   1.932   .     S
Zn1039 O1053   1.935   .     S
Zn1040 O1042   1.931   .     S
Zn1040 O1047   1.926   .     S
Zn1040 O1041   1.934   .     S
Zn1040 O1051   1.931   .     S
O1042  C1054   1.268   .     A
O1043  C1055   1.275   .     A
O1044  C1056   1.273   .     A
O1045  C1057   1.270   .     A
O1046  C1058   1.274   .     A
O1047  C1059   1.283   .     A
O1048  C1058   1.276   .     A
O1049  C1059   1.285   .     A
O1050  C1056   1.273   .     A
O1051  C1057   1.270   .     A
O1052  C1054   1.269   .     A
O1053  C1055   1.277   .     A
C1054  C1087   1.437   .     S
C1055  C1085   1.454   .     S
C1056  C1091   1.436   .     S
C1057  C1089   1.452   .     S
C1058  C1061   1.460   .     S
C1059  C1060   1.475   .     S
C1060  C1063   1.401   .     A
C1060  C1064   1.415   .     A
C1061  C1076   1.411   .     A
C1061  C1077   1.397   .     A
C1062  C1063   1.389   .     A
C1062  H1081   1.084   .     S
C1062  C1066   1.400   .     A
C1063  H1082   1.083   .     S
C1064  C1097   1.533   .     S
C1064  C1065   1.430   .     A
C1065  C1066   1.415   .     A
C1065  C1067   1.418   .     A
C1066  C404    1.396   1_556 S
C1067  C1071   1.408   .     A
C1067  C402    1.423   1_556 S
C1068  C1074   1.426   .     A
C1068  C1069   1.433   .     A
C1069  C1070   1.404   .     A
C1069  C1104   1.529   .     S
C1070  H1078   1.085   .     S
C1071  C1072   1.388   .     A
C1071  H1083   1.078   .     S
C1072  H1080   1.084   .     S
C1072  C407    1.394   1_556 S
C1073  C1074   1.418   .     A
C1073  C1075   1.402   .     A
C1074  C1077   1.403   .     A
C1075  C1076   1.399   .     A
C1075  H1084   1.085   .     S
C1076  C1093   1.508   .     S
C1077  H1079   1.076   .     S
C1085  H938    1.088   1_655 S
C1085  C939    1.334   1_655 S
H1088  C939    1.086   1_655 S
C1089  H1312   1.088   .     S
C1089  C1313   1.332   .     S
H1092  C1313   1.086   .     S
C1093  H1095   1.110   .     S
C1093  H1096   1.111   .     S
C1093  H1094   1.108   .     S
C1097  H1102   1.104   .     S
C1097  H1103   1.110   .     S
C1097  C1098   1.530   .     S
C1098  H1100   1.108   .     S
C1098  H1099   1.111   .     S
C1098  H1101   1.111   .     S
C1104  H1110   1.112   .     S
C1104  C1105   1.529   .     S
C1104  H1109   1.102   .     S
C1105  H1107   1.108   .     S
C1105  H1106   1.111   .     S
C1105  H1108   1.111   .     S
Zn1111 O1115   1.950   .     S
Zn1111 O1123   1.917   .     S
Zn1111 O1117   1.925   .     S
Zn1111 O1124   1.930   .     S
Zn1112 O1126   1.929   .     S
Zn1112 O1115   1.937   .     S
Zn1112 O1120   1.919   .     S
Zn1112 O1118   1.936   .     S
Zn1113 O1122   1.922   .     S
Zn1113 O1119   1.932   .     S
Zn1113 O1115   1.932   .     S
Zn1113 O1127   1.935   .     S
Zn1114 O1116   1.931   .     S
Zn1114 O1121   1.926   .     S
Zn1114 O1115   1.934   .     S
Zn1114 O1125   1.931   .     S
O1116  C1128   1.268   .     A
O1117  C1129   1.275   .     A
O1118  C1130   1.273   .     A
O1119  C1131   1.270   .     A
O1120  C1132   1.274   .     A
O1121  C1133   1.283   .     A
O1122  C1132   1.276   .     A
O1123  C1133   1.285   .     A
O1124  C1130   1.273   .     A
O1125  C1131   1.270   .     A
O1126  C1128   1.269   .     A
O1127  C1129   1.277   .     A
C1128  C1161   1.437   .     S
C1129  C1159   1.454   .     S
C1130  C1165   1.436   .     S
C1131  C1163   1.452   .     S
C1132  C1135   1.460   .     S
C1133  C1134   1.475   .     S
C1134  C1137   1.401   .     A
C1134  C1138   1.415   .     A
C1135  C1150   1.411   .     A
C1135  C1151   1.397   .     A
C1136  C1137   1.389   .     A
C1136  H1155   1.084   .     S
C1136  C1140   1.400   .     A
C1137  H1156   1.083   .     S
C1138  C1171   1.533   .     S
C1138  C1139   1.430   .     A
C1139  C1140   1.415   .     A
C1139  C1141   1.418   .     A
C1140  C478    1.396   1_556 S
C1141  C1145   1.408   .     A
C1141  C476    1.423   1_556 S
C1142  C1148   1.426   .     A
C1142  C1143   1.433   .     A
C1143  C1144   1.404   .     A
C1143  C1178   1.529   .     S
C1144  H1152   1.085   .     S
C1145  C1146   1.388   .     A
C1145  H1157   1.078   .     S
C1146  H1154   1.084   .     S
C1146  C481    1.394   1_556 S
C1147  C1148   1.418   .     A
C1147  C1149   1.402   .     A
C1148  C1151   1.403   .     A
C1149  C1150   1.399   .     A
C1149  H1158   1.085   .     S
C1150  C1167   1.508   .     S
C1151  H1153   1.076   .     S
C1159  H1234   1.088   .     S
C1159  C1235   1.334   .     S
H1160  C1307   1.088   1_455 S
C1161  C1307   1.334   1_455 S
C1161  H1310   1.086   1_455 S
H1162  C1235   1.086   .     S
C1163  H720    1.088   1_565 S
C1163  C721    1.332   1_565 S
H1166  C721    1.086   1_565 S
C1167  H1169   1.110   .     S
C1167  H1170   1.111   .     S
C1167  H1168   1.108   .     S
C1171  H1176   1.104   .     S
C1171  H1177   1.110   .     S
C1171  C1172   1.530   .     S
C1172  H1174   1.108   .     S
C1172  H1173   1.111   .     S
C1172  H1175   1.111   .     S
C1178  H1184   1.112   .     S
C1178  C1179   1.529   .     S
C1178  H1183   1.102   .     S
C1179  H1181   1.108   .     S
C1179  H1180   1.111   .     S
C1179  H1182   1.111   .     S
Zn1185 O1189   1.950   .     S
Zn1185 O1197   1.917   .     S
Zn1185 O1191   1.925   .     S
Zn1185 O1198   1.930   .     S
Zn1186 O1200   1.929   .     S
Zn1186 O1189   1.937   .     S
Zn1186 O1194   1.919   .     S
Zn1186 O1192   1.936   .     S
Zn1187 O1196   1.922   .     S
Zn1187 O1193   1.932   .     S
Zn1187 O1189   1.932   .     S
Zn1187 O1201   1.935   .     S
Zn1188 O1190   1.931   .     S
Zn1188 O1195   1.926   .     S
Zn1188 O1189   1.934   .     S
Zn1188 O1199   1.931   .     S
O1190  C1202   1.268   .     A
O1191  C1203   1.275   .     A
O1192  C1204   1.273   .     A
O1193  C1205   1.270   .     A
O1194  C1206   1.274   .     A
O1195  C1207   1.283   .     A
O1196  C1206   1.276   .     A
O1197  C1207   1.285   .     A
O1198  C1204   1.273   .     A
O1199  C1205   1.270   .     A
O1200  C1202   1.269   .     A
O1201  C1203   1.277   .     A
C1202  C1235   1.437   .     S
C1203  C1233   1.454   .     S
C1204  C1239   1.436   .     S
C1205  C1237   1.452   .     S
C1206  C1209   1.460   .     S
C1207  C1208   1.475   .     S
C1208  C1211   1.401   .     A
C1208  C1212   1.415   .     A
C1209  C1224   1.411   .     A
C1209  C1225   1.397   .     A
C1210  C1211   1.389   .     A
C1210  H1229   1.084   .     S
C1210  C1214   1.400   .     A
C1211  H1230   1.083   .     S
C1212  C1245   1.533   .     S
C1212  C1213   1.430   .     A
C1213  C1214   1.415   .     A
C1213  C1215   1.418   .     A
C1214  C552    1.396   1_556 S
C1215  C1219   1.408   .     A
C1215  C550    1.423   1_556 S
C1216  C1222   1.426   .     A
C1216  C1217   1.433   .     A
C1217  C1218   1.404   .     A
C1217  C1252   1.529   .     S
C1218  H1226   1.085   .     S
C1219  C1220   1.388   .     A
C1219  H1231   1.078   .     S
C1220  H1228   1.084   .     S
C1220  C555    1.394   1_556 S
C1221  C1222   1.418   .     A
C1221  C1223   1.402   .     A
C1222  C1225   1.403   .     A
C1223  C1224   1.399   .     A
C1223  H1232   1.085   .     S
C1224  C1241   1.508   .     S
C1225  H1227   1.076   .     S
C1233  H1308   1.088   .     S
C1233  C1309   1.334   .     S
H1236  C1309   1.086   .     S
C1237  H794    1.088   1_565 S
C1237  C795    1.332   1_565 S
H1240  C795    1.086   1_565 S
C1241  H1243   1.110   .     S
C1241  H1244   1.111   .     S
C1241  H1242   1.108   .     S
C1245  H1250   1.104   .     S
C1245  H1251   1.110   .     S
C1245  C1246   1.530   .     S
C1246  H1248   1.108   .     S
C1246  H1247   1.111   .     S
C1246  H1249   1.111   .     S
C1252  H1258   1.112   .     S
C1252  C1253   1.529   .     S
C1252  H1257   1.102   .     S
C1253  H1255   1.108   .     S
C1253  H1254   1.111   .     S
C1253  H1256   1.111   .     S
Zn1259 O1263   1.950   .     S
Zn1259 O1271   1.917   .     S
Zn1259 O1265   1.925   .     S
Zn1259 O1272   1.930   .     S
Zn1260 O1274   1.929   .     S
Zn1260 O1263   1.937   .     S
Zn1260 O1268   1.919   .     S
Zn1260 O1266   1.936   .     S
Zn1261 O1270   1.922   .     S
Zn1261 O1267   1.932   .     S
Zn1261 O1263   1.932   .     S
Zn1261 O1275   1.935   .     S
Zn1262 O1264   1.931   .     S
Zn1262 O1269   1.926   .     S
Zn1262 O1263   1.934   .     S
Zn1262 O1273   1.931   .     S
O1264  C1276   1.268   .     A
O1265  C1277   1.275   .     A
O1266  C1278   1.273   .     A
O1267  C1279   1.270   .     A
O1268  C1280   1.274   .     A
O1269  C1281   1.283   .     A
O1270  C1280   1.276   .     A
O1271  C1281   1.285   .     A
O1272  C1278   1.273   .     A
O1273  C1279   1.270   .     A
O1274  C1276   1.269   .     A
O1275  C1277   1.277   .     A
C1276  C1309   1.437   .     S
C1277  C1307   1.454   .     S
C1278  C1313   1.436   .     S
C1279  C1311   1.452   .     S
C1280  C1283   1.460   .     S
C1281  C1282   1.475   .     S
C1282  C1285   1.401   .     A
C1282  C1286   1.415   .     A
C1283  C1298   1.411   .     A
C1283  C1299   1.397   .     A
C1284  C1285   1.389   .     A
C1284  H1303   1.084   .     S
C1284  C1288   1.400   .     A
C1285  H1304   1.083   .     S
C1286  C1319   1.533   .     S
C1286  C1287   1.430   .     A
C1287  C1288   1.415   .     A
C1287  C1289   1.418   .     A
C1288  C626    1.396   1_556 S
C1289  C1293   1.408   .     A
C1289  C624    1.423   1_556 S
C1290  C1296   1.426   .     A
C1290  C1291   1.433   .     A
C1291  C1292   1.404   .     A
C1291  C1326   1.529   .     S
C1292  H1300   1.085   .     S
C1293  C1294   1.388   .     A
C1293  H1305   1.078   .     S
C1294  H1302   1.084   .     S
C1294  C629    1.394   1_556 S
C1295  C1296   1.418   .     A
C1295  C1297   1.402   .     A
C1296  C1299   1.403   .     A
C1297  C1298   1.399   .     A
C1297  H1306   1.085   .     S
C1298  C1315   1.508   .     S
C1299  H1301   1.076   .     S
C1307  H1160   1.088   1_655 S
C1307  C1161   1.334   1_655 S
H1310  C1161   1.086   1_655 S
C1311  H868    1.088   1_565 S
C1311  C869    1.332   1_565 S
H1314  C869    1.086   1_565 S
C1315  H1317   1.110   .     S
C1315  H1318   1.111   .     S
C1315  H1316   1.108   .     S
C1319  H1324   1.104   .     S
C1319  H1325   1.110   .     S
C1319  C1320   1.530   .     S
C1320  H1322   1.108   .     S
C1320  H1321   1.111   .     S
C1320  H1323   1.111   .     S
C1326  H1332   1.112   .     S
C1326  C1327   1.529   .     S
C1326  H1331   1.102   .     S
C1327  H1329   1.108   .     S
C1327  H1328   1.111   .     S
C1327  H1330   1.111   .     S
