data_str_m2_o2_o10_pcu_sym.18
_audit_creation_date              2020-01-03
_audit_creation_method            'Materials Studio'
_symmetry_space_group_name_H-M    'P1'
_symmetry_Int_Tables_number       1
_symmetry_cell_setting            triclinic
loop_
_symmetry_equiv_pos_as_xyz
  x,y,z
_cell_length_a                    26.3589
_cell_length_b                    30.0905
_cell_length_c                    28.1630
_cell_angle_alpha                 90.9941
_cell_angle_beta                  97.8828
_cell_angle_gamma                 93.8037
loop_
_atom_site_label
_atom_site_type_symbol
_atom_site_fract_x
_atom_site_fract_y
_atom_site_fract_z
_atom_site_U_iso_or_equiv
_atom_site_adp_type
_atom_site_occupancy
C1     C     0.16787   0.16535   0.24983   0.00000  Uiso   1.00
C2     C     0.18807   0.28433   0.45110   0.00000  Uiso   1.00
C3     C     0.16776   0.24792   0.02744   0.00000  Uiso   1.00
C4     C     0.16794   0.24761   0.47333   0.00000  Uiso   1.00
C5     C     0.06816   0.24840   0.23793   0.00000  Uiso   1.00
C6     C     0.26505   0.24938   0.26221   0.00000  Uiso   1.00
C7     C     0.01309   0.24154   0.23252   0.00000  Uiso   1.00
C8     C     0.32018   0.25236   0.26889   0.00000  Uiso   1.00
C9     C     0.21209   0.05019   0.27200   0.00000  Uiso   1.00
C10    C     0.12383   0.45119   0.25929   0.00000  Uiso   1.00
C11    C     0.21337   0.09676   0.27249   0.00000  Uiso   1.00
C12    C     0.16613   0.33471   0.25027   0.00000  Uiso   1.00
C13    C     0.12190   0.40466   0.26026   0.00000  Uiso   1.00
C14    C     0.17018   0.11735   0.24949   0.00000  Uiso   1.00
C15    C     0.16550   0.38286   0.25082   0.00000  Uiso   1.00
C16    C     0.12764   0.09164   0.22618   0.00000  Uiso   1.00
C17    C     0.20949   0.40743   0.24068   0.00000  Uiso   1.00
C18    C     0.12717   0.04552   0.22564   0.00000  Uiso   1.00
C19    C     0.21090   0.45363   0.24020   0.00000  Uiso   1.00
C20    C     0.16924   0.02452   0.24877   0.00000  Uiso   1.00
C21    C     0.16805   0.47574   0.24943   0.00000  Uiso   1.00
C22    C     0.26112   0.12282   0.29751   0.00000  Uiso   1.00
C23    C     0.20154   0.27671   0.05842   0.00000  Uiso   1.00
C24    C     0.30675   0.11832   0.27012   0.00000  Uiso   1.00
C25    C     0.07217   0.37990   0.26888   0.00000  Uiso   1.00
C26    C     0.06155   0.38729   0.32028   0.00000  Uiso   1.00
C27    C     0.23650   0.31460   0.13638   0.00000  Uiso   1.00
C28    C     0.29203   0.31517   0.12551   0.00000  Uiso   1.00
C29    C     0.10677   0.17860   0.36479   0.00000  Uiso   1.00
C30    C     0.12896   0.13282   0.36837   0.00000  Uiso   1.00
C31    C     0.09781   0.18476   0.11671   0.00000  Uiso   1.00
C32    C     0.11456   0.13789   0.10817   0.00000  Uiso   1.00
C33    C     0.20743   0.33154   0.38490   0.00000  Uiso   1.00
C34    C     0.14564   0.21239   0.44285   0.00000  Uiso   1.00
C35    C     0.25973   0.33215   0.36746   0.00000  Uiso   1.00
C36    C     0.20063   0.27844   0.10851   0.00000  Uiso   1.00
C37    C     0.14271   0.21451   0.39225   0.00000  Uiso   1.00
C38    C     0.13416   0.22004   0.09927   0.00000  Uiso   1.00
C39    C     0.18787   0.28598   0.40093   0.00000  Uiso   1.00
C40    C     0.13331   0.22038   0.04895   0.00000  Uiso   1.00
Cl41   Cl    0.31814   0.21100   0.17997   0.00000  Uiso   1.00
Cl42   Cl    0.01553   0.27474   0.32589   0.00000  Uiso   1.00
Cu43   Cu    0.16667   0.24999   0.29821   0.00000  Uiso   1.00
Cu44   Cu    0.16667   0.25000   0.20179   0.00000  Uiso   1.00
H45    H     0.24431   0.03389   0.29044   0.00000  Uiso   1.00
H46    H     0.20228   0.31349   0.47291   0.00000  Uiso   1.00
H47    H     0.29697   0.12885   0.23259   0.00000  Uiso   1.00
H48    H     0.00686   0.13986   0.28761   0.00000  Uiso   1.00
H49    H     0.31774   0.08333   0.26993   0.00000  Uiso   1.00
H50    H     0.25551   0.15873   0.30149   0.00000  Uiso   1.00
H51    H     0.27063   0.11034   0.33435   0.00000  Uiso   1.00
H52    H     0.02337   0.37120   0.32442   0.00000  Uiso   1.00
H53    H     0.09118   0.37246   0.34585   0.00000  Uiso   1.00
H54    H     0.06114   0.42334   0.32914   0.00000  Uiso   1.00
H55    H     0.04003   0.39191   0.24370   0.00000  Uiso   1.00
H56    H     0.09065   0.46838   0.26630   0.00000  Uiso   1.00
H57    H     0.07220   0.34359   0.26162   0.00000  Uiso   1.00
H58    H     0.30346   0.28098   0.11951   0.00000  Uiso   1.00
H59    H     0.29655   0.33473   0.09311   0.00000  Uiso   1.00
H60    H     0.31861   0.33124   0.15594   0.00000  Uiso   1.00
H61    H     0.22147   0.34750   0.12731   0.00000  Uiso   1.00
H62    H     0.23874   0.31224   0.17507   0.00000  Uiso   1.00
H63    H     0.12808   0.11961   0.40483   0.00000  Uiso   1.00
H64    H     0.10560   0.10910   0.34212   0.00000  Uiso   1.00
H65    H     0.16929   0.13469   0.36090   0.00000  Uiso   1.00
H66    H     0.07001   0.17640   0.38016   0.00000  Uiso   1.00
H67    H     0.09438   0.10738   0.20901   0.00000  Uiso   1.00
H68    H     0.09480   0.18643   0.32725   0.00000  Uiso   1.00
H69    H     0.11485   0.13079   0.06940   0.00000  Uiso   1.00
H70    H     0.15354   0.13417   0.12772   0.00000  Uiso   1.00
H71    H     0.08720   0.11287   0.12123   0.00000  Uiso   1.00
H72    H     0.09372   0.18806   0.15452   0.00000  Uiso   1.00
H73    H     0.05862   0.18750   0.09705   0.00000  Uiso   1.00
H74    H     0.28365   0.30745   0.38693   0.00000  Uiso   1.00
H75    H     0.25607   0.32617   0.32837   0.00000  Uiso   1.00
H76    H     0.28009   0.36563   0.37467   0.00000  Uiso   1.00
H77    H     0.17803   0.34824   0.36157   0.00000  Uiso   1.00
H78    H     0.24284   0.39073   0.23321   0.00000  Uiso   1.00
H79    H     0.21340   0.35593   0.41561   0.00000  Uiso   1.00
H80    H     0.09392   0.02621   0.20716   0.00000  Uiso   1.00
H81    H     0.24517   0.47206   0.23196   0.00000  Uiso   1.00
H82    H     0.22963   0.29821   0.04400   0.00000  Uiso   1.00
H83    H     0.12831   0.18329   0.45786   0.00000  Uiso   1.00
H84    H     0.10501   0.19858   0.02685   0.00000  Uiso   1.00
N85    N     0.16667   0.25001   0.12935   0.00000  Uiso   1.00
N86    N     0.16667   0.24999   0.37065   0.00000  Uiso   1.00
O87    O     0.16667   0.18572   0.29071   0.00000  Uiso   1.00
O88    O     0.16666   0.31427   0.20929   0.00000  Uiso   1.00
O89    O     0.16667   0.18573   0.20928   0.00000  Uiso   1.00
O90    O     0.16666   0.31427   0.29072   0.00000  Uiso   1.00
O91    O     0.09161   0.24999   0.28132   0.00000  Uiso   1.00
O92    O     0.24172   0.25000   0.21868   0.00000  Uiso   1.00
O93    O     0.09161   0.25000   0.19989   0.00000  Uiso   1.00
O94    O     0.24172   0.25000   0.30011   0.00000  Uiso   1.00
C95    C     0.50121   0.16535   0.24983   0.00000  Uiso   1.00
C96    C     0.52140   0.28433   0.45110   0.00000  Uiso   1.00
C97    C     0.50110   0.24792   0.02744   0.00000  Uiso   1.00
C98    C     0.50128   0.24761   0.47333   0.00000  Uiso   1.00
C99    C     0.40149   0.24840   0.23793   0.00000  Uiso   1.00
C100   C     0.59838   0.24938   0.26221   0.00000  Uiso   1.00
C101   C     0.34642   0.24154   0.23252   0.00000  Uiso   1.00
C102   C     0.65351   0.25236   0.26889   0.00000  Uiso   1.00
C103   C     0.54542   0.05019   0.27200   0.00000  Uiso   1.00
C104   C     0.45716   0.45119   0.25929   0.00000  Uiso   1.00
C105   C     0.54670   0.09676   0.27249   0.00000  Uiso   1.00
C106   C     0.49946   0.33471   0.25027   0.00000  Uiso   1.00
C107   C     0.45524   0.40466   0.26026   0.00000  Uiso   1.00
C108   C     0.50352   0.11735   0.24949   0.00000  Uiso   1.00
C109   C     0.49884   0.38286   0.25082   0.00000  Uiso   1.00
C110   C     0.46098   0.09164   0.22618   0.00000  Uiso   1.00
C111   C     0.54282   0.40743   0.24068   0.00000  Uiso   1.00
C112   C     0.46050   0.04552   0.22564   0.00000  Uiso   1.00
C113   C     0.54424   0.45363   0.24020   0.00000  Uiso   1.00
C114   C     0.50257   0.02452   0.24877   0.00000  Uiso   1.00
C115   C     0.50138   0.47574   0.24943   0.00000  Uiso   1.00
C116   C     0.59445   0.12282   0.29751   0.00000  Uiso   1.00
C117   C     0.53487   0.27671   0.05842   0.00000  Uiso   1.00
C118   C     0.64008   0.11832   0.27012   0.00000  Uiso   1.00
C119   C     0.40550   0.37990   0.26888   0.00000  Uiso   1.00
C120   C     0.39488   0.38729   0.32028   0.00000  Uiso   1.00
C121   C     0.56983   0.31460   0.13638   0.00000  Uiso   1.00
C122   C     0.62536   0.31517   0.12551   0.00000  Uiso   1.00
C123   C     0.44010   0.17860   0.36479   0.00000  Uiso   1.00
C124   C     0.46229   0.13282   0.36837   0.00000  Uiso   1.00
C125   C     0.43115   0.18476   0.11671   0.00000  Uiso   1.00
C126   C     0.44789   0.13789   0.10817   0.00000  Uiso   1.00
C127   C     0.54077   0.33154   0.38490   0.00000  Uiso   1.00
C128   C     0.47897   0.21239   0.44285   0.00000  Uiso   1.00
C129   C     0.59307   0.33215   0.36746   0.00000  Uiso   1.00
C130   C     0.53396   0.27844   0.10851   0.00000  Uiso   1.00
C131   C     0.47604   0.21451   0.39225   0.00000  Uiso   1.00
C132   C     0.46749   0.22004   0.09927   0.00000  Uiso   1.00
C133   C     0.52121   0.28598   0.40093   0.00000  Uiso   1.00
C134   C     0.46665   0.22038   0.04895   0.00000  Uiso   1.00
Cl135  Cl    0.65147   0.21100   0.17997   0.00000  Uiso   1.00
Cl136  Cl    0.34887   0.27474   0.32589   0.00000  Uiso   1.00
Cu137  Cu    0.50000   0.24999   0.29821   0.00000  Uiso   1.00
Cu138  Cu    0.50000   0.25000   0.20179   0.00000  Uiso   1.00
H139   H     0.57764   0.03389   0.29044   0.00000  Uiso   1.00
H140   H     0.53562   0.31349   0.47291   0.00000  Uiso   1.00
H141   H     0.63030   0.12885   0.23259   0.00000  Uiso   1.00
H142   H     0.34019   0.13986   0.28761   0.00000  Uiso   1.00
H143   H     0.65107   0.08333   0.26993   0.00000  Uiso   1.00
H144   H     0.58884   0.15873   0.30149   0.00000  Uiso   1.00
H145   H     0.60397   0.11034   0.33435   0.00000  Uiso   1.00
H146   H     0.35671   0.37120   0.32442   0.00000  Uiso   1.00
H147   H     0.42451   0.37246   0.34585   0.00000  Uiso   1.00
H148   H     0.39447   0.42334   0.32914   0.00000  Uiso   1.00
H149   H     0.37336   0.39191   0.24370   0.00000  Uiso   1.00
H150   H     0.42399   0.46838   0.26630   0.00000  Uiso   1.00
H151   H     0.40554   0.34359   0.26162   0.00000  Uiso   1.00
H152   H     0.63679   0.28098   0.11951   0.00000  Uiso   1.00
H153   H     0.62989   0.33473   0.09311   0.00000  Uiso   1.00
H154   H     0.65195   0.33124   0.15594   0.00000  Uiso   1.00
H155   H     0.55480   0.34750   0.12731   0.00000  Uiso   1.00
H156   H     0.57208   0.31224   0.17507   0.00000  Uiso   1.00
H157   H     0.46141   0.11961   0.40483   0.00000  Uiso   1.00
H158   H     0.43893   0.10910   0.34212   0.00000  Uiso   1.00
H159   H     0.50263   0.13469   0.36090   0.00000  Uiso   1.00
H160   H     0.40335   0.17640   0.38016   0.00000  Uiso   1.00
H161   H     0.42771   0.10738   0.20901   0.00000  Uiso   1.00
H162   H     0.42814   0.18643   0.32725   0.00000  Uiso   1.00
H163   H     0.44819   0.13079   0.06940   0.00000  Uiso   1.00
H164   H     0.48687   0.13417   0.12772   0.00000  Uiso   1.00
H165   H     0.42054   0.11287   0.12123   0.00000  Uiso   1.00
H166   H     0.42705   0.18806   0.15452   0.00000  Uiso   1.00
H167   H     0.39196   0.18750   0.09705   0.00000  Uiso   1.00
H168   H     0.61698   0.30745   0.38693   0.00000  Uiso   1.00
H169   H     0.58941   0.32617   0.32837   0.00000  Uiso   1.00
H170   H     0.61342   0.36563   0.37467   0.00000  Uiso   1.00
H171   H     0.51136   0.34824   0.36157   0.00000  Uiso   1.00
H172   H     0.57618   0.39073   0.23321   0.00000  Uiso   1.00
H173   H     0.54674   0.35593   0.41561   0.00000  Uiso   1.00
H174   H     0.42726   0.02621   0.20716   0.00000  Uiso   1.00
H175   H     0.57851   0.47206   0.23196   0.00000  Uiso   1.00
H176   H     0.56296   0.29821   0.04400   0.00000  Uiso   1.00
H177   H     0.46164   0.18329   0.45786   0.00000  Uiso   1.00
H178   H     0.43834   0.19858   0.02685   0.00000  Uiso   1.00
N179   N     0.50000   0.25001   0.12935   0.00000  Uiso   1.00
N180   N     0.50000   0.24999   0.37065   0.00000  Uiso   1.00
O181   O     0.50000   0.18572   0.29071   0.00000  Uiso   1.00
O182   O     0.50000   0.31427   0.20929   0.00000  Uiso   1.00
O183   O     0.50000   0.18573   0.20928   0.00000  Uiso   1.00
O184   O     0.50000   0.31427   0.29072   0.00000  Uiso   1.00
O185   O     0.42495   0.24999   0.28132   0.00000  Uiso   1.00
O186   O     0.57505   0.25000   0.21868   0.00000  Uiso   1.00
O187   O     0.42495   0.25000   0.19989   0.00000  Uiso   1.00
O188   O     0.57505   0.25000   0.30011   0.00000  Uiso   1.00
C189   C     0.83454   0.16535   0.24983   0.00000  Uiso   1.00
C190   C     0.85473   0.28433   0.45110   0.00000  Uiso   1.00
C191   C     0.83443   0.24792   0.02744   0.00000  Uiso   1.00
C192   C     0.83461   0.24761   0.47333   0.00000  Uiso   1.00
C193   C     0.73482   0.24840   0.23793   0.00000  Uiso   1.00
C194   C     0.93172   0.24938   0.26221   0.00000  Uiso   1.00
C195   C     0.67976   0.24154   0.23252   0.00000  Uiso   1.00
C196   C     0.98685   0.25236   0.26889   0.00000  Uiso   1.00
C197   C     0.87875   0.05019   0.27200   0.00000  Uiso   1.00
C198   C     0.79049   0.45119   0.25929   0.00000  Uiso   1.00
C199   C     0.88003   0.09676   0.27249   0.00000  Uiso   1.00
C200   C     0.83279   0.33471   0.25027   0.00000  Uiso   1.00
C201   C     0.78857   0.40466   0.26026   0.00000  Uiso   1.00
C202   C     0.83685   0.11735   0.24949   0.00000  Uiso   1.00
C203   C     0.83217   0.38286   0.25082   0.00000  Uiso   1.00
C204   C     0.79431   0.09164   0.22618   0.00000  Uiso   1.00
C205   C     0.87616   0.40743   0.24068   0.00000  Uiso   1.00
C206   C     0.79384   0.04552   0.22564   0.00000  Uiso   1.00
C207   C     0.87757   0.45363   0.24020   0.00000  Uiso   1.00
C208   C     0.83590   0.02452   0.24877   0.00000  Uiso   1.00
C209   C     0.83472   0.47574   0.24943   0.00000  Uiso   1.00
C210   C     0.92778   0.12282   0.29751   0.00000  Uiso   1.00
C211   C     0.86821   0.27671   0.05842   0.00000  Uiso   1.00
C212   C     0.97341   0.11832   0.27012   0.00000  Uiso   1.00
C213   C     0.73883   0.37990   0.26888   0.00000  Uiso   1.00
C214   C     0.72822   0.38729   0.32028   0.00000  Uiso   1.00
C215   C     0.90316   0.31460   0.13638   0.00000  Uiso   1.00
C216   C     0.95870   0.31517   0.12551   0.00000  Uiso   1.00
C217   C     0.77343   0.17860   0.36479   0.00000  Uiso   1.00
C218   C     0.79563   0.13282   0.36837   0.00000  Uiso   1.00
C219   C     0.76448   0.18476   0.11671   0.00000  Uiso   1.00
C220   C     0.78122   0.13789   0.10817   0.00000  Uiso   1.00
C221   C     0.87410   0.33154   0.38490   0.00000  Uiso   1.00
C222   C     0.81231   0.21239   0.44285   0.00000  Uiso   1.00
C223   C     0.92640   0.33215   0.36746   0.00000  Uiso   1.00
C224   C     0.86729   0.27844   0.10851   0.00000  Uiso   1.00
C225   C     0.80937   0.21451   0.39225   0.00000  Uiso   1.00
C226   C     0.80082   0.22004   0.09927   0.00000  Uiso   1.00
C227   C     0.85454   0.28598   0.40093   0.00000  Uiso   1.00
C228   C     0.79998   0.22038   0.04895   0.00000  Uiso   1.00
Cl229  Cl    0.98480   0.21100   0.17997   0.00000  Uiso   1.00
Cl230  Cl    0.68220   0.27474   0.32589   0.00000  Uiso   1.00
Cu231  Cu    0.83333   0.24999   0.29821   0.00000  Uiso   1.00
Cu232  Cu    0.83333   0.25000   0.20179   0.00000  Uiso   1.00
H233   H     0.91098   0.03389   0.29044   0.00000  Uiso   1.00
H234   H     0.86895   0.31349   0.47291   0.00000  Uiso   1.00
H235   H     0.96364   0.12885   0.23259   0.00000  Uiso   1.00
H236   H     0.67352   0.13986   0.28761   0.00000  Uiso   1.00
H237   H     0.98440   0.08333   0.26993   0.00000  Uiso   1.00
H238   H     0.92217   0.15873   0.30149   0.00000  Uiso   1.00
H239   H     0.93730   0.11034   0.33435   0.00000  Uiso   1.00
H240   H     0.69004   0.37120   0.32442   0.00000  Uiso   1.00
H241   H     0.75785   0.37246   0.34585   0.00000  Uiso   1.00
H242   H     0.72780   0.42334   0.32914   0.00000  Uiso   1.00
H243   H     0.70669   0.39191   0.24370   0.00000  Uiso   1.00
H244   H     0.75732   0.46838   0.26630   0.00000  Uiso   1.00
H245   H     0.73887   0.34359   0.26162   0.00000  Uiso   1.00
H246   H     0.97012   0.28098   0.11951   0.00000  Uiso   1.00
H247   H     0.96322   0.33473   0.09311   0.00000  Uiso   1.00
H248   H     0.98528   0.33124   0.15594   0.00000  Uiso   1.00
H249   H     0.88813   0.34750   0.12731   0.00000  Uiso   1.00
H250   H     0.90541   0.31224   0.17507   0.00000  Uiso   1.00
H251   H     0.79474   0.11961   0.40483   0.00000  Uiso   1.00
H252   H     0.77226   0.10910   0.34212   0.00000  Uiso   1.00
H253   H     0.83596   0.13469   0.36090   0.00000  Uiso   1.00
H254   H     0.73668   0.17640   0.38016   0.00000  Uiso   1.00
H255   H     0.76104   0.10738   0.20901   0.00000  Uiso   1.00
H256   H     0.76147   0.18643   0.32725   0.00000  Uiso   1.00
H257   H     0.78152   0.13079   0.06940   0.00000  Uiso   1.00
H258   H     0.82020   0.13417   0.12772   0.00000  Uiso   1.00
H259   H     0.75387   0.11287   0.12123   0.00000  Uiso   1.00
H260   H     0.76039   0.18806   0.15452   0.00000  Uiso   1.00
H261   H     0.72529   0.18750   0.09705   0.00000  Uiso   1.00
H262   H     0.95032   0.30745   0.38693   0.00000  Uiso   1.00
H263   H     0.92274   0.32617   0.32837   0.00000  Uiso   1.00
H264   H     0.94675   0.36563   0.37467   0.00000  Uiso   1.00
H265   H     0.84469   0.34824   0.36157   0.00000  Uiso   1.00
H266   H     0.90951   0.39073   0.23321   0.00000  Uiso   1.00
H267   H     0.88007   0.35593   0.41561   0.00000  Uiso   1.00
H268   H     0.76059   0.02621   0.20716   0.00000  Uiso   1.00
H269   H     0.91184   0.47206   0.23196   0.00000  Uiso   1.00
H270   H     0.89629   0.29821   0.04400   0.00000  Uiso   1.00
H271   H     0.79497   0.18329   0.45786   0.00000  Uiso   1.00
H272   H     0.77167   0.19858   0.02685   0.00000  Uiso   1.00
N273   N     0.83333   0.25001   0.12935   0.00000  Uiso   1.00
N274   N     0.83333   0.24999   0.37065   0.00000  Uiso   1.00
O275   O     0.83334   0.18572   0.29071   0.00000  Uiso   1.00
O276   O     0.83333   0.31427   0.20929   0.00000  Uiso   1.00
O277   O     0.83334   0.18573   0.20928   0.00000  Uiso   1.00
O278   O     0.83333   0.31427   0.29072   0.00000  Uiso   1.00
O279   O     0.75828   0.24999   0.28132   0.00000  Uiso   1.00
O280   O     0.90839   0.25000   0.21868   0.00000  Uiso   1.00
O281   O     0.75828   0.25000   0.19989   0.00000  Uiso   1.00
O282   O     0.90839   0.25000   0.30011   0.00000  Uiso   1.00
C283   C     0.16787   0.66535   0.24983   0.00000  Uiso   1.00
C284   C     0.18807   0.78433   0.45110   0.00000  Uiso   1.00
C285   C     0.16776   0.74792   0.02744   0.00000  Uiso   1.00
C286   C     0.16794   0.74761   0.47333   0.00000  Uiso   1.00
C287   C     0.06816   0.74840   0.23793   0.00000  Uiso   1.00
C288   C     0.26505   0.74938   0.26221   0.00000  Uiso   1.00
C289   C     0.01309   0.74154   0.23252   0.00000  Uiso   1.00
C290   C     0.32018   0.75236   0.26889   0.00000  Uiso   1.00
C291   C     0.21209   0.55019   0.27200   0.00000  Uiso   1.00
C292   C     0.12383   0.95119   0.25929   0.00000  Uiso   1.00
C293   C     0.21337   0.59676   0.27249   0.00000  Uiso   1.00
C294   C     0.16613   0.83471   0.25027   0.00000  Uiso   1.00
C295   C     0.12190   0.90466   0.26026   0.00000  Uiso   1.00
C296   C     0.17018   0.61735   0.24949   0.00000  Uiso   1.00
C297   C     0.16550   0.88286   0.25082   0.00000  Uiso   1.00
C298   C     0.12764   0.59164   0.22618   0.00000  Uiso   1.00
C299   C     0.20949   0.90743   0.24068   0.00000  Uiso   1.00
C300   C     0.12717   0.54552   0.22564   0.00000  Uiso   1.00
C301   C     0.21090   0.95363   0.24020   0.00000  Uiso   1.00
C302   C     0.16924   0.52452   0.24877   0.00000  Uiso   1.00
C303   C     0.16805   0.97574   0.24943   0.00000  Uiso   1.00
C304   C     0.26112   0.62282   0.29751   0.00000  Uiso   1.00
C305   C     0.20154   0.77671   0.05842   0.00000  Uiso   1.00
C306   C     0.30675   0.61832   0.27012   0.00000  Uiso   1.00
C307   C     0.07217   0.87990   0.26888   0.00000  Uiso   1.00
C308   C     0.06155   0.88729   0.32028   0.00000  Uiso   1.00
C309   C     0.23650   0.81460   0.13638   0.00000  Uiso   1.00
C310   C     0.29203   0.81517   0.12551   0.00000  Uiso   1.00
C311   C     0.10677   0.67860   0.36479   0.00000  Uiso   1.00
C312   C     0.12896   0.63282   0.36837   0.00000  Uiso   1.00
C313   C     0.09781   0.68476   0.11671   0.00000  Uiso   1.00
C314   C     0.11456   0.63789   0.10817   0.00000  Uiso   1.00
C315   C     0.20743   0.83154   0.38490   0.00000  Uiso   1.00
C316   C     0.14564   0.71239   0.44285   0.00000  Uiso   1.00
C317   C     0.25973   0.83215   0.36746   0.00000  Uiso   1.00
C318   C     0.20063   0.77844   0.10851   0.00000  Uiso   1.00
C319   C     0.14271   0.71451   0.39225   0.00000  Uiso   1.00
C320   C     0.13416   0.72004   0.09927   0.00000  Uiso   1.00
C321   C     0.18787   0.78598   0.40093   0.00000  Uiso   1.00
C322   C     0.13331   0.72038   0.04895   0.00000  Uiso   1.00
Cl323  Cl    0.31814   0.71100   0.17997   0.00000  Uiso   1.00
Cl324  Cl    0.01553   0.77474   0.32589   0.00000  Uiso   1.00
Cu325  Cu    0.16667   0.74999   0.29821   0.00000  Uiso   1.00
Cu326  Cu    0.16667   0.75000   0.20179   0.00000  Uiso   1.00
H327   H     0.24431   0.53389   0.29044   0.00000  Uiso   1.00
H328   H     0.20228   0.81349   0.47291   0.00000  Uiso   1.00
H329   H     0.29697   0.62885   0.23259   0.00000  Uiso   1.00
H330   H     0.00686   0.63986   0.28761   0.00000  Uiso   1.00
H331   H     0.31774   0.58333   0.26993   0.00000  Uiso   1.00
H332   H     0.25551   0.65873   0.30149   0.00000  Uiso   1.00
H333   H     0.27063   0.61034   0.33435   0.00000  Uiso   1.00
H334   H     0.02337   0.87120   0.32442   0.00000  Uiso   1.00
H335   H     0.09118   0.87246   0.34585   0.00000  Uiso   1.00
H336   H     0.06114   0.92334   0.32914   0.00000  Uiso   1.00
H337   H     0.04003   0.89191   0.24370   0.00000  Uiso   1.00
H338   H     0.09065   0.96838   0.26630   0.00000  Uiso   1.00
H339   H     0.07220   0.84359   0.26162   0.00000  Uiso   1.00
H340   H     0.30346   0.78098   0.11951   0.00000  Uiso   1.00
H341   H     0.29655   0.83473   0.09311   0.00000  Uiso   1.00
H342   H     0.31861   0.83124   0.15594   0.00000  Uiso   1.00
H343   H     0.22147   0.84750   0.12731   0.00000  Uiso   1.00
H344   H     0.23874   0.81224   0.17507   0.00000  Uiso   1.00
H345   H     0.12808   0.61961   0.40483   0.00000  Uiso   1.00
H346   H     0.10560   0.60910   0.34212   0.00000  Uiso   1.00
H347   H     0.16929   0.63469   0.36090   0.00000  Uiso   1.00
H348   H     0.07001   0.67640   0.38016   0.00000  Uiso   1.00
H349   H     0.09438   0.60738   0.20901   0.00000  Uiso   1.00
H350   H     0.09480   0.68643   0.32725   0.00000  Uiso   1.00
H351   H     0.11485   0.63079   0.06940   0.00000  Uiso   1.00
H352   H     0.15354   0.63417   0.12772   0.00000  Uiso   1.00
H353   H     0.08720   0.61287   0.12123   0.00000  Uiso   1.00
H354   H     0.09372   0.68806   0.15452   0.00000  Uiso   1.00
H355   H     0.05862   0.68750   0.09705   0.00000  Uiso   1.00
H356   H     0.28365   0.80745   0.38693   0.00000  Uiso   1.00
H357   H     0.25607   0.82617   0.32837   0.00000  Uiso   1.00
H358   H     0.28009   0.86563   0.37467   0.00000  Uiso   1.00
H359   H     0.17803   0.84824   0.36157   0.00000  Uiso   1.00
H360   H     0.24284   0.89073   0.23321   0.00000  Uiso   1.00
H361   H     0.21340   0.85593   0.41561   0.00000  Uiso   1.00
H362   H     0.09392   0.52621   0.20716   0.00000  Uiso   1.00
H363   H     0.24517   0.97206   0.23196   0.00000  Uiso   1.00
H364   H     0.22963   0.79821   0.04400   0.00000  Uiso   1.00
H365   H     0.12831   0.68329   0.45786   0.00000  Uiso   1.00
H366   H     0.10501   0.69858   0.02685   0.00000  Uiso   1.00
N367   N     0.16667   0.75001   0.12935   0.00000  Uiso   1.00
N368   N     0.16667   0.74999   0.37065   0.00000  Uiso   1.00
O369   O     0.16667   0.68572   0.29071   0.00000  Uiso   1.00
O370   O     0.16666   0.81427   0.20929   0.00000  Uiso   1.00
O371   O     0.16667   0.68573   0.20928   0.00000  Uiso   1.00
O372   O     0.16666   0.81427   0.29072   0.00000  Uiso   1.00
O373   O     0.09161   0.74999   0.28132   0.00000  Uiso   1.00
O374   O     0.24172   0.75000   0.21868   0.00000  Uiso   1.00
O375   O     0.09161   0.75000   0.19989   0.00000  Uiso   1.00
O376   O     0.24172   0.75000   0.30011   0.00000  Uiso   1.00
C377   C     0.50121   0.66535   0.24983   0.00000  Uiso   1.00
C378   C     0.52140   0.78433   0.45110   0.00000  Uiso   1.00
C379   C     0.50110   0.74792   0.02744   0.00000  Uiso   1.00
C380   C     0.50128   0.74761   0.47333   0.00000  Uiso   1.00
C381   C     0.40149   0.74840   0.23793   0.00000  Uiso   1.00
C382   C     0.59838   0.74938   0.26221   0.00000  Uiso   1.00
C383   C     0.34642   0.74154   0.23252   0.00000  Uiso   1.00
C384   C     0.65351   0.75236   0.26889   0.00000  Uiso   1.00
C385   C     0.54542   0.55019   0.27200   0.00000  Uiso   1.00
C386   C     0.45716   0.95119   0.25929   0.00000  Uiso   1.00
C387   C     0.54670   0.59676   0.27249   0.00000  Uiso   1.00
C388   C     0.49946   0.83471   0.25027   0.00000  Uiso   1.00
C389   C     0.45524   0.90466   0.26026   0.00000  Uiso   1.00
C390   C     0.50352   0.61735   0.24949   0.00000  Uiso   1.00
C391   C     0.49884   0.88286   0.25082   0.00000  Uiso   1.00
C392   C     0.46098   0.59164   0.22618   0.00000  Uiso   1.00
C393   C     0.54282   0.90743   0.24068   0.00000  Uiso   1.00
C394   C     0.46050   0.54552   0.22564   0.00000  Uiso   1.00
C395   C     0.54424   0.95363   0.24020   0.00000  Uiso   1.00
C396   C     0.50257   0.52452   0.24877   0.00000  Uiso   1.00
C397   C     0.50138   0.97574   0.24943   0.00000  Uiso   1.00
C398   C     0.59445   0.62282   0.29751   0.00000  Uiso   1.00
C399   C     0.53487   0.77671   0.05842   0.00000  Uiso   1.00
C400   C     0.64008   0.61832   0.27012   0.00000  Uiso   1.00
C401   C     0.40550   0.87990   0.26888   0.00000  Uiso   1.00
C402   C     0.39488   0.88729   0.32028   0.00000  Uiso   1.00
C403   C     0.56983   0.81460   0.13638   0.00000  Uiso   1.00
C404   C     0.62536   0.81517   0.12551   0.00000  Uiso   1.00
C405   C     0.44010   0.67860   0.36479   0.00000  Uiso   1.00
C406   C     0.46229   0.63282   0.36837   0.00000  Uiso   1.00
C407   C     0.43115   0.68476   0.11671   0.00000  Uiso   1.00
C408   C     0.44789   0.63789   0.10817   0.00000  Uiso   1.00
C409   C     0.54077   0.83154   0.38490   0.00000  Uiso   1.00
C410   C     0.47897   0.71239   0.44285   0.00000  Uiso   1.00
C411   C     0.59307   0.83215   0.36746   0.00000  Uiso   1.00
C412   C     0.53396   0.77844   0.10851   0.00000  Uiso   1.00
C413   C     0.47604   0.71451   0.39225   0.00000  Uiso   1.00
C414   C     0.46749   0.72004   0.09927   0.00000  Uiso   1.00
C415   C     0.52121   0.78598   0.40093   0.00000  Uiso   1.00
C416   C     0.46665   0.72038   0.04895   0.00000  Uiso   1.00
Cl417  Cl    0.65147   0.71100   0.17997   0.00000  Uiso   1.00
Cl418  Cl    0.34887   0.77474   0.32589   0.00000  Uiso   1.00
Cu419  Cu    0.50000   0.74999   0.29821   0.00000  Uiso   1.00
Cu420  Cu    0.50000   0.75000   0.20179   0.00000  Uiso   1.00
H421   H     0.57764   0.53389   0.29044   0.00000  Uiso   1.00
H422   H     0.53562   0.81349   0.47291   0.00000  Uiso   1.00
H423   H     0.63030   0.62885   0.23259   0.00000  Uiso   1.00
H424   H     0.34019   0.63986   0.28761   0.00000  Uiso   1.00
H425   H     0.65107   0.58333   0.26993   0.00000  Uiso   1.00
H426   H     0.58884   0.65873   0.30149   0.00000  Uiso   1.00
H427   H     0.60397   0.61034   0.33435   0.00000  Uiso   1.00
H428   H     0.35671   0.87120   0.32442   0.00000  Uiso   1.00
H429   H     0.42451   0.87246   0.34585   0.00000  Uiso   1.00
H430   H     0.39447   0.92334   0.32914   0.00000  Uiso   1.00
H431   H     0.37336   0.89191   0.24370   0.00000  Uiso   1.00
H432   H     0.42399   0.96838   0.26630   0.00000  Uiso   1.00
H433   H     0.40554   0.84359   0.26162   0.00000  Uiso   1.00
H434   H     0.63679   0.78098   0.11951   0.00000  Uiso   1.00
H435   H     0.62989   0.83473   0.09311   0.00000  Uiso   1.00
H436   H     0.65195   0.83124   0.15594   0.00000  Uiso   1.00
H437   H     0.55480   0.84750   0.12731   0.00000  Uiso   1.00
H438   H     0.57208   0.81224   0.17507   0.00000  Uiso   1.00
H439   H     0.46141   0.61961   0.40483   0.00000  Uiso   1.00
H440   H     0.43893   0.60910   0.34212   0.00000  Uiso   1.00
H441   H     0.50263   0.63469   0.36090   0.00000  Uiso   1.00
H442   H     0.40335   0.67640   0.38016   0.00000  Uiso   1.00
H443   H     0.42771   0.60738   0.20901   0.00000  Uiso   1.00
H444   H     0.42814   0.68643   0.32725   0.00000  Uiso   1.00
H445   H     0.44819   0.63079   0.06940   0.00000  Uiso   1.00
H446   H     0.48687   0.63417   0.12772   0.00000  Uiso   1.00
H447   H     0.42054   0.61287   0.12123   0.00000  Uiso   1.00
H448   H     0.42705   0.68806   0.15452   0.00000  Uiso   1.00
H449   H     0.39196   0.68750   0.09705   0.00000  Uiso   1.00
H450   H     0.61698   0.80745   0.38693   0.00000  Uiso   1.00
H451   H     0.58941   0.82617   0.32837   0.00000  Uiso   1.00
H452   H     0.61342   0.86563   0.37467   0.00000  Uiso   1.00
H453   H     0.51136   0.84824   0.36157   0.00000  Uiso   1.00
H454   H     0.57618   0.89073   0.23321   0.00000  Uiso   1.00
H455   H     0.54674   0.85593   0.41561   0.00000  Uiso   1.00
H456   H     0.42726   0.52621   0.20716   0.00000  Uiso   1.00
H457   H     0.57851   0.97206   0.23196   0.00000  Uiso   1.00
H458   H     0.56296   0.79821   0.04400   0.00000  Uiso   1.00
H459   H     0.46164   0.68329   0.45786   0.00000  Uiso   1.00
H460   H     0.43834   0.69858   0.02685   0.00000  Uiso   1.00
N461   N     0.50000   0.75001   0.12935   0.00000  Uiso   1.00
N462   N     0.50000   0.74999   0.37065   0.00000  Uiso   1.00
O463   O     0.50000   0.68572   0.29071   0.00000  Uiso   1.00
O464   O     0.50000   0.81427   0.20929   0.00000  Uiso   1.00
O465   O     0.50000   0.68573   0.20928   0.00000  Uiso   1.00
O466   O     0.50000   0.81427   0.29072   0.00000  Uiso   1.00
O467   O     0.42495   0.74999   0.28132   0.00000  Uiso   1.00
O468   O     0.57505   0.75000   0.21868   0.00000  Uiso   1.00
O469   O     0.42495   0.75000   0.19989   0.00000  Uiso   1.00
O470   O     0.57505   0.75000   0.30011   0.00000  Uiso   1.00
C471   C     0.83454   0.66535   0.24983   0.00000  Uiso   1.00
C472   C     0.85473   0.78433   0.45110   0.00000  Uiso   1.00
C473   C     0.83443   0.74792   0.02744   0.00000  Uiso   1.00
C474   C     0.83461   0.74761   0.47333   0.00000  Uiso   1.00
C475   C     0.73482   0.74840   0.23793   0.00000  Uiso   1.00
C476   C     0.93172   0.74938   0.26221   0.00000  Uiso   1.00
C477   C     0.67976   0.74154   0.23252   0.00000  Uiso   1.00
C478   C     0.98685   0.75236   0.26889   0.00000  Uiso   1.00
C479   C     0.87875   0.55019   0.27200   0.00000  Uiso   1.00
C480   C     0.79049   0.95119   0.25929   0.00000  Uiso   1.00
C481   C     0.88003   0.59676   0.27249   0.00000  Uiso   1.00
C482   C     0.83279   0.83471   0.25027   0.00000  Uiso   1.00
C483   C     0.78857   0.90466   0.26026   0.00000  Uiso   1.00
C484   C     0.83685   0.61735   0.24949   0.00000  Uiso   1.00
C485   C     0.83217   0.88286   0.25082   0.00000  Uiso   1.00
C486   C     0.79431   0.59164   0.22618   0.00000  Uiso   1.00
C487   C     0.87616   0.90743   0.24068   0.00000  Uiso   1.00
C488   C     0.79384   0.54552   0.22564   0.00000  Uiso   1.00
C489   C     0.87757   0.95363   0.24020   0.00000  Uiso   1.00
C490   C     0.83590   0.52452   0.24877   0.00000  Uiso   1.00
C491   C     0.83472   0.97574   0.24943   0.00000  Uiso   1.00
C492   C     0.92778   0.62282   0.29751   0.00000  Uiso   1.00
C493   C     0.86821   0.77671   0.05842   0.00000  Uiso   1.00
C494   C     0.97341   0.61832   0.27012   0.00000  Uiso   1.00
C495   C     0.73883   0.87990   0.26888   0.00000  Uiso   1.00
C496   C     0.72822   0.88729   0.32028   0.00000  Uiso   1.00
C497   C     0.90316   0.81460   0.13638   0.00000  Uiso   1.00
C498   C     0.95870   0.81517   0.12551   0.00000  Uiso   1.00
C499   C     0.77343   0.67860   0.36479   0.00000  Uiso   1.00
C500   C     0.79563   0.63282   0.36837   0.00000  Uiso   1.00
C501   C     0.76448   0.68476   0.11671   0.00000  Uiso   1.00
C502   C     0.78122   0.63789   0.10817   0.00000  Uiso   1.00
C503   C     0.87410   0.83154   0.38490   0.00000  Uiso   1.00
C504   C     0.81231   0.71239   0.44285   0.00000  Uiso   1.00
C505   C     0.92640   0.83215   0.36746   0.00000  Uiso   1.00
C506   C     0.86729   0.77844   0.10851   0.00000  Uiso   1.00
C507   C     0.80937   0.71451   0.39225   0.00000  Uiso   1.00
C508   C     0.80082   0.72004   0.09927   0.00000  Uiso   1.00
C509   C     0.85454   0.78598   0.40093   0.00000  Uiso   1.00
C510   C     0.79998   0.72038   0.04895   0.00000  Uiso   1.00
Cl511  Cl    0.98480   0.71100   0.17997   0.00000  Uiso   1.00
Cl512  Cl    0.68220   0.77474   0.32589   0.00000  Uiso   1.00
Cu513  Cu    0.83333   0.74999   0.29821   0.00000  Uiso   1.00
Cu514  Cu    0.83333   0.75000   0.20179   0.00000  Uiso   1.00
H515   H     0.91098   0.53389   0.29044   0.00000  Uiso   1.00
H516   H     0.86895   0.81349   0.47291   0.00000  Uiso   1.00
H517   H     0.96364   0.62885   0.23259   0.00000  Uiso   1.00
H518   H     0.67352   0.63986   0.28761   0.00000  Uiso   1.00
H519   H     0.98440   0.58333   0.26993   0.00000  Uiso   1.00
H520   H     0.92217   0.65873   0.30149   0.00000  Uiso   1.00
H521   H     0.93730   0.61034   0.33435   0.00000  Uiso   1.00
H522   H     0.69004   0.87120   0.32442   0.00000  Uiso   1.00
H523   H     0.75785   0.87246   0.34585   0.00000  Uiso   1.00
H524   H     0.72780   0.92334   0.32914   0.00000  Uiso   1.00
H525   H     0.70669   0.89191   0.24370   0.00000  Uiso   1.00
H526   H     0.75732   0.96838   0.26630   0.00000  Uiso   1.00
H527   H     0.73887   0.84359   0.26162   0.00000  Uiso   1.00
H528   H     0.97012   0.78098   0.11951   0.00000  Uiso   1.00
H529   H     0.96322   0.83473   0.09311   0.00000  Uiso   1.00
H530   H     0.98528   0.83124   0.15594   0.00000  Uiso   1.00
H531   H     0.88813   0.84750   0.12731   0.00000  Uiso   1.00
H532   H     0.90541   0.81224   0.17507   0.00000  Uiso   1.00
H533   H     0.79474   0.61961   0.40483   0.00000  Uiso   1.00
H534   H     0.77226   0.60910   0.34212   0.00000  Uiso   1.00
H535   H     0.83596   0.63469   0.36090   0.00000  Uiso   1.00
H536   H     0.73668   0.67640   0.38016   0.00000  Uiso   1.00
H537   H     0.76104   0.60738   0.20901   0.00000  Uiso   1.00
H538   H     0.76147   0.68643   0.32725   0.00000  Uiso   1.00
H539   H     0.78152   0.63079   0.06940   0.00000  Uiso   1.00
H540   H     0.82020   0.63417   0.12772   0.00000  Uiso   1.00
H541   H     0.75387   0.61287   0.12123   0.00000  Uiso   1.00
H542   H     0.76039   0.68806   0.15452   0.00000  Uiso   1.00
H543   H     0.72529   0.68750   0.09705   0.00000  Uiso   1.00
H544   H     0.95032   0.80745   0.38693   0.00000  Uiso   1.00
H545   H     0.92274   0.82617   0.32837   0.00000  Uiso   1.00
H546   H     0.94675   0.86563   0.37467   0.00000  Uiso   1.00
H547   H     0.84469   0.84824   0.36157   0.00000  Uiso   1.00
H548   H     0.90951   0.89073   0.23321   0.00000  Uiso   1.00
H549   H     0.88007   0.85593   0.41561   0.00000  Uiso   1.00
H550   H     0.76059   0.52621   0.20716   0.00000  Uiso   1.00
H551   H     0.91184   0.97206   0.23196   0.00000  Uiso   1.00
H552   H     0.89629   0.79821   0.04400   0.00000  Uiso   1.00
H553   H     0.79497   0.68329   0.45786   0.00000  Uiso   1.00
H554   H     0.77167   0.69858   0.02685   0.00000  Uiso   1.00
N555   N     0.83333   0.75001   0.12935   0.00000  Uiso   1.00
N556   N     0.83333   0.74999   0.37065   0.00000  Uiso   1.00
O557   O     0.83334   0.68572   0.29071   0.00000  Uiso   1.00
O558   O     0.83333   0.81427   0.20929   0.00000  Uiso   1.00
O559   O     0.83334   0.68573   0.20928   0.00000  Uiso   1.00
O560   O     0.83333   0.81427   0.29072   0.00000  Uiso   1.00
O561   O     0.75828   0.74999   0.28132   0.00000  Uiso   1.00
O562   O     0.90839   0.75000   0.21868   0.00000  Uiso   1.00
O563   O     0.75828   0.75000   0.19989   0.00000  Uiso   1.00
O564   O     0.90839   0.75000   0.30011   0.00000  Uiso   1.00
C565   C     0.16787   0.16535   0.74983   0.00000  Uiso   1.00
C566   C     0.18807   0.28433   0.95110   0.00000  Uiso   1.00
C567   C     0.16776   0.24792   0.52744   0.00000  Uiso   1.00
C568   C     0.16794   0.24761   0.97333   0.00000  Uiso   1.00
C569   C     0.06816   0.24840   0.73793   0.00000  Uiso   1.00
C570   C     0.26505   0.24938   0.76221   0.00000  Uiso   1.00
C571   C     0.01309   0.24154   0.73252   0.00000  Uiso   1.00
C572   C     0.32018   0.25236   0.76889   0.00000  Uiso   1.00
C573   C     0.21209   0.05019   0.77200   0.00000  Uiso   1.00
C574   C     0.12383   0.45119   0.75929   0.00000  Uiso   1.00
C575   C     0.21337   0.09676   0.77249   0.00000  Uiso   1.00
C576   C     0.16613   0.33471   0.75027   0.00000  Uiso   1.00
C577   C     0.12190   0.40466   0.76026   0.00000  Uiso   1.00
C578   C     0.17018   0.11735   0.74949   0.00000  Uiso   1.00
C579   C     0.16550   0.38286   0.75082   0.00000  Uiso   1.00
C580   C     0.12764   0.09164   0.72618   0.00000  Uiso   1.00
C581   C     0.20949   0.40743   0.74068   0.00000  Uiso   1.00
C582   C     0.12717   0.04552   0.72564   0.00000  Uiso   1.00
C583   C     0.21090   0.45363   0.74020   0.00000  Uiso   1.00
C584   C     0.16924   0.02452   0.74877   0.00000  Uiso   1.00
C585   C     0.16805   0.47574   0.74943   0.00000  Uiso   1.00
C586   C     0.26112   0.12282   0.79751   0.00000  Uiso   1.00
C587   C     0.20154   0.27671   0.55842   0.00000  Uiso   1.00
C588   C     0.30675   0.11832   0.77012   0.00000  Uiso   1.00
C589   C     0.07217   0.37990   0.76888   0.00000  Uiso   1.00
C590   C     0.06155   0.38729   0.82028   0.00000  Uiso   1.00
C591   C     0.23650   0.31460   0.63638   0.00000  Uiso   1.00
C592   C     0.29203   0.31517   0.62551   0.00000  Uiso   1.00
C593   C     0.10677   0.17860   0.86479   0.00000  Uiso   1.00
C594   C     0.12896   0.13282   0.86837   0.00000  Uiso   1.00
C595   C     0.09781   0.18476   0.61671   0.00000  Uiso   1.00
C596   C     0.11456   0.13789   0.60817   0.00000  Uiso   1.00
C597   C     0.20743   0.33154   0.88490   0.00000  Uiso   1.00
C598   C     0.14564   0.21239   0.94285   0.00000  Uiso   1.00
C599   C     0.25973   0.33215   0.86746   0.00000  Uiso   1.00
C600   C     0.20063   0.27844   0.60851   0.00000  Uiso   1.00
C601   C     0.14271   0.21451   0.89225   0.00000  Uiso   1.00
C602   C     0.13416   0.22004   0.59927   0.00000  Uiso   1.00
C603   C     0.18787   0.28598   0.90093   0.00000  Uiso   1.00
C604   C     0.13331   0.22038   0.54895   0.00000  Uiso   1.00
Cl605  Cl    0.31814   0.21100   0.67997   0.00000  Uiso   1.00
Cl606  Cl    0.01553   0.27474   0.82589   0.00000  Uiso   1.00
Cu607  Cu    0.16667   0.24999   0.79821   0.00000  Uiso   1.00
Cu608  Cu    0.16667   0.25000   0.70179   0.00000  Uiso   1.00
H609   H     0.24431   0.03389   0.79044   0.00000  Uiso   1.00
H610   H     0.20228   0.31349   0.97291   0.00000  Uiso   1.00
H611   H     0.29697   0.12885   0.73259   0.00000  Uiso   1.00
H612   H     0.00686   0.13986   0.78761   0.00000  Uiso   1.00
H613   H     0.31774   0.08333   0.76993   0.00000  Uiso   1.00
H614   H     0.25551   0.15873   0.80149   0.00000  Uiso   1.00
H615   H     0.27063   0.11034   0.83435   0.00000  Uiso   1.00
H616   H     0.02337   0.37120   0.82442   0.00000  Uiso   1.00
H617   H     0.09118   0.37246   0.84585   0.00000  Uiso   1.00
H618   H     0.06114   0.42334   0.82914   0.00000  Uiso   1.00
H619   H     0.04003   0.39191   0.74370   0.00000  Uiso   1.00
H620   H     0.09065   0.46838   0.76630   0.00000  Uiso   1.00
H621   H     0.07220   0.34359   0.76162   0.00000  Uiso   1.00
H622   H     0.30346   0.28098   0.61951   0.00000  Uiso   1.00
H623   H     0.29655   0.33473   0.59311   0.00000  Uiso   1.00
H624   H     0.31861   0.33124   0.65594   0.00000  Uiso   1.00
H625   H     0.22147   0.34750   0.62731   0.00000  Uiso   1.00
H626   H     0.23874   0.31224   0.67507   0.00000  Uiso   1.00
H627   H     0.12808   0.11961   0.90483   0.00000  Uiso   1.00
H628   H     0.10560   0.10910   0.84212   0.00000  Uiso   1.00
H629   H     0.16929   0.13469   0.86090   0.00000  Uiso   1.00
H630   H     0.07001   0.17640   0.88016   0.00000  Uiso   1.00
H631   H     0.09438   0.10738   0.70901   0.00000  Uiso   1.00
H632   H     0.09480   0.18643   0.82725   0.00000  Uiso   1.00
H633   H     0.11485   0.13079   0.56940   0.00000  Uiso   1.00
H634   H     0.15354   0.13417   0.62772   0.00000  Uiso   1.00
H635   H     0.08720   0.11287   0.62123   0.00000  Uiso   1.00
H636   H     0.09372   0.18806   0.65452   0.00000  Uiso   1.00
H637   H     0.05862   0.18750   0.59705   0.00000  Uiso   1.00
H638   H     0.28365   0.30745   0.88693   0.00000  Uiso   1.00
H639   H     0.25607   0.32617   0.82837   0.00000  Uiso   1.00
H640   H     0.28009   0.36563   0.87467   0.00000  Uiso   1.00
H641   H     0.17803   0.34824   0.86157   0.00000  Uiso   1.00
H642   H     0.24284   0.39073   0.73321   0.00000  Uiso   1.00
H643   H     0.21340   0.35593   0.91561   0.00000  Uiso   1.00
H644   H     0.09392   0.02621   0.70716   0.00000  Uiso   1.00
H645   H     0.24517   0.47206   0.73196   0.00000  Uiso   1.00
H646   H     0.22963   0.29821   0.54400   0.00000  Uiso   1.00
H647   H     0.12831   0.18329   0.95786   0.00000  Uiso   1.00
H648   H     0.10501   0.19858   0.52685   0.00000  Uiso   1.00
N649   N     0.16667   0.25001   0.62935   0.00000  Uiso   1.00
N650   N     0.16667   0.24999   0.87065   0.00000  Uiso   1.00
O651   O     0.16667   0.18572   0.79071   0.00000  Uiso   1.00
O652   O     0.16666   0.31427   0.70929   0.00000  Uiso   1.00
O653   O     0.16667   0.18573   0.70928   0.00000  Uiso   1.00
O654   O     0.16666   0.31427   0.79072   0.00000  Uiso   1.00
O655   O     0.09161   0.24999   0.78132   0.00000  Uiso   1.00
O656   O     0.24172   0.25000   0.71868   0.00000  Uiso   1.00
O657   O     0.09161   0.25000   0.69989   0.00000  Uiso   1.00
O658   O     0.24172   0.25000   0.80011   0.00000  Uiso   1.00
C659   C     0.50121   0.16535   0.74983   0.00000  Uiso   1.00
C660   C     0.52140   0.28433   0.95110   0.00000  Uiso   1.00
C661   C     0.50110   0.24792   0.52744   0.00000  Uiso   1.00
C662   C     0.50128   0.24761   0.97333   0.00000  Uiso   1.00
C663   C     0.40149   0.24840   0.73793   0.00000  Uiso   1.00
C664   C     0.59838   0.24938   0.76221   0.00000  Uiso   1.00
C665   C     0.34642   0.24154   0.73252   0.00000  Uiso   1.00
C666   C     0.65351   0.25236   0.76889   0.00000  Uiso   1.00
C667   C     0.54542   0.05019   0.77200   0.00000  Uiso   1.00
C668   C     0.45716   0.45119   0.75929   0.00000  Uiso   1.00
C669   C     0.54670   0.09676   0.77249   0.00000  Uiso   1.00
C670   C     0.49946   0.33471   0.75027   0.00000  Uiso   1.00
C671   C     0.45524   0.40466   0.76026   0.00000  Uiso   1.00
C672   C     0.50352   0.11735   0.74949   0.00000  Uiso   1.00
C673   C     0.49884   0.38286   0.75082   0.00000  Uiso   1.00
C674   C     0.46098   0.09164   0.72618   0.00000  Uiso   1.00
C675   C     0.54282   0.40743   0.74068   0.00000  Uiso   1.00
C676   C     0.46050   0.04552   0.72564   0.00000  Uiso   1.00
C677   C     0.54424   0.45363   0.74020   0.00000  Uiso   1.00
C678   C     0.50257   0.02452   0.74877   0.00000  Uiso   1.00
C679   C     0.50138   0.47574   0.74943   0.00000  Uiso   1.00
C680   C     0.59445   0.12282   0.79751   0.00000  Uiso   1.00
C681   C     0.53487   0.27671   0.55842   0.00000  Uiso   1.00
C682   C     0.64008   0.11832   0.77012   0.00000  Uiso   1.00
C683   C     0.40550   0.37990   0.76888   0.00000  Uiso   1.00
C684   C     0.39488   0.38729   0.82028   0.00000  Uiso   1.00
C685   C     0.56983   0.31460   0.63638   0.00000  Uiso   1.00
C686   C     0.62536   0.31517   0.62551   0.00000  Uiso   1.00
C687   C     0.44010   0.17860   0.86479   0.00000  Uiso   1.00
C688   C     0.46229   0.13282   0.86837   0.00000  Uiso   1.00
C689   C     0.43115   0.18476   0.61671   0.00000  Uiso   1.00
C690   C     0.44789   0.13789   0.60817   0.00000  Uiso   1.00
C691   C     0.54077   0.33154   0.88490   0.00000  Uiso   1.00
C692   C     0.47897   0.21239   0.94285   0.00000  Uiso   1.00
C693   C     0.59307   0.33215   0.86746   0.00000  Uiso   1.00
C694   C     0.53396   0.27844   0.60851   0.00000  Uiso   1.00
C695   C     0.47604   0.21451   0.89225   0.00000  Uiso   1.00
C696   C     0.46749   0.22004   0.59927   0.00000  Uiso   1.00
C697   C     0.52121   0.28598   0.90093   0.00000  Uiso   1.00
C698   C     0.46665   0.22038   0.54895   0.00000  Uiso   1.00
Cl699  Cl    0.65147   0.21100   0.67997   0.00000  Uiso   1.00
Cl700  Cl    0.34887   0.27474   0.82589   0.00000  Uiso   1.00
Cu701  Cu    0.50000   0.24999   0.79821   0.00000  Uiso   1.00
Cu702  Cu    0.50000   0.25000   0.70179   0.00000  Uiso   1.00
H703   H     0.57764   0.03389   0.79044   0.00000  Uiso   1.00
H704   H     0.53562   0.31349   0.97291   0.00000  Uiso   1.00
H705   H     0.63030   0.12885   0.73259   0.00000  Uiso   1.00
H706   H     0.34019   0.13986   0.78761   0.00000  Uiso   1.00
H707   H     0.65107   0.08333   0.76993   0.00000  Uiso   1.00
H708   H     0.58884   0.15873   0.80149   0.00000  Uiso   1.00
H709   H     0.60397   0.11034   0.83435   0.00000  Uiso   1.00
H710   H     0.35671   0.37120   0.82442   0.00000  Uiso   1.00
H711   H     0.42451   0.37246   0.84585   0.00000  Uiso   1.00
H712   H     0.39447   0.42334   0.82914   0.00000  Uiso   1.00
H713   H     0.37336   0.39191   0.74370   0.00000  Uiso   1.00
H714   H     0.42399   0.46838   0.76630   0.00000  Uiso   1.00
H715   H     0.40554   0.34359   0.76162   0.00000  Uiso   1.00
H716   H     0.63679   0.28098   0.61951   0.00000  Uiso   1.00
H717   H     0.62989   0.33473   0.59311   0.00000  Uiso   1.00
H718   H     0.65195   0.33124   0.65594   0.00000  Uiso   1.00
H719   H     0.55480   0.34750   0.62731   0.00000  Uiso   1.00
H720   H     0.57208   0.31224   0.67507   0.00000  Uiso   1.00
H721   H     0.46141   0.11961   0.90483   0.00000  Uiso   1.00
H722   H     0.43893   0.10910   0.84212   0.00000  Uiso   1.00
H723   H     0.50263   0.13469   0.86090   0.00000  Uiso   1.00
H724   H     0.40335   0.17640   0.88016   0.00000  Uiso   1.00
H725   H     0.42771   0.10738   0.70901   0.00000  Uiso   1.00
H726   H     0.42814   0.18643   0.82725   0.00000  Uiso   1.00
H727   H     0.44819   0.13079   0.56940   0.00000  Uiso   1.00
H728   H     0.48687   0.13417   0.62772   0.00000  Uiso   1.00
H729   H     0.42054   0.11287   0.62123   0.00000  Uiso   1.00
H730   H     0.42705   0.18806   0.65452   0.00000  Uiso   1.00
H731   H     0.39196   0.18750   0.59705   0.00000  Uiso   1.00
H732   H     0.61698   0.30745   0.88693   0.00000  Uiso   1.00
H733   H     0.58941   0.32617   0.82837   0.00000  Uiso   1.00
H734   H     0.61342   0.36563   0.87467   0.00000  Uiso   1.00
H735   H     0.51136   0.34824   0.86157   0.00000  Uiso   1.00
H736   H     0.57618   0.39073   0.73321   0.00000  Uiso   1.00
H737   H     0.54674   0.35593   0.91561   0.00000  Uiso   1.00
H738   H     0.42726   0.02621   0.70716   0.00000  Uiso   1.00
H739   H     0.57851   0.47206   0.73196   0.00000  Uiso   1.00
H740   H     0.56296   0.29821   0.54400   0.00000  Uiso   1.00
H741   H     0.46164   0.18329   0.95786   0.00000  Uiso   1.00
H742   H     0.43834   0.19858   0.52685   0.00000  Uiso   1.00
N743   N     0.50000   0.25001   0.62935   0.00000  Uiso   1.00
N744   N     0.50000   0.24999   0.87065   0.00000  Uiso   1.00
O745   O     0.50000   0.18572   0.79071   0.00000  Uiso   1.00
O746   O     0.50000   0.31427   0.70929   0.00000  Uiso   1.00
O747   O     0.50000   0.18573   0.70928   0.00000  Uiso   1.00
O748   O     0.50000   0.31427   0.79072   0.00000  Uiso   1.00
O749   O     0.42495   0.24999   0.78132   0.00000  Uiso   1.00
O750   O     0.57505   0.25000   0.71868   0.00000  Uiso   1.00
O751   O     0.42495   0.25000   0.69989   0.00000  Uiso   1.00
O752   O     0.57505   0.25000   0.80011   0.00000  Uiso   1.00
C753   C     0.83454   0.16535   0.74983   0.00000  Uiso   1.00
C754   C     0.85473   0.28433   0.95110   0.00000  Uiso   1.00
C755   C     0.83443   0.24792   0.52744   0.00000  Uiso   1.00
C756   C     0.83461   0.24761   0.97333   0.00000  Uiso   1.00
C757   C     0.73482   0.24840   0.73793   0.00000  Uiso   1.00
C758   C     0.93172   0.24938   0.76221   0.00000  Uiso   1.00
C759   C     0.67976   0.24154   0.73252   0.00000  Uiso   1.00
C760   C     0.98685   0.25236   0.76889   0.00000  Uiso   1.00
C761   C     0.87875   0.05019   0.77200   0.00000  Uiso   1.00
C762   C     0.79049   0.45119   0.75929   0.00000  Uiso   1.00
C763   C     0.88003   0.09676   0.77249   0.00000  Uiso   1.00
C764   C     0.83279   0.33471   0.75027   0.00000  Uiso   1.00
C765   C     0.78857   0.40466   0.76026   0.00000  Uiso   1.00
C766   C     0.83685   0.11735   0.74949   0.00000  Uiso   1.00
C767   C     0.83217   0.38286   0.75082   0.00000  Uiso   1.00
C768   C     0.79431   0.09164   0.72618   0.00000  Uiso   1.00
C769   C     0.87616   0.40743   0.74068   0.00000  Uiso   1.00
C770   C     0.79384   0.04552   0.72564   0.00000  Uiso   1.00
C771   C     0.87757   0.45363   0.74020   0.00000  Uiso   1.00
C772   C     0.83590   0.02452   0.74877   0.00000  Uiso   1.00
C773   C     0.83472   0.47574   0.74943   0.00000  Uiso   1.00
C774   C     0.92778   0.12282   0.79751   0.00000  Uiso   1.00
C775   C     0.86821   0.27671   0.55842   0.00000  Uiso   1.00
C776   C     0.97341   0.11832   0.77012   0.00000  Uiso   1.00
C777   C     0.73883   0.37990   0.76888   0.00000  Uiso   1.00
C778   C     0.72822   0.38729   0.82028   0.00000  Uiso   1.00
C779   C     0.90316   0.31460   0.63638   0.00000  Uiso   1.00
C780   C     0.95870   0.31517   0.62551   0.00000  Uiso   1.00
C781   C     0.77343   0.17860   0.86479   0.00000  Uiso   1.00
C782   C     0.79563   0.13282   0.86837   0.00000  Uiso   1.00
C783   C     0.76448   0.18476   0.61671   0.00000  Uiso   1.00
C784   C     0.78122   0.13789   0.60817   0.00000  Uiso   1.00
C785   C     0.87410   0.33154   0.88490   0.00000  Uiso   1.00
C786   C     0.81231   0.21239   0.94285   0.00000  Uiso   1.00
C787   C     0.92640   0.33215   0.86746   0.00000  Uiso   1.00
C788   C     0.86729   0.27844   0.60851   0.00000  Uiso   1.00
C789   C     0.80937   0.21451   0.89225   0.00000  Uiso   1.00
C790   C     0.80082   0.22004   0.59927   0.00000  Uiso   1.00
C791   C     0.85454   0.28598   0.90093   0.00000  Uiso   1.00
C792   C     0.79998   0.22038   0.54895   0.00000  Uiso   1.00
Cl793  Cl    0.98480   0.21100   0.67997   0.00000  Uiso   1.00
Cl794  Cl    0.68220   0.27474   0.82589   0.00000  Uiso   1.00
Cu795  Cu    0.83333   0.24999   0.79821   0.00000  Uiso   1.00
Cu796  Cu    0.83333   0.25000   0.70179   0.00000  Uiso   1.00
H797   H     0.91098   0.03389   0.79044   0.00000  Uiso   1.00
H798   H     0.86895   0.31349   0.97291   0.00000  Uiso   1.00
H799   H     0.96364   0.12885   0.73259   0.00000  Uiso   1.00
H800   H     0.67352   0.13986   0.78761   0.00000  Uiso   1.00
H801   H     0.98440   0.08333   0.76993   0.00000  Uiso   1.00
H802   H     0.92217   0.15873   0.80149   0.00000  Uiso   1.00
H803   H     0.93730   0.11034   0.83435   0.00000  Uiso   1.00
H804   H     0.69004   0.37120   0.82442   0.00000  Uiso   1.00
H805   H     0.75785   0.37246   0.84585   0.00000  Uiso   1.00
H806   H     0.72780   0.42334   0.82914   0.00000  Uiso   1.00
H807   H     0.70669   0.39191   0.74370   0.00000  Uiso   1.00
H808   H     0.75732   0.46838   0.76630   0.00000  Uiso   1.00
H809   H     0.73887   0.34359   0.76162   0.00000  Uiso   1.00
H810   H     0.97012   0.28098   0.61951   0.00000  Uiso   1.00
H811   H     0.96322   0.33473   0.59311   0.00000  Uiso   1.00
H812   H     0.98528   0.33124   0.65594   0.00000  Uiso   1.00
H813   H     0.88813   0.34750   0.62731   0.00000  Uiso   1.00
H814   H     0.90541   0.31224   0.67507   0.00000  Uiso   1.00
H815   H     0.79474   0.11961   0.90483   0.00000  Uiso   1.00
H816   H     0.77226   0.10910   0.84212   0.00000  Uiso   1.00
H817   H     0.83596   0.13469   0.86090   0.00000  Uiso   1.00
H818   H     0.73668   0.17640   0.88016   0.00000  Uiso   1.00
H819   H     0.76104   0.10738   0.70901   0.00000  Uiso   1.00
H820   H     0.76147   0.18643   0.82725   0.00000  Uiso   1.00
H821   H     0.78152   0.13079   0.56940   0.00000  Uiso   1.00
H822   H     0.82020   0.13417   0.62772   0.00000  Uiso   1.00
H823   H     0.75387   0.11287   0.62123   0.00000  Uiso   1.00
H824   H     0.76039   0.18806   0.65452   0.00000  Uiso   1.00
H825   H     0.72529   0.18750   0.59705   0.00000  Uiso   1.00
H826   H     0.95032   0.30745   0.88693   0.00000  Uiso   1.00
H827   H     0.92274   0.32617   0.82837   0.00000  Uiso   1.00
H828   H     0.94675   0.36563   0.87467   0.00000  Uiso   1.00
H829   H     0.84469   0.34824   0.86157   0.00000  Uiso   1.00
H830   H     0.90951   0.39073   0.73321   0.00000  Uiso   1.00
H831   H     0.88007   0.35593   0.91561   0.00000  Uiso   1.00
H832   H     0.76059   0.02621   0.70716   0.00000  Uiso   1.00
H833   H     0.91184   0.47206   0.73196   0.00000  Uiso   1.00
H834   H     0.89629   0.29821   0.54400   0.00000  Uiso   1.00
H835   H     0.79497   0.18329   0.95786   0.00000  Uiso   1.00
H836   H     0.77167   0.19858   0.52685   0.00000  Uiso   1.00
N837   N     0.83333   0.25001   0.62935   0.00000  Uiso   1.00
N838   N     0.83333   0.24999   0.87065   0.00000  Uiso   1.00
O839   O     0.83334   0.18572   0.79071   0.00000  Uiso   1.00
O840   O     0.83333   0.31427   0.70929   0.00000  Uiso   1.00
O841   O     0.83334   0.18573   0.70928   0.00000  Uiso   1.00
O842   O     0.83333   0.31427   0.79072   0.00000  Uiso   1.00
O843   O     0.75828   0.24999   0.78132   0.00000  Uiso   1.00
O844   O     0.90839   0.25000   0.71868   0.00000  Uiso   1.00
O845   O     0.75828   0.25000   0.69989   0.00000  Uiso   1.00
O846   O     0.90839   0.25000   0.80011   0.00000  Uiso   1.00
C847   C     0.16787   0.66535   0.74983   0.00000  Uiso   1.00
C848   C     0.18807   0.78433   0.95110   0.00000  Uiso   1.00
C849   C     0.16776   0.74792   0.52744   0.00000  Uiso   1.00
C850   C     0.16794   0.74761   0.97333   0.00000  Uiso   1.00
C851   C     0.06816   0.74840   0.73793   0.00000  Uiso   1.00
C852   C     0.26505   0.74938   0.76221   0.00000  Uiso   1.00
C853   C     0.01309   0.74154   0.73252   0.00000  Uiso   1.00
C854   C     0.32018   0.75236   0.76889   0.00000  Uiso   1.00
C855   C     0.21209   0.55019   0.77200   0.00000  Uiso   1.00
C856   C     0.12383   0.95119   0.75929   0.00000  Uiso   1.00
C857   C     0.21337   0.59676   0.77249   0.00000  Uiso   1.00
C858   C     0.16613   0.83471   0.75027   0.00000  Uiso   1.00
C859   C     0.12190   0.90466   0.76026   0.00000  Uiso   1.00
C860   C     0.17018   0.61735   0.74949   0.00000  Uiso   1.00
C861   C     0.16550   0.88286   0.75082   0.00000  Uiso   1.00
C862   C     0.12764   0.59164   0.72618   0.00000  Uiso   1.00
C863   C     0.20949   0.90743   0.74068   0.00000  Uiso   1.00
C864   C     0.12717   0.54552   0.72564   0.00000  Uiso   1.00
C865   C     0.21090   0.95363   0.74020   0.00000  Uiso   1.00
C866   C     0.16924   0.52452   0.74877   0.00000  Uiso   1.00
C867   C     0.16805   0.97574   0.74943   0.00000  Uiso   1.00
C868   C     0.26112   0.62282   0.79751   0.00000  Uiso   1.00
C869   C     0.20154   0.77671   0.55842   0.00000  Uiso   1.00
C870   C     0.30675   0.61832   0.77012   0.00000  Uiso   1.00
C871   C     0.07217   0.87990   0.76888   0.00000  Uiso   1.00
C872   C     0.06155   0.88729   0.82028   0.00000  Uiso   1.00
C873   C     0.23650   0.81460   0.63638   0.00000  Uiso   1.00
C874   C     0.29203   0.81517   0.62551   0.00000  Uiso   1.00
C875   C     0.10677   0.67860   0.86479   0.00000  Uiso   1.00
C876   C     0.12896   0.63282   0.86837   0.00000  Uiso   1.00
C877   C     0.09781   0.68476   0.61671   0.00000  Uiso   1.00
C878   C     0.11456   0.63789   0.60817   0.00000  Uiso   1.00
C879   C     0.20743   0.83154   0.88490   0.00000  Uiso   1.00
C880   C     0.14564   0.71239   0.94285   0.00000  Uiso   1.00
C881   C     0.25973   0.83215   0.86746   0.00000  Uiso   1.00
C882   C     0.20063   0.77844   0.60851   0.00000  Uiso   1.00
C883   C     0.14271   0.71451   0.89225   0.00000  Uiso   1.00
C884   C     0.13416   0.72004   0.59927   0.00000  Uiso   1.00
C885   C     0.18787   0.78598   0.90093   0.00000  Uiso   1.00
C886   C     0.13331   0.72038   0.54895   0.00000  Uiso   1.00
Cl887  Cl    0.31814   0.71100   0.67997   0.00000  Uiso   1.00
Cl888  Cl    0.01553   0.77474   0.82589   0.00000  Uiso   1.00
Cu889  Cu    0.16667   0.74999   0.79821   0.00000  Uiso   1.00
Cu890  Cu    0.16667   0.75000   0.70179   0.00000  Uiso   1.00
H891   H     0.24431   0.53389   0.79044   0.00000  Uiso   1.00
H892   H     0.20228   0.81349   0.97291   0.00000  Uiso   1.00
H893   H     0.29697   0.62885   0.73259   0.00000  Uiso   1.00
H894   H     0.00686   0.63986   0.78761   0.00000  Uiso   1.00
H895   H     0.31774   0.58333   0.76993   0.00000  Uiso   1.00
H896   H     0.25551   0.65873   0.80149   0.00000  Uiso   1.00
H897   H     0.27063   0.61034   0.83435   0.00000  Uiso   1.00
H898   H     0.02337   0.87120   0.82442   0.00000  Uiso   1.00
H899   H     0.09118   0.87246   0.84585   0.00000  Uiso   1.00
H900   H     0.06114   0.92334   0.82914   0.00000  Uiso   1.00
H901   H     0.04003   0.89191   0.74370   0.00000  Uiso   1.00
H902   H     0.09065   0.96838   0.76630   0.00000  Uiso   1.00
H903   H     0.07220   0.84359   0.76162   0.00000  Uiso   1.00
H904   H     0.30346   0.78098   0.61951   0.00000  Uiso   1.00
H905   H     0.29655   0.83473   0.59311   0.00000  Uiso   1.00
H906   H     0.31861   0.83124   0.65594   0.00000  Uiso   1.00
H907   H     0.22147   0.84750   0.62731   0.00000  Uiso   1.00
H908   H     0.23874   0.81224   0.67507   0.00000  Uiso   1.00
H909   H     0.12808   0.61961   0.90483   0.00000  Uiso   1.00
H910   H     0.10560   0.60910   0.84212   0.00000  Uiso   1.00
H911   H     0.16929   0.63469   0.86090   0.00000  Uiso   1.00
H912   H     0.07001   0.67640   0.88016   0.00000  Uiso   1.00
H913   H     0.09438   0.60738   0.70901   0.00000  Uiso   1.00
H914   H     0.09480   0.68643   0.82725   0.00000  Uiso   1.00
H915   H     0.11485   0.63079   0.56940   0.00000  Uiso   1.00
H916   H     0.15354   0.63417   0.62772   0.00000  Uiso   1.00
H917   H     0.08720   0.61287   0.62123   0.00000  Uiso   1.00
H918   H     0.09372   0.68806   0.65452   0.00000  Uiso   1.00
H919   H     0.05862   0.68750   0.59705   0.00000  Uiso   1.00
H920   H     0.28365   0.80745   0.88693   0.00000  Uiso   1.00
H921   H     0.25607   0.82617   0.82837   0.00000  Uiso   1.00
H922   H     0.28009   0.86563   0.87467   0.00000  Uiso   1.00
H923   H     0.17803   0.84824   0.86157   0.00000  Uiso   1.00
H924   H     0.24284   0.89073   0.73321   0.00000  Uiso   1.00
H925   H     0.21340   0.85593   0.91561   0.00000  Uiso   1.00
H926   H     0.09392   0.52621   0.70716   0.00000  Uiso   1.00
H927   H     0.24517   0.97206   0.73196   0.00000  Uiso   1.00
H928   H     0.22963   0.79821   0.54400   0.00000  Uiso   1.00
H929   H     0.12831   0.68329   0.95786   0.00000  Uiso   1.00
H930   H     0.10501   0.69858   0.52685   0.00000  Uiso   1.00
N931   N     0.16667   0.75001   0.62935   0.00000  Uiso   1.00
N932   N     0.16667   0.74999   0.87065   0.00000  Uiso   1.00
O933   O     0.16667   0.68572   0.79071   0.00000  Uiso   1.00
O934   O     0.16666   0.81427   0.70929   0.00000  Uiso   1.00
O935   O     0.16667   0.68573   0.70928   0.00000  Uiso   1.00
O936   O     0.16666   0.81427   0.79072   0.00000  Uiso   1.00
O937   O     0.09161   0.74999   0.78132   0.00000  Uiso   1.00
O938   O     0.24172   0.75000   0.71868   0.00000  Uiso   1.00
O939   O     0.09161   0.75000   0.69989   0.00000  Uiso   1.00
O940   O     0.24172   0.75000   0.80011   0.00000  Uiso   1.00
C941   C     0.50121   0.66535   0.74983   0.00000  Uiso   1.00
C942   C     0.52140   0.78433   0.95110   0.00000  Uiso   1.00
C943   C     0.50110   0.74792   0.52744   0.00000  Uiso   1.00
C944   C     0.50128   0.74761   0.97333   0.00000  Uiso   1.00
C945   C     0.40149   0.74840   0.73793   0.00000  Uiso   1.00
C946   C     0.59838   0.74938   0.76221   0.00000  Uiso   1.00
C947   C     0.34642   0.74154   0.73252   0.00000  Uiso   1.00
C948   C     0.65351   0.75236   0.76889   0.00000  Uiso   1.00
C949   C     0.54542   0.55019   0.77200   0.00000  Uiso   1.00
C950   C     0.45716   0.95119   0.75929   0.00000  Uiso   1.00
C951   C     0.54670   0.59676   0.77249   0.00000  Uiso   1.00
C952   C     0.49946   0.83471   0.75027   0.00000  Uiso   1.00
C953   C     0.45524   0.90466   0.76026   0.00000  Uiso   1.00
C954   C     0.50352   0.61735   0.74949   0.00000  Uiso   1.00
C955   C     0.49884   0.88286   0.75082   0.00000  Uiso   1.00
C956   C     0.46098   0.59164   0.72618   0.00000  Uiso   1.00
C957   C     0.54282   0.90743   0.74068   0.00000  Uiso   1.00
C958   C     0.46050   0.54552   0.72564   0.00000  Uiso   1.00
C959   C     0.54424   0.95363   0.74020   0.00000  Uiso   1.00
C960   C     0.50257   0.52452   0.74877   0.00000  Uiso   1.00
C961   C     0.50138   0.97574   0.74943   0.00000  Uiso   1.00
C962   C     0.59445   0.62282   0.79751   0.00000  Uiso   1.00
C963   C     0.53487   0.77671   0.55842   0.00000  Uiso   1.00
C964   C     0.64008   0.61832   0.77012   0.00000  Uiso   1.00
C965   C     0.40550   0.87990   0.76888   0.00000  Uiso   1.00
C966   C     0.39488   0.88729   0.82028   0.00000  Uiso   1.00
C967   C     0.56983   0.81460   0.63638   0.00000  Uiso   1.00
C968   C     0.62536   0.81517   0.62551   0.00000  Uiso   1.00
C969   C     0.44010   0.67860   0.86479   0.00000  Uiso   1.00
C970   C     0.46229   0.63282   0.86837   0.00000  Uiso   1.00
C971   C     0.43115   0.68476   0.61671   0.00000  Uiso   1.00
C972   C     0.44789   0.63789   0.60817   0.00000  Uiso   1.00
C973   C     0.54077   0.83154   0.88490   0.00000  Uiso   1.00
C974   C     0.47897   0.71239   0.94285   0.00000  Uiso   1.00
C975   C     0.59307   0.83215   0.86746   0.00000  Uiso   1.00
C976   C     0.53396   0.77844   0.60851   0.00000  Uiso   1.00
C977   C     0.47604   0.71451   0.89225   0.00000  Uiso   1.00
C978   C     0.46749   0.72004   0.59927   0.00000  Uiso   1.00
C979   C     0.52121   0.78598   0.90093   0.00000  Uiso   1.00
C980   C     0.46665   0.72038   0.54895   0.00000  Uiso   1.00
Cl981  Cl    0.65147   0.71100   0.67997   0.00000  Uiso   1.00
Cl982  Cl    0.34887   0.77474   0.82589   0.00000  Uiso   1.00
Cu983  Cu    0.50000   0.74999   0.79821   0.00000  Uiso   1.00
Cu984  Cu    0.50000   0.75000   0.70179   0.00000  Uiso   1.00
H985   H     0.57764   0.53389   0.79044   0.00000  Uiso   1.00
H986   H     0.53562   0.81349   0.97291   0.00000  Uiso   1.00
H987   H     0.63030   0.62885   0.73259   0.00000  Uiso   1.00
H988   H     0.34019   0.63986   0.78761   0.00000  Uiso   1.00
H989   H     0.65107   0.58333   0.76993   0.00000  Uiso   1.00
H990   H     0.58884   0.65873   0.80149   0.00000  Uiso   1.00
H991   H     0.60397   0.61034   0.83435   0.00000  Uiso   1.00
H992   H     0.35671   0.87120   0.82442   0.00000  Uiso   1.00
H993   H     0.42451   0.87246   0.84585   0.00000  Uiso   1.00
H994   H     0.39447   0.92334   0.82914   0.00000  Uiso   1.00
H995   H     0.37336   0.89191   0.74370   0.00000  Uiso   1.00
H996   H     0.42399   0.96838   0.76630   0.00000  Uiso   1.00
H997   H     0.40554   0.84359   0.76162   0.00000  Uiso   1.00
H998   H     0.63679   0.78098   0.61951   0.00000  Uiso   1.00
H999   H     0.62989   0.83473   0.59311   0.00000  Uiso   1.00
H1000  H     0.65195   0.83124   0.65594   0.00000  Uiso   1.00
H1001  H     0.55480   0.84750   0.62731   0.00000  Uiso   1.00
H1002  H     0.57208   0.81224   0.67507   0.00000  Uiso   1.00
H1003  H     0.46141   0.61961   0.90483   0.00000  Uiso   1.00
H1004  H     0.43893   0.60910   0.84212   0.00000  Uiso   1.00
H1005  H     0.50263   0.63469   0.86090   0.00000  Uiso   1.00
H1006  H     0.40335   0.67640   0.88016   0.00000  Uiso   1.00
H1007  H     0.42771   0.60738   0.70901   0.00000  Uiso   1.00
H1008  H     0.42814   0.68643   0.82725   0.00000  Uiso   1.00
H1009  H     0.44819   0.63079   0.56940   0.00000  Uiso   1.00
H1010  H     0.48687   0.63417   0.62772   0.00000  Uiso   1.00
H1011  H     0.42054   0.61287   0.62123   0.00000  Uiso   1.00
H1012  H     0.42705   0.68806   0.65452   0.00000  Uiso   1.00
H1013  H     0.39196   0.68750   0.59705   0.00000  Uiso   1.00
H1014  H     0.61698   0.80745   0.88693   0.00000  Uiso   1.00
H1015  H     0.58941   0.82617   0.82837   0.00000  Uiso   1.00
H1016  H     0.61342   0.86563   0.87467   0.00000  Uiso   1.00
H1017  H     0.51136   0.84824   0.86157   0.00000  Uiso   1.00
H1018  H     0.57618   0.89073   0.73321   0.00000  Uiso   1.00
H1019  H     0.54674   0.85593   0.91561   0.00000  Uiso   1.00
H1020  H     0.42726   0.52621   0.70716   0.00000  Uiso   1.00
H1021  H     0.57851   0.97206   0.73196   0.00000  Uiso   1.00
H1022  H     0.56296   0.79821   0.54400   0.00000  Uiso   1.00
H1023  H     0.46164   0.68329   0.95786   0.00000  Uiso   1.00
H1024  H     0.43834   0.69858   0.52685   0.00000  Uiso   1.00
N1025  N     0.50000   0.75001   0.62935   0.00000  Uiso   1.00
N1026  N     0.50000   0.74999   0.87065   0.00000  Uiso   1.00
O1027  O     0.50000   0.68572   0.79071   0.00000  Uiso   1.00
O1028  O     0.50000   0.81427   0.70929   0.00000  Uiso   1.00
O1029  O     0.50000   0.68573   0.70928   0.00000  Uiso   1.00
O1030  O     0.50000   0.81427   0.79072   0.00000  Uiso   1.00
O1031  O     0.42495   0.74999   0.78132   0.00000  Uiso   1.00
O1032  O     0.57505   0.75000   0.71868   0.00000  Uiso   1.00
O1033  O     0.42495   0.75000   0.69989   0.00000  Uiso   1.00
O1034  O     0.57505   0.75000   0.80011   0.00000  Uiso   1.00
C1035  C     0.83454   0.66535   0.74983   0.00000  Uiso   1.00
C1036  C     0.85473   0.78433   0.95110   0.00000  Uiso   1.00
C1037  C     0.83443   0.74792   0.52744   0.00000  Uiso   1.00
C1038  C     0.83461   0.74761   0.97333   0.00000  Uiso   1.00
C1039  C     0.73482   0.74840   0.73793   0.00000  Uiso   1.00
C1040  C     0.93172   0.74938   0.76221   0.00000  Uiso   1.00
C1041  C     0.67976   0.74154   0.73252   0.00000  Uiso   1.00
C1042  C     0.98685   0.75236   0.76889   0.00000  Uiso   1.00
C1043  C     0.87875   0.55019   0.77200   0.00000  Uiso   1.00
C1044  C     0.79049   0.95119   0.75929   0.00000  Uiso   1.00
C1045  C     0.88003   0.59676   0.77249   0.00000  Uiso   1.00
C1046  C     0.83279   0.83471   0.75027   0.00000  Uiso   1.00
C1047  C     0.78857   0.90466   0.76026   0.00000  Uiso   1.00
C1048  C     0.83685   0.61735   0.74949   0.00000  Uiso   1.00
C1049  C     0.83217   0.88286   0.75082   0.00000  Uiso   1.00
C1050  C     0.79431   0.59164   0.72618   0.00000  Uiso   1.00
C1051  C     0.87616   0.90743   0.74068   0.00000  Uiso   1.00
C1052  C     0.79384   0.54552   0.72564   0.00000  Uiso   1.00
C1053  C     0.87757   0.95363   0.74020   0.00000  Uiso   1.00
C1054  C     0.83590   0.52452   0.74877   0.00000  Uiso   1.00
C1055  C     0.83472   0.97574   0.74943   0.00000  Uiso   1.00
C1056  C     0.92778   0.62282   0.79751   0.00000  Uiso   1.00
C1057  C     0.86821   0.77671   0.55842   0.00000  Uiso   1.00
C1058  C     0.97341   0.61832   0.77012   0.00000  Uiso   1.00
C1059  C     0.73883   0.87990   0.76888   0.00000  Uiso   1.00
C1060  C     0.72822   0.88729   0.82028   0.00000  Uiso   1.00
C1061  C     0.90316   0.81460   0.63638   0.00000  Uiso   1.00
C1062  C     0.95870   0.81517   0.62551   0.00000  Uiso   1.00
C1063  C     0.77343   0.67860   0.86479   0.00000  Uiso   1.00
C1064  C     0.79563   0.63282   0.86837   0.00000  Uiso   1.00
C1065  C     0.76448   0.68476   0.61671   0.00000  Uiso   1.00
C1066  C     0.78122   0.63789   0.60817   0.00000  Uiso   1.00
C1067  C     0.87410   0.83154   0.88490   0.00000  Uiso   1.00
C1068  C     0.81231   0.71239   0.94285   0.00000  Uiso   1.00
C1069  C     0.92640   0.83215   0.86746   0.00000  Uiso   1.00
C1070  C     0.86729   0.77844   0.60851   0.00000  Uiso   1.00
C1071  C     0.80937   0.71451   0.89225   0.00000  Uiso   1.00
C1072  C     0.80082   0.72004   0.59927   0.00000  Uiso   1.00
C1073  C     0.85454   0.78598   0.90093   0.00000  Uiso   1.00
C1074  C     0.79998   0.72038   0.54895   0.00000  Uiso   1.00
Cl1075 Cl    0.98480   0.71100   0.67997   0.00000  Uiso   1.00
Cl1076 Cl    0.68220   0.77474   0.82589   0.00000  Uiso   1.00
Cu1077 Cu    0.83333   0.74999   0.79821   0.00000  Uiso   1.00
Cu1078 Cu    0.83333   0.75000   0.70179   0.00000  Uiso   1.00
H1079  H     0.91098   0.53389   0.79044   0.00000  Uiso   1.00
H1080  H     0.86895   0.81349   0.97291   0.00000  Uiso   1.00
H1081  H     0.96364   0.62885   0.73259   0.00000  Uiso   1.00
H1082  H     0.67352   0.63986   0.78761   0.00000  Uiso   1.00
H1083  H     0.98440   0.58333   0.76993   0.00000  Uiso   1.00
H1084  H     0.92217   0.65873   0.80149   0.00000  Uiso   1.00
H1085  H     0.93730   0.61034   0.83435   0.00000  Uiso   1.00
H1086  H     0.69004   0.87120   0.82442   0.00000  Uiso   1.00
H1087  H     0.75785   0.87246   0.84585   0.00000  Uiso   1.00
H1088  H     0.72780   0.92334   0.82914   0.00000  Uiso   1.00
H1089  H     0.70669   0.89191   0.74370   0.00000  Uiso   1.00
H1090  H     0.75732   0.96838   0.76630   0.00000  Uiso   1.00
H1091  H     0.73887   0.84359   0.76162   0.00000  Uiso   1.00
H1092  H     0.97012   0.78098   0.61951   0.00000  Uiso   1.00
H1093  H     0.96322   0.83473   0.59311   0.00000  Uiso   1.00
H1094  H     0.98528   0.83124   0.65594   0.00000  Uiso   1.00
H1095  H     0.88813   0.84750   0.62731   0.00000  Uiso   1.00
H1096  H     0.90541   0.81224   0.67507   0.00000  Uiso   1.00
H1097  H     0.79474   0.61961   0.90483   0.00000  Uiso   1.00
H1098  H     0.77226   0.60910   0.84212   0.00000  Uiso   1.00
H1099  H     0.83596   0.63469   0.86090   0.00000  Uiso   1.00
H1100  H     0.73668   0.67640   0.88016   0.00000  Uiso   1.00
H1101  H     0.76104   0.60738   0.70901   0.00000  Uiso   1.00
H1102  H     0.76147   0.68643   0.82725   0.00000  Uiso   1.00
H1103  H     0.78152   0.63079   0.56940   0.00000  Uiso   1.00
H1104  H     0.82020   0.63417   0.62772   0.00000  Uiso   1.00
H1105  H     0.75387   0.61287   0.62123   0.00000  Uiso   1.00
H1106  H     0.76039   0.68806   0.65452   0.00000  Uiso   1.00
H1107  H     0.72529   0.68750   0.59705   0.00000  Uiso   1.00
H1108  H     0.95032   0.80745   0.88693   0.00000  Uiso   1.00
H1109  H     0.92274   0.82617   0.82837   0.00000  Uiso   1.00
H1110  H     0.94675   0.86563   0.87467   0.00000  Uiso   1.00
H1111  H     0.84469   0.84824   0.86157   0.00000  Uiso   1.00
H1112  H     0.90951   0.89073   0.73321   0.00000  Uiso   1.00
H1113  H     0.88007   0.85593   0.91561   0.00000  Uiso   1.00
H1114  H     0.76059   0.52621   0.70716   0.00000  Uiso   1.00
H1115  H     0.91184   0.97206   0.73196   0.00000  Uiso   1.00
H1116  H     0.89629   0.79821   0.54400   0.00000  Uiso   1.00
H1117  H     0.79497   0.68329   0.95786   0.00000  Uiso   1.00
H1118  H     0.77167   0.69858   0.52685   0.00000  Uiso   1.00
N1119  N     0.83333   0.75001   0.62935   0.00000  Uiso   1.00
N1120  N     0.83333   0.74999   0.87065   0.00000  Uiso   1.00
O1121  O     0.83334   0.68572   0.79071   0.00000  Uiso   1.00
O1122  O     0.83333   0.81427   0.70929   0.00000  Uiso   1.00
O1123  O     0.83334   0.68573   0.70928   0.00000  Uiso   1.00
O1124  O     0.83333   0.81427   0.79072   0.00000  Uiso   1.00
O1125  O     0.75828   0.74999   0.78132   0.00000  Uiso   1.00
O1126  O     0.90839   0.75000   0.71868   0.00000  Uiso   1.00
O1127  O     0.75828   0.75000   0.69989   0.00000  Uiso   1.00
O1128  O     0.90839   0.75000   0.80011   0.00000  Uiso   1.00
loop_
_geom_bond_atom_site_label_1
_geom_bond_atom_site_label_2
_geom_bond_distance
_geom_bond_site_symmetry_2
_ccdc_geom_bond_type
C1     O87     1.300   .     A
C1     O89     1.303   .     A
C1     C14     1.450   .     S
C2     H46     1.078   .     S
C2     C39     1.414   .     A
C2     C4      1.390   .     A
C3     C23     1.401   .     A
C3     C40     1.395   .     A
C3     C568    1.525   1_554 S
C4     C34     1.397   .     A
C4     C567    1.525   .     S
C5     C7      1.439   .     S
C5     O91     1.290   .     A
C5     O93     1.309   .     A
C6     O94     1.303   .     A
C6     C8      1.436   .     S
C6     O92     1.295   .     A
C7     C196    1.359   1_455 S
C7     Cl229   1.775   1_455 S
C8     C101    1.359   .     S
C8     Cl136   1.779   .     S
C9     H45     1.084   .     S
C9     C20     1.401   .     A
C9     C11     1.399   .     A
C10    H56     1.084   .     S
C10    C21     1.401   .     A
C10    C13     1.399   .     A
C11    C14     1.416   .     A
C11    C22     1.517   .     S
C12    O90     1.303   .     A
C12    O88     1.301   .     A
C12    C15     1.450   .     S
C13    C25     1.515   .     S
C13    C15     1.414   .     A
C14    C16     1.397   .     A
C15    C17     1.399   .     A
C16    H67     1.084   .     S
C16    C18     1.387   .     A
C17    C19     1.388   .     A
C17    H78     1.084   .     S
C18    C20     1.401   .     A
C18    H80     1.083   .     S
C19    C21     1.400   .     A
C19    H81     1.083   .     S
C20    C303    1.467   1_545 S
C21    C302    1.467   .     S
C22    H50     1.106   .     S
C22    C24     1.527   .     S
C22    H51     1.111   .     S
C23    H82     1.077   .     S
C23    C36     1.414   .     A
C24    H49     1.110   .     S
C24    H47     1.110   .     S
C24    H142    1.111   .     S
C25    H57     1.108   .     S
C25    C26     1.527   .     S
C25    H55     1.112   .     S
C26    H54     1.110   .     S
C26    H52     1.109   .     S
C26    H53     1.109   .     S
C27    H61     1.111   .     S
C27    H62     1.087   .     S
C27    C36     1.525   .     S
C27    C28     1.535   .     S
C28    H60     1.112   .     S
C28    H59     1.110   .     S
C28    H58     1.108   .     S
C29    C30     1.532   .     S
C29    H68     1.095   .     S
C29    H66     1.113   .     S
C29    C37     1.516   .     S
C30    H64     1.111   .     S
C30    H63     1.110   .     S
C30    H65     1.110   .     S
C31    H73     1.112   .     S
C31    C32     1.530   .     S
C31    H72     1.088   .     S
C31    C38     1.516   .     S
C32    H71     1.110   .     S
C32    H70     1.111   .     S
C32    H69     1.110   .     S
C33    C39     1.530   .     S
C33    H79     1.112   .     S
C33    H77     1.099   .     S
C33    C35     1.525   .     S
C34    C37     1.419   .     A
C34    H83     1.080   .     S
C35    H74     1.110   .     S
C35    H75     1.103   .     S
C35    H76     1.111   .     S
C36    N85     1.392   .     A
C37    N86     1.395   .     A
C38    N85     1.392   .     A
C38    C40     1.415   .     A
C39    N86     1.403   .     A
C40    H84     1.081   .     S
Cl41   C101    1.775   .     S
Cl42   C196    1.779   1_455 S
Cu43   O94     1.972   .     S
Cu43   N86     2.040   .     S
Cu43   O90     1.949   .     S
Cu43   O91     1.970   .     S
Cu43   Cu44    2.716   .     S
Cu43   O87     1.942   .     S
Cu44   O93     1.972   .     S
Cu44   O92     1.970   .     S
Cu44   O88     1.942   .     S
Cu44   O89     1.949   .     S
Cu44   N85     2.040   .     S
H48    C212    1.111   1_455 S
C95    O181    1.300   .     A
C95    O183    1.303   .     A
C95    C108    1.450   .     S
C96    H140    1.078   .     S
C96    C133    1.414   .     A
C96    C98     1.390   .     A
C97    C117    1.401   .     A
C97    C134    1.395   .     A
C97    C662    1.525   1_554 S
C98    C128    1.397   .     A
C98    C661    1.525   .     S
C99    C101    1.439   .     S
C99    O185    1.290   .     A
C99    O187    1.309   .     A
C100   O188    1.303   .     A
C100   C102    1.436   .     S
C100   O186    1.295   .     A
C102   C195    1.359   .     S
C102   Cl230   1.779   .     S
C103   H139    1.084   .     S
C103   C114    1.401   .     A
C103   C105    1.399   .     A
C104   H150    1.084   .     S
C104   C115    1.401   .     A
C104   C107    1.399   .     A
C105   C108    1.416   .     A
C105   C116    1.517   .     S
C106   O184    1.303   .     A
C106   O182    1.301   .     A
C106   C109    1.450   .     S
C107   C119    1.515   .     S
C107   C109    1.414   .     A
C108   C110    1.397   .     A
C109   C111    1.399   .     A
C110   H161    1.084   .     S
C110   C112    1.387   .     A
C111   C113    1.388   .     A
C111   H172    1.084   .     S
C112   C114    1.401   .     A
C112   H174    1.083   .     S
C113   C115    1.400   .     A
C113   H175    1.083   .     S
C114   C397    1.467   1_545 S
C115   C396    1.467   .     S
C116   H144    1.106   .     S
C116   C118    1.527   .     S
C116   H145    1.111   .     S
C117   H176    1.077   .     S
C117   C130    1.414   .     A
C118   H143    1.110   .     S
C118   H141    1.110   .     S
C118   H236    1.111   .     S
C119   H151    1.108   .     S
C119   C120    1.527   .     S
C119   H149    1.112   .     S
C120   H148    1.110   .     S
C120   H146    1.109   .     S
C120   H147    1.109   .     S
C121   H155    1.111   .     S
C121   H156    1.087   .     S
C121   C130    1.525   .     S
C121   C122    1.535   .     S
C122   H154    1.112   .     S
C122   H153    1.110   .     S
C122   H152    1.108   .     S
C123   C124    1.532   .     S
C123   H162    1.095   .     S
C123   H160    1.113   .     S
C123   C131    1.516   .     S
C124   H158    1.111   .     S
C124   H157    1.110   .     S
C124   H159    1.110   .     S
C125   H167    1.112   .     S
C125   C126    1.530   .     S
C125   H166    1.088   .     S
C125   C132    1.516   .     S
C126   H165    1.110   .     S
C126   H164    1.111   .     S
C126   H163    1.110   .     S
C127   C133    1.530   .     S
C127   H173    1.112   .     S
C127   H171    1.099   .     S
C127   C129    1.525   .     S
C128   C131    1.419   .     A
C128   H177    1.080   .     S
C129   H168    1.110   .     S
C129   H169    1.103   .     S
C129   H170    1.111   .     S
C130   N179    1.392   .     A
C131   N180    1.395   .     A
C132   N179    1.392   .     A
C132   C134    1.415   .     A
C133   N180    1.403   .     A
C134   H178    1.081   .     S
Cl135  C195    1.775   .     S
Cu137  O188    1.972   .     S
Cu137  N180    2.040   .     S
Cu137  O184    1.949   .     S
Cu137  O185    1.970   .     S
Cu137  Cu138   2.716   .     S
Cu137  O181    1.942   .     S
Cu138  O187    1.972   .     S
Cu138  O186    1.970   .     S
Cu138  O182    1.942   .     S
Cu138  O183    1.949   .     S
Cu138  N179    2.040   .     S
C189   O275    1.300   .     A
C189   O277    1.303   .     A
C189   C202    1.450   .     S
C190   H234    1.078   .     S
C190   C227    1.414   .     A
C190   C192    1.390   .     A
C191   C211    1.401   .     A
C191   C228    1.395   .     A
C191   C756    1.525   1_554 S
C192   C222    1.397   .     A
C192   C755    1.525   .     S
C193   C195    1.439   .     S
C193   O279    1.290   .     A
C193   O281    1.309   .     A
C194   O282    1.303   .     A
C194   C196    1.436   .     S
C194   O280    1.295   .     A
C196   C7      1.359   1_655 S
C196   Cl42    1.779   1_655 S
C197   H233    1.084   .     S
C197   C208    1.401   .     A
C197   C199    1.399   .     A
C198   H244    1.084   .     S
C198   C209    1.401   .     A
C198   C201    1.399   .     A
C199   C202    1.416   .     A
C199   C210    1.517   .     S
C200   O278    1.303   .     A
C200   O276    1.301   .     A
C200   C203    1.450   .     S
C201   C213    1.515   .     S
C201   C203    1.414   .     A
C202   C204    1.397   .     A
C203   C205    1.399   .     A
C204   H255    1.084   .     S
C204   C206    1.387   .     A
C205   C207    1.388   .     A
C205   H266    1.084   .     S
C206   C208    1.401   .     A
C206   H268    1.083   .     S
C207   C209    1.400   .     A
C207   H269    1.083   .     S
C208   C491    1.467   1_545 S
C209   C490    1.467   .     S
C210   H238    1.106   .     S
C210   C212    1.527   .     S
C210   H239    1.111   .     S
C211   H270    1.077   .     S
C211   C224    1.414   .     A
C212   H237    1.110   .     S
C212   H235    1.110   .     S
C212   H48     1.111   1_655 S
C213   H245    1.108   .     S
C213   C214    1.527   .     S
C213   H243    1.112   .     S
C214   H242    1.110   .     S
C214   H240    1.109   .     S
C214   H241    1.109   .     S
C215   H249    1.111   .     S
C215   H250    1.087   .     S
C215   C224    1.525   .     S
C215   C216    1.535   .     S
C216   H248    1.112   .     S
C216   H247    1.110   .     S
C216   H246    1.108   .     S
C217   C218    1.532   .     S
C217   H256    1.095   .     S
C217   H254    1.113   .     S
C217   C225    1.516   .     S
C218   H252    1.111   .     S
C218   H251    1.110   .     S
C218   H253    1.110   .     S
C219   H261    1.112   .     S
C219   C220    1.530   .     S
C219   H260    1.088   .     S
C219   C226    1.516   .     S
C220   H259    1.110   .     S
C220   H258    1.111   .     S
C220   H257    1.110   .     S
C221   C227    1.530   .     S
C221   H267    1.112   .     S
C221   H265    1.099   .     S
C221   C223    1.525   .     S
C222   C225    1.419   .     A
C222   H271    1.080   .     S
C223   H262    1.110   .     S
C223   H263    1.103   .     S
C223   H264    1.111   .     S
C224   N273    1.392   .     A
C225   N274    1.395   .     A
C226   N273    1.392   .     A
C226   C228    1.415   .     A
C227   N274    1.403   .     A
C228   H272    1.081   .     S
Cl229  C7      1.775   1_655 S
Cu231  O282    1.972   .     S
Cu231  N274    2.040   .     S
Cu231  O278    1.949   .     S
Cu231  O279    1.970   .     S
Cu231  Cu232   2.716   .     S
Cu231  O275    1.942   .     S
Cu232  O281    1.972   .     S
Cu232  O280    1.970   .     S
Cu232  O276    1.942   .     S
Cu232  O277    1.949   .     S
Cu232  N273    2.040   .     S
C283   O369    1.300   .     A
C283   O371    1.303   .     A
C283   C296    1.450   .     S
C284   H328    1.078   .     S
C284   C321    1.414   .     A
C284   C286    1.390   .     A
C285   C305    1.401   .     A
C285   C322    1.395   .     A
C285   C850    1.525   1_554 S
C286   C316    1.397   .     A
C286   C849    1.525   .     S
C287   C289    1.439   .     S
C287   O373    1.290   .     A
C287   O375    1.309   .     A
C288   O376    1.303   .     A
C288   C290    1.436   .     S
C288   O374    1.295   .     A
C289   C478    1.359   1_455 S
C289   Cl511   1.775   1_455 S
C290   C383    1.359   .     S
C290   Cl418   1.779   .     S
C291   H327    1.084   .     S
C291   C302    1.401   .     A
C291   C293    1.399   .     A
C292   H338    1.084   .     S
C292   C303    1.401   .     A
C292   C295    1.399   .     A
C293   C296    1.416   .     A
C293   C304    1.517   .     S
C294   O372    1.303   .     A
C294   O370    1.301   .     A
C294   C297    1.450   .     S
C295   C307    1.515   .     S
C295   C297    1.414   .     A
C296   C298    1.397   .     A
C297   C299    1.399   .     A
C298   H349    1.084   .     S
C298   C300    1.387   .     A
C299   C301    1.388   .     A
C299   H360    1.084   .     S
C300   C302    1.401   .     A
C300   H362    1.083   .     S
C301   C303    1.400   .     A
C301   H363    1.083   .     S
C303   C20     1.467   1_565 S
C304   H332    1.106   .     S
C304   C306    1.527   .     S
C304   H333    1.111   .     S
C305   H364    1.077   .     S
C305   C318    1.414   .     A
C306   H331    1.110   .     S
C306   H329    1.110   .     S
C306   H424    1.111   .     S
C307   H339    1.108   .     S
C307   C308    1.527   .     S
C307   H337    1.112   .     S
C308   H336    1.110   .     S
C308   H334    1.109   .     S
C308   H335    1.109   .     S
C309   H343    1.111   .     S
C309   H344    1.087   .     S
C309   C318    1.525   .     S
C309   C310    1.535   .     S
C310   H342    1.112   .     S
C310   H341    1.110   .     S
C310   H340    1.108   .     S
C311   C312    1.532   .     S
C311   H350    1.095   .     S
C311   H348    1.113   .     S
C311   C319    1.516   .     S
C312   H346    1.111   .     S
C312   H345    1.110   .     S
C312   H347    1.110   .     S
C313   H355    1.112   .     S
C313   C314    1.530   .     S
C313   H354    1.088   .     S
C313   C320    1.516   .     S
C314   H353    1.110   .     S
C314   H352    1.111   .     S
C314   H351    1.110   .     S
C315   C321    1.530   .     S
C315   H361    1.112   .     S
C315   H359    1.099   .     S
C315   C317    1.525   .     S
C316   C319    1.419   .     A
C316   H365    1.080   .     S
C317   H356    1.110   .     S
C317   H357    1.103   .     S
C317   H358    1.111   .     S
C318   N367    1.392   .     A
C319   N368    1.395   .     A
C320   N367    1.392   .     A
C320   C322    1.415   .     A
C321   N368    1.403   .     A
C322   H366    1.081   .     S
Cl323  C383    1.775   .     S
Cl324  C478    1.779   1_455 S
Cu325  O376    1.972   .     S
Cu325  N368    2.040   .     S
Cu325  O372    1.949   .     S
Cu325  O373    1.970   .     S
Cu325  Cu326   2.716   .     S
Cu325  O369    1.942   .     S
Cu326  O375    1.972   .     S
Cu326  O374    1.970   .     S
Cu326  O370    1.942   .     S
Cu326  O371    1.949   .     S
Cu326  N367    2.040   .     S
H330   C494    1.111   1_455 S
C377   O463    1.300   .     A
C377   O465    1.303   .     A
C377   C390    1.450   .     S
C378   H422    1.078   .     S
C378   C415    1.414   .     A
C378   C380    1.390   .     A
C379   C399    1.401   .     A
C379   C416    1.395   .     A
C379   C944    1.525   1_554 S
C380   C410    1.397   .     A
C380   C943    1.525   .     S
C381   C383    1.439   .     S
C381   O467    1.290   .     A
C381   O469    1.309   .     A
C382   O470    1.303   .     A
C382   C384    1.436   .     S
C382   O468    1.295   .     A
C384   C477    1.359   .     S
C384   Cl512   1.779   .     S
C385   H421    1.084   .     S
C385   C396    1.401   .     A
C385   C387    1.399   .     A
C386   H432    1.084   .     S
C386   C397    1.401   .     A
C386   C389    1.399   .     A
C387   C390    1.416   .     A
C387   C398    1.517   .     S
C388   O466    1.303   .     A
C388   O464    1.301   .     A
C388   C391    1.450   .     S
C389   C401    1.515   .     S
C389   C391    1.414   .     A
C390   C392    1.397   .     A
C391   C393    1.399   .     A
C392   H443    1.084   .     S
C392   C394    1.387   .     A
C393   C395    1.388   .     A
C393   H454    1.084   .     S
C394   C396    1.401   .     A
C394   H456    1.083   .     S
C395   C397    1.400   .     A
C395   H457    1.083   .     S
C397   C114    1.467   1_565 S
C398   H426    1.106   .     S
C398   C400    1.527   .     S
C398   H427    1.111   .     S
C399   H458    1.077   .     S
C399   C412    1.414   .     A
C400   H425    1.110   .     S
C400   H423    1.110   .     S
C400   H518    1.111   .     S
C401   H433    1.108   .     S
C401   C402    1.527   .     S
C401   H431    1.112   .     S
C402   H430    1.110   .     S
C402   H428    1.109   .     S
C402   H429    1.109   .     S
C403   H437    1.111   .     S
C403   H438    1.087   .     S
C403   C412    1.525   .     S
C403   C404    1.535   .     S
C404   H436    1.112   .     S
C404   H435    1.110   .     S
C404   H434    1.108   .     S
C405   C406    1.532   .     S
C405   H444    1.095   .     S
C405   H442    1.113   .     S
C405   C413    1.516   .     S
C406   H440    1.111   .     S
C406   H439    1.110   .     S
C406   H441    1.110   .     S
C407   H449    1.112   .     S
C407   C408    1.530   .     S
C407   H448    1.088   .     S
C407   C414    1.516   .     S
C408   H447    1.110   .     S
C408   H446    1.111   .     S
C408   H445    1.110   .     S
C409   C415    1.530   .     S
C409   H455    1.112   .     S
C409   H453    1.099   .     S
C409   C411    1.525   .     S
C410   C413    1.419   .     A
C410   H459    1.080   .     S
C411   H450    1.110   .     S
C411   H451    1.103   .     S
C411   H452    1.111   .     S
C412   N461    1.392   .     A
C413   N462    1.395   .     A
C414   N461    1.392   .     A
C414   C416    1.415   .     A
C415   N462    1.403   .     A
C416   H460    1.081   .     S
Cl417  C477    1.775   .     S
Cu419  O470    1.972   .     S
Cu419  N462    2.040   .     S
Cu419  O466    1.949   .     S
Cu419  O467    1.970   .     S
Cu419  Cu420   2.716   .     S
Cu419  O463    1.942   .     S
Cu420  O469    1.972   .     S
Cu420  O468    1.970   .     S
Cu420  O464    1.942   .     S
Cu420  O465    1.949   .     S
Cu420  N461    2.040   .     S
C471   O557    1.300   .     A
C471   O559    1.303   .     A
C471   C484    1.450   .     S
C472   H516    1.078   .     S
C472   C509    1.414   .     A
C472   C474    1.390   .     A
C473   C493    1.401   .     A
C473   C510    1.395   .     A
C473   C1038   1.525   1_554 S
C474   C504    1.397   .     A
C474   C1037   1.525   .     S
C475   C477    1.439   .     S
C475   O561    1.290   .     A
C475   O563    1.309   .     A
C476   O564    1.303   .     A
C476   C478    1.436   .     S
C476   O562    1.295   .     A
C478   C289    1.359   1_655 S
C478   Cl324   1.779   1_655 S
C479   H515    1.084   .     S
C479   C490    1.401   .     A
C479   C481    1.399   .     A
C480   H526    1.084   .     S
C480   C491    1.401   .     A
C480   C483    1.399   .     A
C481   C484    1.416   .     A
C481   C492    1.517   .     S
C482   O560    1.303   .     A
C482   O558    1.301   .     A
C482   C485    1.450   .     S
C483   C495    1.515   .     S
C483   C485    1.414   .     A
C484   C486    1.397   .     A
C485   C487    1.399   .     A
C486   H537    1.084   .     S
C486   C488    1.387   .     A
C487   C489    1.388   .     A
C487   H548    1.084   .     S
C488   C490    1.401   .     A
C488   H550    1.083   .     S
C489   C491    1.400   .     A
C489   H551    1.083   .     S
C491   C208    1.467   1_565 S
C492   H520    1.106   .     S
C492   C494    1.527   .     S
C492   H521    1.111   .     S
C493   H552    1.077   .     S
C493   C506    1.414   .     A
C494   H519    1.110   .     S
C494   H517    1.110   .     S
C494   H330    1.111   1_655 S
C495   H527    1.108   .     S
C495   C496    1.527   .     S
C495   H525    1.112   .     S
C496   H524    1.110   .     S
C496   H522    1.109   .     S
C496   H523    1.109   .     S
C497   H531    1.111   .     S
C497   H532    1.087   .     S
C497   C506    1.525   .     S
C497   C498    1.535   .     S
C498   H530    1.112   .     S
C498   H529    1.110   .     S
C498   H528    1.108   .     S
C499   C500    1.532   .     S
C499   H538    1.095   .     S
C499   H536    1.113   .     S
C499   C507    1.516   .     S
C500   H534    1.111   .     S
C500   H533    1.110   .     S
C500   H535    1.110   .     S
C501   H543    1.112   .     S
C501   C502    1.530   .     S
C501   H542    1.088   .     S
C501   C508    1.516   .     S
C502   H541    1.110   .     S
C502   H540    1.111   .     S
C502   H539    1.110   .     S
C503   C509    1.530   .     S
C503   H549    1.112   .     S
C503   H547    1.099   .     S
C503   C505    1.525   .     S
C504   C507    1.419   .     A
C504   H553    1.080   .     S
C505   H544    1.110   .     S
C505   H545    1.103   .     S
C505   H546    1.111   .     S
C506   N555    1.392   .     A
C507   N556    1.395   .     A
C508   N555    1.392   .     A
C508   C510    1.415   .     A
C509   N556    1.403   .     A
C510   H554    1.081   .     S
Cl511  C289    1.775   1_655 S
Cu513  O564    1.972   .     S
Cu513  N556    2.040   .     S
Cu513  O560    1.949   .     S
Cu513  O561    1.970   .     S
Cu513  Cu514   2.716   .     S
Cu513  O557    1.942   .     S
Cu514  O563    1.972   .     S
Cu514  O562    1.970   .     S
Cu514  O558    1.942   .     S
Cu514  O559    1.949   .     S
Cu514  N555    2.040   .     S
C565   O651    1.300   .     A
C565   O653    1.303   .     A
C565   C578    1.450   .     S
C566   H610    1.078   .     S
C566   C603    1.414   .     A
C566   C568    1.390   .     A
C567   C587    1.401   .     A
C567   C604    1.395   .     A
C568   C598    1.397   .     A
C568   C3      1.525   1_556 S
C569   C571    1.439   .     S
C569   O655    1.290   .     A
C569   O657    1.309   .     A
C570   O658    1.303   .     A
C570   C572    1.436   .     S
C570   O656    1.295   .     A
C571   C760    1.359   1_455 S
C571   Cl793   1.775   1_455 S
C572   C665    1.359   .     S
C572   Cl700   1.779   .     S
C573   H609    1.084   .     S
C573   C584    1.401   .     A
C573   C575    1.399   .     A
C574   H620    1.084   .     S
C574   C585    1.401   .     A
C574   C577    1.399   .     A
C575   C578    1.416   .     A
C575   C586    1.517   .     S
C576   O654    1.303   .     A
C576   O652    1.301   .     A
C576   C579    1.450   .     S
C577   C589    1.515   .     S
C577   C579    1.414   .     A
C578   C580    1.397   .     A
C579   C581    1.399   .     A
C580   H631    1.084   .     S
C580   C582    1.387   .     A
C581   C583    1.388   .     A
C581   H642    1.084   .     S
C582   C584    1.401   .     A
C582   H644    1.083   .     S
C583   C585    1.400   .     A
C583   H645    1.083   .     S
C584   C867    1.467   1_545 S
C585   C866    1.467   .     S
C586   H614    1.106   .     S
C586   C588    1.527   .     S
C586   H615    1.111   .     S
C587   H646    1.077   .     S
C587   C600    1.414   .     A
C588   H613    1.110   .     S
C588   H611    1.110   .     S
C588   H706    1.111   .     S
C589   H621    1.108   .     S
C589   C590    1.527   .     S
C589   H619    1.112   .     S
C590   H618    1.110   .     S
C590   H616    1.109   .     S
C590   H617    1.109   .     S
C591   H625    1.111   .     S
C591   H626    1.087   .     S
C591   C600    1.525   .     S
C591   C592    1.535   .     S
C592   H624    1.112   .     S
C592   H623    1.110   .     S
C592   H622    1.108   .     S
C593   C594    1.532   .     S
C593   H632    1.095   .     S
C593   H630    1.113   .     S
C593   C601    1.516   .     S
C594   H628    1.111   .     S
C594   H627    1.110   .     S
C594   H629    1.110   .     S
C595   H637    1.112   .     S
C595   C596    1.530   .     S
C595   H636    1.088   .     S
C595   C602    1.516   .     S
C596   H635    1.110   .     S
C596   H634    1.111   .     S
C596   H633    1.110   .     S
C597   C603    1.530   .     S
C597   H643    1.112   .     S
C597   H641    1.099   .     S
C597   C599    1.525   .     S
C598   C601    1.419   .     A
C598   H647    1.080   .     S
C599   H638    1.110   .     S
C599   H639    1.103   .     S
C599   H640    1.111   .     S
C600   N649    1.392   .     A
C601   N650    1.395   .     A
C602   N649    1.392   .     A
C602   C604    1.415   .     A
C603   N650    1.403   .     A
C604   H648    1.081   .     S
Cl605  C665    1.775   .     S
Cl606  C760    1.779   1_455 S
Cu607  O658    1.972   .     S
Cu607  N650    2.040   .     S
Cu607  O654    1.949   .     S
Cu607  O655    1.970   .     S
Cu607  Cu608   2.716   .     S
Cu607  O651    1.942   .     S
Cu608  O657    1.972   .     S
Cu608  O656    1.970   .     S
Cu608  O652    1.942   .     S
Cu608  O653    1.949   .     S
Cu608  N649    2.040   .     S
H612   C776    1.111   1_455 S
C659   O745    1.300   .     A
C659   O747    1.303   .     A
C659   C672    1.450   .     S
C660   H704    1.078   .     S
C660   C697    1.414   .     A
C660   C662    1.390   .     A
C661   C681    1.401   .     A
C661   C698    1.395   .     A
C662   C692    1.397   .     A
C662   C97     1.525   1_556 S
C663   C665    1.439   .     S
C663   O749    1.290   .     A
C663   O751    1.309   .     A
C664   O752    1.303   .     A
C664   C666    1.436   .     S
C664   O750    1.295   .     A
C666   C759    1.359   .     S
C666   Cl794   1.779   .     S
C667   H703    1.084   .     S
C667   C678    1.401   .     A
C667   C669    1.399   .     A
C668   H714    1.084   .     S
C668   C679    1.401   .     A
C668   C671    1.399   .     A
C669   C672    1.416   .     A
C669   C680    1.517   .     S
C670   O748    1.303   .     A
C670   O746    1.301   .     A
C670   C673    1.450   .     S
C671   C683    1.515   .     S
C671   C673    1.414   .     A
C672   C674    1.397   .     A
C673   C675    1.399   .     A
C674   H725    1.084   .     S
C674   C676    1.387   .     A
C675   C677    1.388   .     A
C675   H736    1.084   .     S
C676   C678    1.401   .     A
C676   H738    1.083   .     S
C677   C679    1.400   .     A
C677   H739    1.083   .     S
C678   C961    1.467   1_545 S
C679   C960    1.467   .     S
C680   H708    1.106   .     S
C680   C682    1.527   .     S
C680   H709    1.111   .     S
C681   H740    1.077   .     S
C681   C694    1.414   .     A
C682   H707    1.110   .     S
C682   H705    1.110   .     S
C682   H800    1.111   .     S
C683   H715    1.108   .     S
C683   C684    1.527   .     S
C683   H713    1.112   .     S
C684   H712    1.110   .     S
C684   H710    1.109   .     S
C684   H711    1.109   .     S
C685   H719    1.111   .     S
C685   H720    1.087   .     S
C685   C694    1.525   .     S
C685   C686    1.535   .     S
C686   H718    1.112   .     S
C686   H717    1.110   .     S
C686   H716    1.108   .     S
C687   C688    1.532   .     S
C687   H726    1.095   .     S
C687   H724    1.113   .     S
C687   C695    1.516   .     S
C688   H722    1.111   .     S
C688   H721    1.110   .     S
C688   H723    1.110   .     S
C689   H731    1.112   .     S
C689   C690    1.530   .     S
C689   H730    1.088   .     S
C689   C696    1.516   .     S
C690   H729    1.110   .     S
C690   H728    1.111   .     S
C690   H727    1.110   .     S
C691   C697    1.530   .     S
C691   H737    1.112   .     S
C691   H735    1.099   .     S
C691   C693    1.525   .     S
C692   C695    1.419   .     A
C692   H741    1.080   .     S
C693   H732    1.110   .     S
C693   H733    1.103   .     S
C693   H734    1.111   .     S
C694   N743    1.392   .     A
C695   N744    1.395   .     A
C696   N743    1.392   .     A
C696   C698    1.415   .     A
C697   N744    1.403   .     A
C698   H742    1.081   .     S
Cl699  C759    1.775   .     S
Cu701  O752    1.972   .     S
Cu701  N744    2.040   .     S
Cu701  O748    1.949   .     S
Cu701  O749    1.970   .     S
Cu701  Cu702   2.716   .     S
Cu701  O745    1.942   .     S
Cu702  O751    1.972   .     S
Cu702  O750    1.970   .     S
Cu702  O746    1.942   .     S
Cu702  O747    1.949   .     S
Cu702  N743    2.040   .     S
C753   O839    1.300   .     A
C753   O841    1.303   .     A
C753   C766    1.450   .     S
C754   H798    1.078   .     S
C754   C791    1.414   .     A
C754   C756    1.390   .     A
C755   C775    1.401   .     A
C755   C792    1.395   .     A
C756   C786    1.397   .     A
C756   C191    1.525   1_556 S
C757   C759    1.439   .     S
C757   O843    1.290   .     A
C757   O845    1.309   .     A
C758   O846    1.303   .     A
C758   C760    1.436   .     S
C758   O844    1.295   .     A
C760   C571    1.359   1_655 S
C760   Cl606   1.779   1_655 S
C761   H797    1.084   .     S
C761   C772    1.401   .     A
C761   C763    1.399   .     A
C762   H808    1.084   .     S
C762   C773    1.401   .     A
C762   C765    1.399   .     A
C763   C766    1.416   .     A
C763   C774    1.517   .     S
C764   O842    1.303   .     A
C764   O840    1.301   .     A
C764   C767    1.450   .     S
C765   C777    1.515   .     S
C765   C767    1.414   .     A
C766   C768    1.397   .     A
C767   C769    1.399   .     A
C768   H819    1.084   .     S
C768   C770    1.387   .     A
C769   C771    1.388   .     A
C769   H830    1.084   .     S
C770   C772    1.401   .     A
C770   H832    1.083   .     S
C771   C773    1.400   .     A
C771   H833    1.083   .     S
C772   C1055   1.467   1_545 S
C773   C1054   1.467   .     S
C774   H802    1.106   .     S
C774   C776    1.527   .     S
C774   H803    1.111   .     S
C775   H834    1.077   .     S
C775   C788    1.414   .     A
C776   H801    1.110   .     S
C776   H799    1.110   .     S
C776   H612    1.111   1_655 S
C777   H809    1.108   .     S
C777   C778    1.527   .     S
C777   H807    1.112   .     S
C778   H806    1.110   .     S
C778   H804    1.109   .     S
C778   H805    1.109   .     S
C779   H813    1.111   .     S
C779   H814    1.087   .     S
C779   C788    1.525   .     S
C779   C780    1.535   .     S
C780   H812    1.112   .     S
C780   H811    1.110   .     S
C780   H810    1.108   .     S
C781   C782    1.532   .     S
C781   H820    1.095   .     S
C781   H818    1.113   .     S
C781   C789    1.516   .     S
C782   H816    1.111   .     S
C782   H815    1.110   .     S
C782   H817    1.110   .     S
C783   H825    1.112   .     S
C783   C784    1.530   .     S
C783   H824    1.088   .     S
C783   C790    1.516   .     S
C784   H823    1.110   .     S
C784   H822    1.111   .     S
C784   H821    1.110   .     S
C785   C791    1.530   .     S
C785   H831    1.112   .     S
C785   H829    1.099   .     S
C785   C787    1.525   .     S
C786   C789    1.419   .     A
C786   H835    1.080   .     S
C787   H826    1.110   .     S
C787   H827    1.103   .     S
C787   H828    1.111   .     S
C788   N837    1.392   .     A
C789   N838    1.395   .     A
C790   N837    1.392   .     A
C790   C792    1.415   .     A
C791   N838    1.403   .     A
C792   H836    1.081   .     S
Cl793  C571    1.775   1_655 S
Cu795  O846    1.972   .     S
Cu795  N838    2.040   .     S
Cu795  O842    1.949   .     S
Cu795  O843    1.970   .     S
Cu795  Cu796   2.716   .     S
Cu795  O839    1.942   .     S
Cu796  O845    1.972   .     S
Cu796  O844    1.970   .     S
Cu796  O840    1.942   .     S
Cu796  O841    1.949   .     S
Cu796  N837    2.040   .     S
C847   O933    1.300   .     A
C847   O935    1.303   .     A
C847   C860    1.450   .     S
C848   H892    1.078   .     S
C848   C885    1.414   .     A
C848   C850    1.390   .     A
C849   C869    1.401   .     A
C849   C886    1.395   .     A
C850   C880    1.397   .     A
C850   C285    1.525   1_556 S
C851   C853    1.439   .     S
C851   O937    1.290   .     A
C851   O939    1.309   .     A
C852   O940    1.303   .     A
C852   C854    1.436   .     S
C852   O938    1.295   .     A
C853   C1042   1.359   1_455 S
C853   Cl1075  1.775   1_455 S
C854   C947    1.359   .     S
C854   Cl982   1.779   .     S
C855   H891    1.084   .     S
C855   C866    1.401   .     A
C855   C857    1.399   .     A
C856   H902    1.084   .     S
C856   C867    1.401   .     A
C856   C859    1.399   .     A
C857   C860    1.416   .     A
C857   C868    1.517   .     S
C858   O936    1.303   .     A
C858   O934    1.301   .     A
C858   C861    1.450   .     S
C859   C871    1.515   .     S
C859   C861    1.414   .     A
C860   C862    1.397   .     A
C861   C863    1.399   .     A
C862   H913    1.084   .     S
C862   C864    1.387   .     A
C863   C865    1.388   .     A
C863   H924    1.084   .     S
C864   C866    1.401   .     A
C864   H926    1.083   .     S
C865   C867    1.400   .     A
C865   H927    1.083   .     S
C867   C584    1.467   1_565 S
C868   H896    1.106   .     S
C868   C870    1.527   .     S
C868   H897    1.111   .     S
C869   H928    1.077   .     S
C869   C882    1.414   .     A
C870   H895    1.110   .     S
C870   H893    1.110   .     S
C870   H988    1.111   .     S
C871   H903    1.108   .     S
C871   C872    1.527   .     S
C871   H901    1.112   .     S
C872   H900    1.110   .     S
C872   H898    1.109   .     S
C872   H899    1.109   .     S
C873   H907    1.111   .     S
C873   H908    1.087   .     S
C873   C882    1.525   .     S
C873   C874    1.535   .     S
C874   H906    1.112   .     S
C874   H905    1.110   .     S
C874   H904    1.108   .     S
C875   C876    1.532   .     S
C875   H914    1.095   .     S
C875   H912    1.113   .     S
C875   C883    1.516   .     S
C876   H910    1.111   .     S
C876   H909    1.110   .     S
C876   H911    1.110   .     S
C877   H919    1.112   .     S
C877   C878    1.530   .     S
C877   H918    1.088   .     S
C877   C884    1.516   .     S
C878   H917    1.110   .     S
C878   H916    1.111   .     S
C878   H915    1.110   .     S
C879   C885    1.530   .     S
C879   H925    1.112   .     S
C879   H923    1.099   .     S
C879   C881    1.525   .     S
C880   C883    1.419   .     A
C880   H929    1.080   .     S
C881   H920    1.110   .     S
C881   H921    1.103   .     S
C881   H922    1.111   .     S
C882   N931    1.392   .     A
C883   N932    1.395   .     A
C884   N931    1.392   .     A
C884   C886    1.415   .     A
C885   N932    1.403   .     A
C886   H930    1.081   .     S
Cl887  C947    1.775   .     S
Cl888  C1042   1.779   1_455 S
Cu889  O940    1.972   .     S
Cu889  N932    2.040   .     S
Cu889  O936    1.949   .     S
Cu889  O937    1.970   .     S
Cu889  Cu890   2.716   .     S
Cu889  O933    1.942   .     S
Cu890  O939    1.972   .     S
Cu890  O938    1.970   .     S
Cu890  O934    1.942   .     S
Cu890  O935    1.949   .     S
Cu890  N931    2.040   .     S
H894   C1058   1.111   1_455 S
C941   O1027   1.300   .     A
C941   O1029   1.303   .     A
C941   C954    1.450   .     S
C942   H986    1.078   .     S
C942   C979    1.414   .     A
C942   C944    1.390   .     A
C943   C963    1.401   .     A
C943   C980    1.395   .     A
C944   C974    1.397   .     A
C944   C379    1.525   1_556 S
C945   C947    1.439   .     S
C945   O1031   1.290   .     A
C945   O1033   1.309   .     A
C946   O1034   1.303   .     A
C946   C948    1.436   .     S
C946   O1032   1.295   .     A
C948   C1041   1.359   .     S
C948   Cl1076  1.779   .     S
C949   H985    1.084   .     S
C949   C960    1.401   .     A
C949   C951    1.399   .     A
C950   H996    1.084   .     S
C950   C961    1.401   .     A
C950   C953    1.399   .     A
C951   C954    1.416   .     A
C951   C962    1.517   .     S
C952   O1030   1.303   .     A
C952   O1028   1.301   .     A
C952   C955    1.450   .     S
C953   C965    1.515   .     S
C953   C955    1.414   .     A
C954   C956    1.397   .     A
C955   C957    1.399   .     A
C956   H1007   1.084   .     S
C956   C958    1.387   .     A
C957   C959    1.388   .     A
C957   H1018   1.084   .     S
C958   C960    1.401   .     A
C958   H1020   1.083   .     S
C959   C961    1.400   .     A
C959   H1021   1.083   .     S
C961   C678    1.467   1_565 S
C962   H990    1.106   .     S
C962   C964    1.527   .     S
C962   H991    1.111   .     S
C963   H1022   1.077   .     S
C963   C976    1.414   .     A
C964   H989    1.110   .     S
C964   H987    1.110   .     S
C964   H1082   1.111   .     S
C965   H997    1.108   .     S
C965   C966    1.527   .     S
C965   H995    1.112   .     S
C966   H994    1.110   .     S
C966   H992    1.109   .     S
C966   H993    1.109   .     S
C967   H1001   1.111   .     S
C967   H1002   1.087   .     S
C967   C976    1.525   .     S
C967   C968    1.535   .     S
C968   H1000   1.112   .     S
C968   H999    1.110   .     S
C968   H998    1.108   .     S
C969   C970    1.532   .     S
C969   H1008   1.095   .     S
C969   H1006   1.113   .     S
C969   C977    1.516   .     S
C970   H1004   1.111   .     S
C970   H1003   1.110   .     S
C970   H1005   1.110   .     S
C971   H1013   1.112   .     S
C971   C972    1.530   .     S
C971   H1012   1.088   .     S
C971   C978    1.516   .     S
C972   H1011   1.110   .     S
C972   H1010   1.111   .     S
C972   H1009   1.110   .     S
C973   C979    1.530   .     S
C973   H1019   1.112   .     S
C973   H1017   1.099   .     S
C973   C975    1.525   .     S
C974   C977    1.419   .     A
C974   H1023   1.080   .     S
C975   H1014   1.110   .     S
C975   H1015   1.103   .     S
C975   H1016   1.111   .     S
C976   N1025   1.392   .     A
C977   N1026   1.395   .     A
C978   N1025   1.392   .     A
C978   C980    1.415   .     A
C979   N1026   1.403   .     A
C980   H1024   1.081   .     S
Cl981  C1041   1.775   .     S
Cu983  O1034   1.972   .     S
Cu983  N1026   2.040   .     S
Cu983  O1030   1.949   .     S
Cu983  O1031   1.970   .     S
Cu983  Cu984   2.716   .     S
Cu983  O1027   1.942   .     S
Cu984  O1033   1.972   .     S
Cu984  O1032   1.970   .     S
Cu984  O1028   1.942   .     S
Cu984  O1029   1.949   .     S
Cu984  N1025   2.040   .     S
C1035  O1121   1.300   .     A
C1035  O1123   1.303   .     A
C1035  C1048   1.450   .     S
C1036  H1080   1.078   .     S
C1036  C1073   1.414   .     A
C1036  C1038   1.390   .     A
C1037  C1057   1.401   .     A
C1037  C1074   1.395   .     A
C1038  C1068   1.397   .     A
C1038  C473    1.525   1_556 S
C1039  C1041   1.439   .     S
C1039  O1125   1.290   .     A
C1039  O1127   1.309   .     A
C1040  O1128   1.303   .     A
C1040  C1042   1.436   .     S
C1040  O1126   1.295   .     A
C1042  C853    1.359   1_655 S
C1042  Cl888   1.779   1_655 S
C1043  H1079   1.084   .     S
C1043  C1054   1.401   .     A
C1043  C1045   1.399   .     A
C1044  H1090   1.084   .     S
C1044  C1055   1.401   .     A
C1044  C1047   1.399   .     A
C1045  C1048   1.416   .     A
C1045  C1056   1.517   .     S
C1046  O1124   1.303   .     A
C1046  O1122   1.301   .     A
C1046  C1049   1.450   .     S
C1047  C1059   1.515   .     S
C1047  C1049   1.414   .     A
C1048  C1050   1.397   .     A
C1049  C1051   1.399   .     A
C1050  H1101   1.084   .     S
C1050  C1052   1.387   .     A
C1051  C1053   1.388   .     A
C1051  H1112   1.084   .     S
C1052  C1054   1.401   .     A
C1052  H1114   1.083   .     S
C1053  C1055   1.400   .     A
C1053  H1115   1.083   .     S
C1055  C772    1.467   1_565 S
C1056  H1084   1.106   .     S
C1056  C1058   1.527   .     S
C1056  H1085   1.111   .     S
C1057  H1116   1.077   .     S
C1057  C1070   1.414   .     A
C1058  H1083   1.110   .     S
C1058  H1081   1.110   .     S
C1058  H894    1.111   1_655 S
C1059  H1091   1.108   .     S
C1059  C1060   1.527   .     S
C1059  H1089   1.112   .     S
C1060  H1088   1.110   .     S
C1060  H1086   1.109   .     S
C1060  H1087   1.109   .     S
C1061  H1095   1.111   .     S
C1061  H1096   1.087   .     S
C1061  C1070   1.525   .     S
C1061  C1062   1.535   .     S
C1062  H1094   1.112   .     S
C1062  H1093   1.110   .     S
C1062  H1092   1.108   .     S
C1063  C1064   1.532   .     S
C1063  H1102   1.095   .     S
C1063  H1100   1.113   .     S
C1063  C1071   1.516   .     S
C1064  H1098   1.111   .     S
C1064  H1097   1.110   .     S
C1064  H1099   1.110   .     S
C1065  H1107   1.112   .     S
C1065  C1066   1.530   .     S
C1065  H1106   1.088   .     S
C1065  C1072   1.516   .     S
C1066  H1105   1.110   .     S
C1066  H1104   1.111   .     S
C1066  H1103   1.110   .     S
C1067  C1073   1.530   .     S
C1067  H1113   1.112   .     S
C1067  H1111   1.099   .     S
C1067  C1069   1.525   .     S
C1068  C1071   1.419   .     A
C1068  H1117   1.080   .     S
C1069  H1108   1.110   .     S
C1069  H1109   1.103   .     S
C1069  H1110   1.111   .     S
C1070  N1119   1.392   .     A
C1071  N1120   1.395   .     A
C1072  N1119   1.392   .     A
C1072  C1074   1.415   .     A
C1073  N1120   1.403   .     A
C1074  H1118   1.081   .     S
Cl1075 C853    1.775   1_655 S
Cu1077 O1128   1.972   .     S
Cu1077 N1120   2.040   .     S
Cu1077 O1124   1.949   .     S
Cu1077 O1125   1.970   .     S
Cu1077 Cu1078  2.716   .     S
Cu1077 O1121   1.942   .     S
Cu1078 O1127   1.972   .     S
Cu1078 O1126   1.970   .     S
Cu1078 O1122   1.942   .     S
Cu1078 O1123   1.949   .     S
Cu1078 N1119   2.040   .     S
