data_str_m3_o10_o16_pcu_sym.101
_audit_creation_date              2020-01-03
_audit_creation_method            'Materials Studio'
_symmetry_space_group_name_H-M    'P1'
_symmetry_Int_Tables_number       1
_symmetry_cell_setting            triclinic
loop_
_symmetry_equiv_pos_as_xyz
  x,y,z
_cell_length_a                    23.6497
_cell_length_b                    25.6813
_cell_length_c                    35.9687
_cell_angle_alpha                 93.3075
_cell_angle_beta                  101.4177
_cell_angle_gamma                 93.8708
loop_
_atom_site_label
_atom_site_type_symbol
_atom_site_fract_x
_atom_site_fract_y
_atom_site_fract_z
_atom_site_U_iso_or_equiv
_atom_site_adp_type
_atom_site_occupancy
C1     C     0.01478   0.26482   0.16589   0.00000  Uiso   1.00
C2     C     0.05328   0.16653   0.27798   0.00000  Uiso   1.00
C3     C     0.02255   0.31938   0.16560   0.00000  Uiso   1.00
C4     C     0.03541   0.16807   0.23694   0.00000  Uiso   1.00
C5     C     0.31107   0.01401   0.16840   0.00000  Uiso   1.00
C6     C     0.31865   0.06853   0.16765   0.00000  Uiso   1.00
C7     C     0.29751   0.16251   0.09643   0.00000  Uiso   1.00
C8     C     0.26731   0.08912   0.00194   0.00000  Uiso   1.00
C9     C     0.27721   0.15153   0.05591   0.00000  Uiso   1.00
C10    C     0.02506   0.19516   0.30223   0.00000  Uiso   1.00
C11    C     0.04785   0.20077   0.00777   0.00000  Uiso   1.00
C12    C     0.13185   0.15671   0.33047   0.00000  Uiso   1.00
C13    C     0.10099   0.18159   0.02196   0.00000  Uiso   1.00
C14    C     0.18035   0.21924   0.20457   0.00000  Uiso   1.00
C15    C     0.19310   0.03756   0.26299   0.00000  Uiso   1.00
C16    C     0.22435   0.23302   0.04853   0.00000  Uiso   1.00
C17    C     0.22007   0.26518   0.01376   0.00000  Uiso   1.00
C18    C     0.10317   0.14178   0.29317   0.00000  Uiso   1.00
C19    C     0.18981   0.14513   0.00840   0.00000  Uiso   1.00
C20    C     0.21145   0.10439   0.32100   0.00000  Uiso   1.00
C21    C     0.17692   0.08160   0.28637   0.00000  Uiso   1.00
C22    C     0.12461   0.10238   0.27218   0.00000  Uiso   1.00
C23    C     0.22824   0.17469   0.03844   0.00000  Uiso   1.00
C24    C     0.29799   0.11005   0.03717   0.00000  Uiso   1.00
H25    H     0.00400   0.09325   0.05011   0.00000  Uiso   1.00
H26    H     0.13900   0.23127   0.20737   0.00000  Uiso   1.00
H27    H     0.17707   0.03419   0.23243   0.00000  Uiso   1.00
H28    H     0.22294   0.30748   0.02294   0.00000  Uiso   1.00
H29    H     0.25617   0.25797   0.33236   0.00000  Uiso   1.00
H30    H     0.17830   0.25545   0.32685   0.00000  Uiso   1.00
H31    H     0.18886   0.24061   0.06343   0.00000  Uiso   1.00
H32    H     0.26421   0.24944   0.06880   0.00000  Uiso   1.00
H33    H     0.26879   0.33040   0.17111   0.00000  Uiso   1.00
H34    H     0.15590   0.12532   0.13780   0.00000  Uiso   1.00
H35    H     0.28705   0.05976   0.32067   0.00000  Uiso   1.00
H36    H     0.31930   0.21357   0.29109   0.00000  Uiso   1.00
H37    H     0.11667   0.18461   0.05237   0.00000  Uiso   1.00
H38    H     0.02525   0.22125   0.02678   0.00000  Uiso   1.00
H39    H     0.09889   0.08529   0.24539   0.00000  Uiso   1.00
H40    H     0.06487   0.00301   0.16298   0.00000  Uiso   1.00
N41    N     0.14493   0.15223   0.15695   0.00000  Uiso   1.00
N42    N     0.18840   0.18110   0.17638   0.00000  Uiso   1.00
O43    O     0.29769   0.24629   0.16905   0.00000  Uiso   1.00
O44    O     0.22106   0.00304   0.27736   0.00000  Uiso   1.00
O45    O     0.05742   0.23704   0.16282   0.00000  Uiso   1.00
O46    O     0.31490   0.17358   0.22253   0.00000  Uiso   1.00
O47    O     0.07463   0.16433   0.21631   0.00000  Uiso   1.00
O48    O     0.27592   0.09629   0.17051   0.00000  Uiso   1.00
O49    O     0.03565   0.08704   0.16428   0.00000  Uiso   1.00
O50    O     0.25870   0.16901   0.11703   0.00000  Uiso   1.00
O51    O     0.01843   0.15976   0.11080   0.00000  Uiso   1.00
O52    O     0.22257   0.24063   0.22651   0.00000  Uiso   1.00
Zn53   Zn    0.27119   0.17284   0.17082   0.00000  Uiso   1.00
Zn54   Zn    0.06214   0.16049   0.16251   0.00000  Uiso   1.00
C55    C     0.34811   0.26482   0.16589   0.00000  Uiso   1.00
C56    C     0.38662   0.16653   0.27798   0.00000  Uiso   1.00
C57    C     0.35588   0.31938   0.16560   0.00000  Uiso   1.00
C58    C     0.36874   0.16807   0.23694   0.00000  Uiso   1.00
C59    C     0.64441   0.01401   0.16840   0.00000  Uiso   1.00
C60    C     0.65198   0.06853   0.16765   0.00000  Uiso   1.00
C61    C     0.63084   0.16251   0.09643   0.00000  Uiso   1.00
C62    C     0.60064   0.08912   0.00194   0.00000  Uiso   1.00
C63    C     0.61055   0.15153   0.05591   0.00000  Uiso   1.00
C64    C     0.35839   0.19516   0.30223   0.00000  Uiso   1.00
C65    C     0.38119   0.20077   0.00777   0.00000  Uiso   1.00
C66    C     0.46518   0.15671   0.33047   0.00000  Uiso   1.00
C67    C     0.43432   0.18159   0.02196   0.00000  Uiso   1.00
C68    C     0.51369   0.21924   0.20457   0.00000  Uiso   1.00
C69    C     0.52644   0.03756   0.26299   0.00000  Uiso   1.00
C70    C     0.55768   0.23302   0.04853   0.00000  Uiso   1.00
C71    C     0.55340   0.26518   0.01376   0.00000  Uiso   1.00
C72    C     0.43650   0.14178   0.29317   0.00000  Uiso   1.00
C73    C     0.52314   0.14513   0.00840   0.00000  Uiso   1.00
C74    C     0.54479   0.10439   0.32100   0.00000  Uiso   1.00
C75    C     0.51026   0.08160   0.28637   0.00000  Uiso   1.00
C76    C     0.45794   0.10238   0.27218   0.00000  Uiso   1.00
C77    C     0.56158   0.17469   0.03844   0.00000  Uiso   1.00
C78    C     0.63132   0.11005   0.03717   0.00000  Uiso   1.00
H79    H     0.33733   0.09325   0.05011   0.00000  Uiso   1.00
H80    H     0.47234   0.23127   0.20737   0.00000  Uiso   1.00
H81    H     0.51040   0.03419   0.23243   0.00000  Uiso   1.00
H82    H     0.55628   0.30748   0.02294   0.00000  Uiso   1.00
H83    H     0.58950   0.25797   0.33236   0.00000  Uiso   1.00
H84    H     0.51163   0.25545   0.32685   0.00000  Uiso   1.00
H85    H     0.52219   0.24061   0.06343   0.00000  Uiso   1.00
H86    H     0.59754   0.24944   0.06880   0.00000  Uiso   1.00
H87    H     0.60212   0.33040   0.17111   0.00000  Uiso   1.00
H88    H     0.48923   0.12532   0.13780   0.00000  Uiso   1.00
H89    H     0.62039   0.05976   0.32067   0.00000  Uiso   1.00
H90    H     0.65263   0.21357   0.29109   0.00000  Uiso   1.00
H91    H     0.45000   0.18461   0.05237   0.00000  Uiso   1.00
H92    H     0.35859   0.22125   0.02678   0.00000  Uiso   1.00
H93    H     0.43223   0.08529   0.24539   0.00000  Uiso   1.00
H94    H     0.39820   0.00301   0.16298   0.00000  Uiso   1.00
N95    N     0.47827   0.15223   0.15695   0.00000  Uiso   1.00
N96    N     0.52173   0.18110   0.17638   0.00000  Uiso   1.00
O97    O     0.63102   0.24629   0.16905   0.00000  Uiso   1.00
O98    O     0.55439   0.00304   0.27736   0.00000  Uiso   1.00
O99    O     0.39075   0.23704   0.16282   0.00000  Uiso   1.00
O100   O     0.64823   0.17358   0.22253   0.00000  Uiso   1.00
O101   O     0.40796   0.16433   0.21631   0.00000  Uiso   1.00
O102   O     0.60925   0.09629   0.17051   0.00000  Uiso   1.00
O103   O     0.36898   0.08704   0.16428   0.00000  Uiso   1.00
O104   O     0.59204   0.16901   0.11703   0.00000  Uiso   1.00
O105   O     0.35177   0.15976   0.11080   0.00000  Uiso   1.00
O106   O     0.55590   0.24063   0.22651   0.00000  Uiso   1.00
Zn107  Zn    0.60453   0.17284   0.17082   0.00000  Uiso   1.00
Zn108  Zn    0.39547   0.16049   0.16251   0.00000  Uiso   1.00
C109   C     0.68145   0.26482   0.16589   0.00000  Uiso   1.00
C110   C     0.71995   0.16653   0.27798   0.00000  Uiso   1.00
C111   C     0.68922   0.31938   0.16560   0.00000  Uiso   1.00
C112   C     0.70208   0.16807   0.23694   0.00000  Uiso   1.00
C113   C     0.97774   0.01401   0.16840   0.00000  Uiso   1.00
C114   C     0.98531   0.06853   0.16765   0.00000  Uiso   1.00
C115   C     0.96417   0.16251   0.09643   0.00000  Uiso   1.00
C116   C     0.93397   0.08912   0.00194   0.00000  Uiso   1.00
C117   C     0.94388   0.15153   0.05591   0.00000  Uiso   1.00
C118   C     0.69172   0.19516   0.30223   0.00000  Uiso   1.00
C119   C     0.71452   0.20077   0.00777   0.00000  Uiso   1.00
C120   C     0.79851   0.15671   0.33047   0.00000  Uiso   1.00
C121   C     0.76766   0.18159   0.02196   0.00000  Uiso   1.00
C122   C     0.84702   0.21924   0.20457   0.00000  Uiso   1.00
C123   C     0.85977   0.03756   0.26299   0.00000  Uiso   1.00
C124   C     0.89102   0.23302   0.04853   0.00000  Uiso   1.00
C125   C     0.88674   0.26518   0.01376   0.00000  Uiso   1.00
C126   C     0.76984   0.14178   0.29317   0.00000  Uiso   1.00
C127   C     0.85647   0.14513   0.00840   0.00000  Uiso   1.00
C128   C     0.87812   0.10439   0.32100   0.00000  Uiso   1.00
C129   C     0.84359   0.08160   0.28637   0.00000  Uiso   1.00
C130   C     0.79128   0.10238   0.27218   0.00000  Uiso   1.00
C131   C     0.89491   0.17469   0.03844   0.00000  Uiso   1.00
C132   C     0.96466   0.11005   0.03717   0.00000  Uiso   1.00
H133   H     0.67066   0.09325   0.05011   0.00000  Uiso   1.00
H134   H     0.80567   0.23127   0.20737   0.00000  Uiso   1.00
H135   H     0.84373   0.03419   0.23243   0.00000  Uiso   1.00
H136   H     0.88961   0.30748   0.02294   0.00000  Uiso   1.00
H137   H     0.92283   0.25797   0.33236   0.00000  Uiso   1.00
H138   H     0.84497   0.25545   0.32685   0.00000  Uiso   1.00
H139   H     0.85553   0.24061   0.06343   0.00000  Uiso   1.00
H140   H     0.93087   0.24944   0.06880   0.00000  Uiso   1.00
H141   H     0.93546   0.33040   0.17111   0.00000  Uiso   1.00
H142   H     0.82256   0.12532   0.13780   0.00000  Uiso   1.00
H143   H     0.95372   0.05976   0.32067   0.00000  Uiso   1.00
H144   H     0.98597   0.21357   0.29109   0.00000  Uiso   1.00
H145   H     0.78334   0.18461   0.05237   0.00000  Uiso   1.00
H146   H     0.69192   0.22125   0.02678   0.00000  Uiso   1.00
H147   H     0.76556   0.08529   0.24539   0.00000  Uiso   1.00
H148   H     0.73154   0.00301   0.16298   0.00000  Uiso   1.00
N149   N     0.81160   0.15223   0.15695   0.00000  Uiso   1.00
N150   N     0.85507   0.18110   0.17638   0.00000  Uiso   1.00
O151   O     0.96435   0.24629   0.16905   0.00000  Uiso   1.00
O152   O     0.88772   0.00304   0.27736   0.00000  Uiso   1.00
O153   O     0.72408   0.23704   0.16282   0.00000  Uiso   1.00
O154   O     0.98157   0.17358   0.22253   0.00000  Uiso   1.00
O155   O     0.74130   0.16433   0.21631   0.00000  Uiso   1.00
O156   O     0.94258   0.09629   0.17051   0.00000  Uiso   1.00
O157   O     0.70231   0.08704   0.16428   0.00000  Uiso   1.00
O158   O     0.92537   0.16901   0.11703   0.00000  Uiso   1.00
O159   O     0.68510   0.15976   0.11080   0.00000  Uiso   1.00
O160   O     0.88924   0.24063   0.22651   0.00000  Uiso   1.00
Zn161  Zn    0.93786   0.17284   0.17082   0.00000  Uiso   1.00
Zn162  Zn    0.72881   0.16049   0.16251   0.00000  Uiso   1.00
C163   C     0.01478   0.59815   0.16589   0.00000  Uiso   1.00
C164   C     0.05328   0.49986   0.27798   0.00000  Uiso   1.00
C165   C     0.02255   0.65272   0.16560   0.00000  Uiso   1.00
C166   C     0.03541   0.50140   0.23694   0.00000  Uiso   1.00
C167   C     0.31107   0.34735   0.16840   0.00000  Uiso   1.00
C168   C     0.31865   0.40187   0.16765   0.00000  Uiso   1.00
C169   C     0.29751   0.49585   0.09643   0.00000  Uiso   1.00
C170   C     0.26731   0.42246   0.00194   0.00000  Uiso   1.00
C171   C     0.27721   0.48486   0.05591   0.00000  Uiso   1.00
C172   C     0.02506   0.52850   0.30223   0.00000  Uiso   1.00
C173   C     0.04785   0.53410   0.00777   0.00000  Uiso   1.00
C174   C     0.13185   0.49005   0.33047   0.00000  Uiso   1.00
C175   C     0.10099   0.51492   0.02196   0.00000  Uiso   1.00
C176   C     0.18035   0.55257   0.20457   0.00000  Uiso   1.00
C177   C     0.19310   0.37089   0.26299   0.00000  Uiso   1.00
C178   C     0.22435   0.56635   0.04853   0.00000  Uiso   1.00
C179   C     0.22007   0.59851   0.01376   0.00000  Uiso   1.00
C180   C     0.10317   0.47512   0.29317   0.00000  Uiso   1.00
C181   C     0.18981   0.47847   0.00840   0.00000  Uiso   1.00
C182   C     0.21145   0.43772   0.32100   0.00000  Uiso   1.00
C183   C     0.17692   0.41493   0.28637   0.00000  Uiso   1.00
C184   C     0.12461   0.43571   0.27218   0.00000  Uiso   1.00
C185   C     0.22824   0.50802   0.03844   0.00000  Uiso   1.00
C186   C     0.29799   0.44338   0.03717   0.00000  Uiso   1.00
H187   H     0.00400   0.42658   0.05011   0.00000  Uiso   1.00
H188   H     0.13900   0.56460   0.20737   0.00000  Uiso   1.00
H189   H     0.17707   0.36752   0.23243   0.00000  Uiso   1.00
H190   H     0.22294   0.64082   0.02294   0.00000  Uiso   1.00
H191   H     0.25617   0.59130   0.33236   0.00000  Uiso   1.00
H192   H     0.17830   0.58878   0.32685   0.00000  Uiso   1.00
H193   H     0.18886   0.57395   0.06343   0.00000  Uiso   1.00
H194   H     0.26421   0.58277   0.06880   0.00000  Uiso   1.00
H195   H     0.26879   0.66373   0.17111   0.00000  Uiso   1.00
H196   H     0.15590   0.45865   0.13780   0.00000  Uiso   1.00
H197   H     0.28705   0.39309   0.32067   0.00000  Uiso   1.00
H198   H     0.31930   0.54690   0.29109   0.00000  Uiso   1.00
H199   H     0.11667   0.51794   0.05237   0.00000  Uiso   1.00
H200   H     0.02525   0.55459   0.02678   0.00000  Uiso   1.00
H201   H     0.09889   0.41863   0.24539   0.00000  Uiso   1.00
H202   H     0.06487   0.33634   0.16298   0.00000  Uiso   1.00
N203   N     0.14493   0.48556   0.15695   0.00000  Uiso   1.00
N204   N     0.18840   0.51444   0.17638   0.00000  Uiso   1.00
O205   O     0.29769   0.57963   0.16905   0.00000  Uiso   1.00
O206   O     0.22106   0.33637   0.27736   0.00000  Uiso   1.00
O207   O     0.05742   0.57038   0.16282   0.00000  Uiso   1.00
O208   O     0.31490   0.50691   0.22253   0.00000  Uiso   1.00
O209   O     0.07463   0.49766   0.21631   0.00000  Uiso   1.00
O210   O     0.27592   0.42962   0.17051   0.00000  Uiso   1.00
O211   O     0.03565   0.42037   0.16428   0.00000  Uiso   1.00
O212   O     0.25870   0.50234   0.11703   0.00000  Uiso   1.00
O213   O     0.01843   0.49309   0.11080   0.00000  Uiso   1.00
O214   O     0.22257   0.57397   0.22651   0.00000  Uiso   1.00
Zn215  Zn    0.27119   0.50618   0.17082   0.00000  Uiso   1.00
Zn216  Zn    0.06214   0.49382   0.16251   0.00000  Uiso   1.00
C217   C     0.34811   0.59815   0.16589   0.00000  Uiso   1.00
C218   C     0.38662   0.49986   0.27798   0.00000  Uiso   1.00
C219   C     0.35588   0.65272   0.16560   0.00000  Uiso   1.00
C220   C     0.36874   0.50140   0.23694   0.00000  Uiso   1.00
C221   C     0.64441   0.34735   0.16840   0.00000  Uiso   1.00
C222   C     0.65198   0.40187   0.16765   0.00000  Uiso   1.00
C223   C     0.63084   0.49585   0.09643   0.00000  Uiso   1.00
C224   C     0.60064   0.42246   0.00194   0.00000  Uiso   1.00
C225   C     0.61055   0.48486   0.05591   0.00000  Uiso   1.00
C226   C     0.35839   0.52850   0.30223   0.00000  Uiso   1.00
C227   C     0.38119   0.53410   0.00777   0.00000  Uiso   1.00
C228   C     0.46518   0.49005   0.33047   0.00000  Uiso   1.00
C229   C     0.43432   0.51492   0.02196   0.00000  Uiso   1.00
C230   C     0.51369   0.55257   0.20457   0.00000  Uiso   1.00
C231   C     0.52644   0.37089   0.26299   0.00000  Uiso   1.00
C232   C     0.55768   0.56635   0.04853   0.00000  Uiso   1.00
C233   C     0.55340   0.59851   0.01376   0.00000  Uiso   1.00
C234   C     0.43650   0.47512   0.29317   0.00000  Uiso   1.00
C235   C     0.52314   0.47847   0.00840   0.00000  Uiso   1.00
C236   C     0.54479   0.43772   0.32100   0.00000  Uiso   1.00
C237   C     0.51026   0.41493   0.28637   0.00000  Uiso   1.00
C238   C     0.45794   0.43571   0.27218   0.00000  Uiso   1.00
C239   C     0.56158   0.50802   0.03844   0.00000  Uiso   1.00
C240   C     0.63132   0.44338   0.03717   0.00000  Uiso   1.00
H241   H     0.33733   0.42658   0.05011   0.00000  Uiso   1.00
H242   H     0.47234   0.56460   0.20737   0.00000  Uiso   1.00
H243   H     0.51040   0.36752   0.23243   0.00000  Uiso   1.00
H244   H     0.55628   0.64082   0.02294   0.00000  Uiso   1.00
H245   H     0.58950   0.59130   0.33236   0.00000  Uiso   1.00
H246   H     0.51163   0.58878   0.32685   0.00000  Uiso   1.00
H247   H     0.52219   0.57395   0.06343   0.00000  Uiso   1.00
H248   H     0.59754   0.58277   0.06880   0.00000  Uiso   1.00
H249   H     0.60212   0.66373   0.17111   0.00000  Uiso   1.00
H250   H     0.48923   0.45865   0.13780   0.00000  Uiso   1.00
H251   H     0.62039   0.39309   0.32067   0.00000  Uiso   1.00
H252   H     0.65263   0.54690   0.29109   0.00000  Uiso   1.00
H253   H     0.45000   0.51794   0.05237   0.00000  Uiso   1.00
H254   H     0.35859   0.55459   0.02678   0.00000  Uiso   1.00
H255   H     0.43223   0.41863   0.24539   0.00000  Uiso   1.00
H256   H     0.39820   0.33634   0.16298   0.00000  Uiso   1.00
N257   N     0.47827   0.48556   0.15695   0.00000  Uiso   1.00
N258   N     0.52173   0.51444   0.17638   0.00000  Uiso   1.00
O259   O     0.63102   0.57963   0.16905   0.00000  Uiso   1.00
O260   O     0.55439   0.33637   0.27736   0.00000  Uiso   1.00
O261   O     0.39075   0.57038   0.16282   0.00000  Uiso   1.00
O262   O     0.64823   0.50691   0.22253   0.00000  Uiso   1.00
O263   O     0.40796   0.49766   0.21631   0.00000  Uiso   1.00
O264   O     0.60925   0.42962   0.17051   0.00000  Uiso   1.00
O265   O     0.36898   0.42037   0.16428   0.00000  Uiso   1.00
O266   O     0.59204   0.50234   0.11703   0.00000  Uiso   1.00
O267   O     0.35177   0.49309   0.11080   0.00000  Uiso   1.00
O268   O     0.55590   0.57397   0.22651   0.00000  Uiso   1.00
Zn269  Zn    0.60453   0.50618   0.17082   0.00000  Uiso   1.00
Zn270  Zn    0.39547   0.49382   0.16251   0.00000  Uiso   1.00
C271   C     0.68145   0.59815   0.16589   0.00000  Uiso   1.00
C272   C     0.71995   0.49986   0.27798   0.00000  Uiso   1.00
C273   C     0.68922   0.65272   0.16560   0.00000  Uiso   1.00
C274   C     0.70208   0.50140   0.23694   0.00000  Uiso   1.00
C275   C     0.97774   0.34735   0.16840   0.00000  Uiso   1.00
C276   C     0.98531   0.40187   0.16765   0.00000  Uiso   1.00
C277   C     0.96417   0.49585   0.09643   0.00000  Uiso   1.00
C278   C     0.93397   0.42246   0.00194   0.00000  Uiso   1.00
C279   C     0.94388   0.48486   0.05591   0.00000  Uiso   1.00
C280   C     0.69172   0.52850   0.30223   0.00000  Uiso   1.00
C281   C     0.71452   0.53410   0.00777   0.00000  Uiso   1.00
C282   C     0.79851   0.49005   0.33047   0.00000  Uiso   1.00
C283   C     0.76766   0.51492   0.02196   0.00000  Uiso   1.00
C284   C     0.84702   0.55257   0.20457   0.00000  Uiso   1.00
C285   C     0.85977   0.37089   0.26299   0.00000  Uiso   1.00
C286   C     0.89102   0.56635   0.04853   0.00000  Uiso   1.00
C287   C     0.88674   0.59851   0.01376   0.00000  Uiso   1.00
C288   C     0.76984   0.47512   0.29317   0.00000  Uiso   1.00
C289   C     0.85647   0.47847   0.00840   0.00000  Uiso   1.00
C290   C     0.87812   0.43772   0.32100   0.00000  Uiso   1.00
C291   C     0.84359   0.41493   0.28637   0.00000  Uiso   1.00
C292   C     0.79128   0.43571   0.27218   0.00000  Uiso   1.00
C293   C     0.89491   0.50802   0.03844   0.00000  Uiso   1.00
C294   C     0.96466   0.44338   0.03717   0.00000  Uiso   1.00
H295   H     0.67066   0.42658   0.05011   0.00000  Uiso   1.00
H296   H     0.80567   0.56460   0.20737   0.00000  Uiso   1.00
H297   H     0.84373   0.36752   0.23243   0.00000  Uiso   1.00
H298   H     0.88961   0.64082   0.02294   0.00000  Uiso   1.00
H299   H     0.92283   0.59130   0.33236   0.00000  Uiso   1.00
H300   H     0.84497   0.58878   0.32685   0.00000  Uiso   1.00
H301   H     0.85553   0.57395   0.06343   0.00000  Uiso   1.00
H302   H     0.93087   0.58277   0.06880   0.00000  Uiso   1.00
H303   H     0.93546   0.66373   0.17111   0.00000  Uiso   1.00
H304   H     0.82256   0.45865   0.13780   0.00000  Uiso   1.00
H305   H     0.95372   0.39309   0.32067   0.00000  Uiso   1.00
H306   H     0.98597   0.54690   0.29109   0.00000  Uiso   1.00
H307   H     0.78334   0.51794   0.05237   0.00000  Uiso   1.00
H308   H     0.69192   0.55459   0.02678   0.00000  Uiso   1.00
H309   H     0.76556   0.41863   0.24539   0.00000  Uiso   1.00
H310   H     0.73154   0.33634   0.16298   0.00000  Uiso   1.00
N311   N     0.81160   0.48556   0.15695   0.00000  Uiso   1.00
N312   N     0.85507   0.51444   0.17638   0.00000  Uiso   1.00
O313   O     0.96435   0.57963   0.16905   0.00000  Uiso   1.00
O314   O     0.88772   0.33637   0.27736   0.00000  Uiso   1.00
O315   O     0.72408   0.57038   0.16282   0.00000  Uiso   1.00
O316   O     0.98157   0.50691   0.22253   0.00000  Uiso   1.00
O317   O     0.74130   0.49766   0.21631   0.00000  Uiso   1.00
O318   O     0.94258   0.42962   0.17051   0.00000  Uiso   1.00
O319   O     0.70231   0.42037   0.16428   0.00000  Uiso   1.00
O320   O     0.92537   0.50234   0.11703   0.00000  Uiso   1.00
O321   O     0.68510   0.49309   0.11080   0.00000  Uiso   1.00
O322   O     0.88924   0.57397   0.22651   0.00000  Uiso   1.00
Zn323  Zn    0.93786   0.50618   0.17082   0.00000  Uiso   1.00
Zn324  Zn    0.72881   0.49382   0.16251   0.00000  Uiso   1.00
C325   C     0.01478   0.93148   0.16589   0.00000  Uiso   1.00
C326   C     0.05328   0.83319   0.27798   0.00000  Uiso   1.00
C327   C     0.02255   0.98605   0.16560   0.00000  Uiso   1.00
C328   C     0.03541   0.83473   0.23694   0.00000  Uiso   1.00
C329   C     0.31107   0.68068   0.16840   0.00000  Uiso   1.00
C330   C     0.31865   0.73520   0.16765   0.00000  Uiso   1.00
C331   C     0.29751   0.82918   0.09643   0.00000  Uiso   1.00
C332   C     0.26731   0.75579   0.00194   0.00000  Uiso   1.00
C333   C     0.27721   0.81820   0.05591   0.00000  Uiso   1.00
C334   C     0.02506   0.86183   0.30223   0.00000  Uiso   1.00
C335   C     0.04785   0.86744   0.00777   0.00000  Uiso   1.00
C336   C     0.13185   0.82338   0.33047   0.00000  Uiso   1.00
C337   C     0.10099   0.84826   0.02196   0.00000  Uiso   1.00
C338   C     0.18035   0.88591   0.20457   0.00000  Uiso   1.00
C339   C     0.19310   0.70422   0.26299   0.00000  Uiso   1.00
C340   C     0.22435   0.89969   0.04853   0.00000  Uiso   1.00
C341   C     0.22007   0.93184   0.01376   0.00000  Uiso   1.00
C342   C     0.10317   0.80845   0.29317   0.00000  Uiso   1.00
C343   C     0.18981   0.81180   0.00840   0.00000  Uiso   1.00
C344   C     0.21145   0.77106   0.32100   0.00000  Uiso   1.00
C345   C     0.17692   0.74826   0.28637   0.00000  Uiso   1.00
C346   C     0.12461   0.76905   0.27218   0.00000  Uiso   1.00
C347   C     0.22824   0.84135   0.03844   0.00000  Uiso   1.00
C348   C     0.29799   0.77671   0.03717   0.00000  Uiso   1.00
H349   H     0.00400   0.75992   0.05011   0.00000  Uiso   1.00
H350   H     0.13900   0.89793   0.20737   0.00000  Uiso   1.00
H351   H     0.17707   0.70085   0.23243   0.00000  Uiso   1.00
H352   H     0.22294   0.97415   0.02294   0.00000  Uiso   1.00
H353   H     0.25617   0.92463   0.33236   0.00000  Uiso   1.00
H354   H     0.17830   0.92211   0.32685   0.00000  Uiso   1.00
H355   H     0.18886   0.90728   0.06343   0.00000  Uiso   1.00
H356   H     0.26421   0.91610   0.06880   0.00000  Uiso   1.00
H357   H     0.26879   0.99706   0.17111   0.00000  Uiso   1.00
H358   H     0.15590   0.79198   0.13780   0.00000  Uiso   1.00
H359   H     0.28705   0.72642   0.32067   0.00000  Uiso   1.00
H360   H     0.31930   0.88024   0.29109   0.00000  Uiso   1.00
H361   H     0.11667   0.85127   0.05237   0.00000  Uiso   1.00
H362   H     0.02525   0.88792   0.02678   0.00000  Uiso   1.00
H363   H     0.09889   0.75196   0.24539   0.00000  Uiso   1.00
H364   H     0.06487   0.66967   0.16298   0.00000  Uiso   1.00
N365   N     0.14493   0.81890   0.15695   0.00000  Uiso   1.00
N366   N     0.18840   0.84777   0.17638   0.00000  Uiso   1.00
O367   O     0.29769   0.91296   0.16905   0.00000  Uiso   1.00
O368   O     0.22106   0.66970   0.27736   0.00000  Uiso   1.00
O369   O     0.05742   0.90371   0.16282   0.00000  Uiso   1.00
O370   O     0.31490   0.84024   0.22253   0.00000  Uiso   1.00
O371   O     0.07463   0.83099   0.21631   0.00000  Uiso   1.00
O372   O     0.27592   0.76296   0.17051   0.00000  Uiso   1.00
O373   O     0.03565   0.75371   0.16428   0.00000  Uiso   1.00
O374   O     0.25870   0.83567   0.11703   0.00000  Uiso   1.00
O375   O     0.01843   0.82642   0.11080   0.00000  Uiso   1.00
O376   O     0.22257   0.90730   0.22651   0.00000  Uiso   1.00
Zn377  Zn    0.27119   0.83951   0.17082   0.00000  Uiso   1.00
Zn378  Zn    0.06214   0.82716   0.16251   0.00000  Uiso   1.00
C379   C     0.34811   0.93148   0.16589   0.00000  Uiso   1.00
C380   C     0.38662   0.83319   0.27798   0.00000  Uiso   1.00
C381   C     0.35588   0.98605   0.16560   0.00000  Uiso   1.00
C382   C     0.36874   0.83473   0.23694   0.00000  Uiso   1.00
C383   C     0.64441   0.68068   0.16840   0.00000  Uiso   1.00
C384   C     0.65198   0.73520   0.16765   0.00000  Uiso   1.00
C385   C     0.63084   0.82918   0.09643   0.00000  Uiso   1.00
C386   C     0.60064   0.75579   0.00194   0.00000  Uiso   1.00
C387   C     0.61055   0.81820   0.05591   0.00000  Uiso   1.00
C388   C     0.35839   0.86183   0.30223   0.00000  Uiso   1.00
C389   C     0.38119   0.86744   0.00777   0.00000  Uiso   1.00
C390   C     0.46518   0.82338   0.33047   0.00000  Uiso   1.00
C391   C     0.43432   0.84826   0.02196   0.00000  Uiso   1.00
C392   C     0.51369   0.88591   0.20457   0.00000  Uiso   1.00
C393   C     0.52644   0.70422   0.26299   0.00000  Uiso   1.00
C394   C     0.55768   0.89969   0.04853   0.00000  Uiso   1.00
C395   C     0.55340   0.93184   0.01376   0.00000  Uiso   1.00
C396   C     0.43650   0.80845   0.29317   0.00000  Uiso   1.00
C397   C     0.52314   0.81180   0.00840   0.00000  Uiso   1.00
C398   C     0.54479   0.77106   0.32100   0.00000  Uiso   1.00
C399   C     0.51026   0.74826   0.28637   0.00000  Uiso   1.00
C400   C     0.45794   0.76905   0.27218   0.00000  Uiso   1.00
C401   C     0.56158   0.84135   0.03844   0.00000  Uiso   1.00
C402   C     0.63132   0.77671   0.03717   0.00000  Uiso   1.00
H403   H     0.33733   0.75992   0.05011   0.00000  Uiso   1.00
H404   H     0.47234   0.89793   0.20737   0.00000  Uiso   1.00
H405   H     0.51040   0.70085   0.23243   0.00000  Uiso   1.00
H406   H     0.55628   0.97415   0.02294   0.00000  Uiso   1.00
H407   H     0.58950   0.92463   0.33236   0.00000  Uiso   1.00
H408   H     0.51163   0.92211   0.32685   0.00000  Uiso   1.00
H409   H     0.52219   0.90728   0.06343   0.00000  Uiso   1.00
H410   H     0.59754   0.91610   0.06880   0.00000  Uiso   1.00
H411   H     0.60212   0.99706   0.17111   0.00000  Uiso   1.00
H412   H     0.48923   0.79198   0.13780   0.00000  Uiso   1.00
H413   H     0.62039   0.72642   0.32067   0.00000  Uiso   1.00
H414   H     0.65263   0.88024   0.29109   0.00000  Uiso   1.00
H415   H     0.45000   0.85127   0.05237   0.00000  Uiso   1.00
H416   H     0.35859   0.88792   0.02678   0.00000  Uiso   1.00
H417   H     0.43223   0.75196   0.24539   0.00000  Uiso   1.00
H418   H     0.39820   0.66967   0.16298   0.00000  Uiso   1.00
N419   N     0.47827   0.81890   0.15695   0.00000  Uiso   1.00
N420   N     0.52173   0.84777   0.17638   0.00000  Uiso   1.00
O421   O     0.63102   0.91296   0.16905   0.00000  Uiso   1.00
O422   O     0.55439   0.66970   0.27736   0.00000  Uiso   1.00
O423   O     0.39075   0.90371   0.16282   0.00000  Uiso   1.00
O424   O     0.64823   0.84024   0.22253   0.00000  Uiso   1.00
O425   O     0.40796   0.83099   0.21631   0.00000  Uiso   1.00
O426   O     0.60925   0.76296   0.17051   0.00000  Uiso   1.00
O427   O     0.36898   0.75371   0.16428   0.00000  Uiso   1.00
O428   O     0.59204   0.83567   0.11703   0.00000  Uiso   1.00
O429   O     0.35177   0.82642   0.11080   0.00000  Uiso   1.00
O430   O     0.55590   0.90730   0.22651   0.00000  Uiso   1.00
Zn431  Zn    0.60453   0.83951   0.17082   0.00000  Uiso   1.00
Zn432  Zn    0.39547   0.82716   0.16251   0.00000  Uiso   1.00
C433   C     0.68145   0.93148   0.16589   0.00000  Uiso   1.00
C434   C     0.71995   0.83319   0.27798   0.00000  Uiso   1.00
C435   C     0.68922   0.98605   0.16560   0.00000  Uiso   1.00
C436   C     0.70208   0.83473   0.23694   0.00000  Uiso   1.00
C437   C     0.97774   0.68068   0.16840   0.00000  Uiso   1.00
C438   C     0.98531   0.73520   0.16765   0.00000  Uiso   1.00
C439   C     0.96417   0.82918   0.09643   0.00000  Uiso   1.00
C440   C     0.93397   0.75579   0.00194   0.00000  Uiso   1.00
C441   C     0.94388   0.81820   0.05591   0.00000  Uiso   1.00
C442   C     0.69172   0.86183   0.30223   0.00000  Uiso   1.00
C443   C     0.71452   0.86744   0.00777   0.00000  Uiso   1.00
C444   C     0.79851   0.82338   0.33047   0.00000  Uiso   1.00
C445   C     0.76766   0.84826   0.02196   0.00000  Uiso   1.00
C446   C     0.84702   0.88591   0.20457   0.00000  Uiso   1.00
C447   C     0.85977   0.70422   0.26299   0.00000  Uiso   1.00
C448   C     0.89102   0.89969   0.04853   0.00000  Uiso   1.00
C449   C     0.88674   0.93184   0.01376   0.00000  Uiso   1.00
C450   C     0.76984   0.80845   0.29317   0.00000  Uiso   1.00
C451   C     0.85647   0.81180   0.00840   0.00000  Uiso   1.00
C452   C     0.87812   0.77106   0.32100   0.00000  Uiso   1.00
C453   C     0.84359   0.74826   0.28637   0.00000  Uiso   1.00
C454   C     0.79128   0.76905   0.27218   0.00000  Uiso   1.00
C455   C     0.89491   0.84135   0.03844   0.00000  Uiso   1.00
C456   C     0.96466   0.77671   0.03717   0.00000  Uiso   1.00
H457   H     0.67066   0.75992   0.05011   0.00000  Uiso   1.00
H458   H     0.80567   0.89793   0.20737   0.00000  Uiso   1.00
H459   H     0.84373   0.70085   0.23243   0.00000  Uiso   1.00
H460   H     0.88961   0.97415   0.02294   0.00000  Uiso   1.00
H461   H     0.92283   0.92463   0.33236   0.00000  Uiso   1.00
H462   H     0.84497   0.92211   0.32685   0.00000  Uiso   1.00
H463   H     0.85553   0.90728   0.06343   0.00000  Uiso   1.00
H464   H     0.93087   0.91610   0.06880   0.00000  Uiso   1.00
H465   H     0.93546   0.99706   0.17111   0.00000  Uiso   1.00
H466   H     0.82256   0.79198   0.13780   0.00000  Uiso   1.00
H467   H     0.95372   0.72642   0.32067   0.00000  Uiso   1.00
H468   H     0.98597   0.88024   0.29109   0.00000  Uiso   1.00
H469   H     0.78334   0.85127   0.05237   0.00000  Uiso   1.00
H470   H     0.69192   0.88792   0.02678   0.00000  Uiso   1.00
H471   H     0.76556   0.75196   0.24539   0.00000  Uiso   1.00
H472   H     0.73154   0.66967   0.16298   0.00000  Uiso   1.00
N473   N     0.81160   0.81890   0.15695   0.00000  Uiso   1.00
N474   N     0.85507   0.84777   0.17638   0.00000  Uiso   1.00
O475   O     0.96435   0.91296   0.16905   0.00000  Uiso   1.00
O476   O     0.88772   0.66970   0.27736   0.00000  Uiso   1.00
O477   O     0.72408   0.90371   0.16282   0.00000  Uiso   1.00
O478   O     0.98157   0.84024   0.22253   0.00000  Uiso   1.00
O479   O     0.74130   0.83099   0.21631   0.00000  Uiso   1.00
O480   O     0.94258   0.76296   0.17051   0.00000  Uiso   1.00
O481   O     0.70231   0.75371   0.16428   0.00000  Uiso   1.00
O482   O     0.92537   0.83567   0.11703   0.00000  Uiso   1.00
O483   O     0.68510   0.82642   0.11080   0.00000  Uiso   1.00
O484   O     0.88924   0.90730   0.22651   0.00000  Uiso   1.00
Zn485  Zn    0.93786   0.83951   0.17082   0.00000  Uiso   1.00
Zn486  Zn    0.72881   0.82716   0.16251   0.00000  Uiso   1.00
C487   C     0.01478   0.26482   0.49923   0.00000  Uiso   1.00
C488   C     0.05328   0.16653   0.61131   0.00000  Uiso   1.00
C489   C     0.02255   0.31938   0.49893   0.00000  Uiso   1.00
C490   C     0.03541   0.16807   0.57028   0.00000  Uiso   1.00
C491   C     0.31107   0.01401   0.50173   0.00000  Uiso   1.00
C492   C     0.31865   0.06853   0.50099   0.00000  Uiso   1.00
C493   C     0.29751   0.16251   0.42977   0.00000  Uiso   1.00
C494   C     0.26731   0.08912   0.33527   0.00000  Uiso   1.00
C495   C     0.27721   0.15153   0.38924   0.00000  Uiso   1.00
C496   C     0.02506   0.19516   0.63556   0.00000  Uiso   1.00
C497   C     0.04785   0.20077   0.34111   0.00000  Uiso   1.00
C498   C     0.13185   0.15671   0.66381   0.00000  Uiso   1.00
C499   C     0.10099   0.18159   0.35529   0.00000  Uiso   1.00
C500   C     0.18035   0.21924   0.53790   0.00000  Uiso   1.00
C501   C     0.19310   0.03756   0.59633   0.00000  Uiso   1.00
C502   C     0.22435   0.23302   0.38186   0.00000  Uiso   1.00
C503   C     0.22007   0.26518   0.34709   0.00000  Uiso   1.00
C504   C     0.10317   0.14178   0.62650   0.00000  Uiso   1.00
C505   C     0.18981   0.14513   0.34173   0.00000  Uiso   1.00
C506   C     0.21145   0.10439   0.65433   0.00000  Uiso   1.00
C507   C     0.17692   0.08160   0.61970   0.00000  Uiso   1.00
C508   C     0.12461   0.10238   0.60551   0.00000  Uiso   1.00
C509   C     0.22824   0.17469   0.37177   0.00000  Uiso   1.00
C510   C     0.29799   0.11005   0.37051   0.00000  Uiso   1.00
H511   H     0.00400   0.09325   0.38344   0.00000  Uiso   1.00
H512   H     0.13900   0.23127   0.54070   0.00000  Uiso   1.00
H513   H     0.17707   0.03419   0.56576   0.00000  Uiso   1.00
H514   H     0.22294   0.30748   0.35627   0.00000  Uiso   1.00
H515   H     0.25617   0.25797   0.66570   0.00000  Uiso   1.00
H516   H     0.17830   0.25545   0.66018   0.00000  Uiso   1.00
H517   H     0.18886   0.24061   0.39676   0.00000  Uiso   1.00
H518   H     0.26421   0.24944   0.40213   0.00000  Uiso   1.00
H519   H     0.26879   0.33040   0.50444   0.00000  Uiso   1.00
H520   H     0.15590   0.12532   0.47113   0.00000  Uiso   1.00
H521   H     0.28705   0.05976   0.65400   0.00000  Uiso   1.00
H522   H     0.31930   0.21357   0.62442   0.00000  Uiso   1.00
H523   H     0.11667   0.18461   0.38570   0.00000  Uiso   1.00
H524   H     0.02525   0.22125   0.36012   0.00000  Uiso   1.00
H525   H     0.09889   0.08529   0.57873   0.00000  Uiso   1.00
H526   H     0.06487   0.00301   0.49631   0.00000  Uiso   1.00
N527   N     0.14493   0.15223   0.49028   0.00000  Uiso   1.00
N528   N     0.18840   0.18110   0.50972   0.00000  Uiso   1.00
O529   O     0.29769   0.24629   0.50238   0.00000  Uiso   1.00
O530   O     0.22106   0.00304   0.61069   0.00000  Uiso   1.00
O531   O     0.05742   0.23704   0.49616   0.00000  Uiso   1.00
O532   O     0.31490   0.17358   0.55587   0.00000  Uiso   1.00
O533   O     0.07463   0.16433   0.54964   0.00000  Uiso   1.00
O534   O     0.27592   0.09629   0.50384   0.00000  Uiso   1.00
O535   O     0.03565   0.08704   0.49762   0.00000  Uiso   1.00
O536   O     0.25870   0.16901   0.45036   0.00000  Uiso   1.00
O537   O     0.01843   0.15976   0.44413   0.00000  Uiso   1.00
O538   O     0.22257   0.24063   0.55984   0.00000  Uiso   1.00
Zn539  Zn    0.27119   0.17284   0.50416   0.00000  Uiso   1.00
Zn540  Zn    0.06214   0.16049   0.49584   0.00000  Uiso   1.00
C541   C     0.34811   0.26482   0.49923   0.00000  Uiso   1.00
C542   C     0.38662   0.16653   0.61131   0.00000  Uiso   1.00
C543   C     0.35588   0.31938   0.49893   0.00000  Uiso   1.00
C544   C     0.36874   0.16807   0.57028   0.00000  Uiso   1.00
C545   C     0.64441   0.01401   0.50173   0.00000  Uiso   1.00
C546   C     0.65198   0.06853   0.50099   0.00000  Uiso   1.00
C547   C     0.63084   0.16251   0.42977   0.00000  Uiso   1.00
C548   C     0.60064   0.08912   0.33527   0.00000  Uiso   1.00
C549   C     0.61055   0.15153   0.38924   0.00000  Uiso   1.00
C550   C     0.35839   0.19516   0.63556   0.00000  Uiso   1.00
C551   C     0.38119   0.20077   0.34111   0.00000  Uiso   1.00
C552   C     0.46518   0.15671   0.66381   0.00000  Uiso   1.00
C553   C     0.43432   0.18159   0.35529   0.00000  Uiso   1.00
C554   C     0.51369   0.21924   0.53790   0.00000  Uiso   1.00
C555   C     0.52644   0.03756   0.59633   0.00000  Uiso   1.00
C556   C     0.55768   0.23302   0.38186   0.00000  Uiso   1.00
C557   C     0.55340   0.26518   0.34709   0.00000  Uiso   1.00
C558   C     0.43650   0.14178   0.62650   0.00000  Uiso   1.00
C559   C     0.52314   0.14513   0.34173   0.00000  Uiso   1.00
C560   C     0.54479   0.10439   0.65433   0.00000  Uiso   1.00
C561   C     0.51026   0.08160   0.61970   0.00000  Uiso   1.00
C562   C     0.45794   0.10238   0.60551   0.00000  Uiso   1.00
C563   C     0.56158   0.17469   0.37177   0.00000  Uiso   1.00
C564   C     0.63132   0.11005   0.37051   0.00000  Uiso   1.00
H565   H     0.33733   0.09325   0.38344   0.00000  Uiso   1.00
H566   H     0.47234   0.23127   0.54070   0.00000  Uiso   1.00
H567   H     0.51040   0.03419   0.56576   0.00000  Uiso   1.00
H568   H     0.55628   0.30748   0.35627   0.00000  Uiso   1.00
H569   H     0.58950   0.25797   0.66570   0.00000  Uiso   1.00
H570   H     0.51163   0.25545   0.66018   0.00000  Uiso   1.00
H571   H     0.52219   0.24061   0.39676   0.00000  Uiso   1.00
H572   H     0.59754   0.24944   0.40213   0.00000  Uiso   1.00
H573   H     0.60212   0.33040   0.50444   0.00000  Uiso   1.00
H574   H     0.48923   0.12532   0.47113   0.00000  Uiso   1.00
H575   H     0.62039   0.05976   0.65400   0.00000  Uiso   1.00
H576   H     0.65263   0.21357   0.62442   0.00000  Uiso   1.00
H577   H     0.45000   0.18461   0.38570   0.00000  Uiso   1.00
H578   H     0.35859   0.22125   0.36012   0.00000  Uiso   1.00
H579   H     0.43223   0.08529   0.57873   0.00000  Uiso   1.00
H580   H     0.39820   0.00301   0.49631   0.00000  Uiso   1.00
N581   N     0.47827   0.15223   0.49028   0.00000  Uiso   1.00
N582   N     0.52173   0.18110   0.50972   0.00000  Uiso   1.00
O583   O     0.63102   0.24629   0.50238   0.00000  Uiso   1.00
O584   O     0.55439   0.00304   0.61069   0.00000  Uiso   1.00
O585   O     0.39075   0.23704   0.49616   0.00000  Uiso   1.00
O586   O     0.64823   0.17358   0.55587   0.00000  Uiso   1.00
O587   O     0.40796   0.16433   0.54964   0.00000  Uiso   1.00
O588   O     0.60925   0.09629   0.50384   0.00000  Uiso   1.00
O589   O     0.36898   0.08704   0.49762   0.00000  Uiso   1.00
O590   O     0.59204   0.16901   0.45036   0.00000  Uiso   1.00
O591   O     0.35177   0.15976   0.44413   0.00000  Uiso   1.00
O592   O     0.55590   0.24063   0.55984   0.00000  Uiso   1.00
Zn593  Zn    0.60453   0.17284   0.50416   0.00000  Uiso   1.00
Zn594  Zn    0.39547   0.16049   0.49584   0.00000  Uiso   1.00
C595   C     0.68145   0.26482   0.49923   0.00000  Uiso   1.00
C596   C     0.71995   0.16653   0.61131   0.00000  Uiso   1.00
C597   C     0.68922   0.31938   0.49893   0.00000  Uiso   1.00
C598   C     0.70208   0.16807   0.57028   0.00000  Uiso   1.00
C599   C     0.97774   0.01401   0.50173   0.00000  Uiso   1.00
C600   C     0.98531   0.06853   0.50099   0.00000  Uiso   1.00
C601   C     0.96417   0.16251   0.42977   0.00000  Uiso   1.00
C602   C     0.93397   0.08912   0.33527   0.00000  Uiso   1.00
C603   C     0.94388   0.15153   0.38924   0.00000  Uiso   1.00
C604   C     0.69172   0.19516   0.63556   0.00000  Uiso   1.00
C605   C     0.71452   0.20077   0.34111   0.00000  Uiso   1.00
C606   C     0.79851   0.15671   0.66381   0.00000  Uiso   1.00
C607   C     0.76766   0.18159   0.35529   0.00000  Uiso   1.00
C608   C     0.84702   0.21924   0.53790   0.00000  Uiso   1.00
C609   C     0.85977   0.03756   0.59633   0.00000  Uiso   1.00
C610   C     0.89102   0.23302   0.38186   0.00000  Uiso   1.00
C611   C     0.88674   0.26518   0.34709   0.00000  Uiso   1.00
C612   C     0.76984   0.14178   0.62650   0.00000  Uiso   1.00
C613   C     0.85647   0.14513   0.34173   0.00000  Uiso   1.00
C614   C     0.87812   0.10439   0.65433   0.00000  Uiso   1.00
C615   C     0.84359   0.08160   0.61970   0.00000  Uiso   1.00
C616   C     0.79128   0.10238   0.60551   0.00000  Uiso   1.00
C617   C     0.89491   0.17469   0.37177   0.00000  Uiso   1.00
C618   C     0.96466   0.11005   0.37051   0.00000  Uiso   1.00
H619   H     0.67066   0.09325   0.38344   0.00000  Uiso   1.00
H620   H     0.80567   0.23127   0.54070   0.00000  Uiso   1.00
H621   H     0.84373   0.03419   0.56576   0.00000  Uiso   1.00
H622   H     0.88961   0.30748   0.35627   0.00000  Uiso   1.00
H623   H     0.92283   0.25797   0.66570   0.00000  Uiso   1.00
H624   H     0.84497   0.25545   0.66018   0.00000  Uiso   1.00
H625   H     0.85553   0.24061   0.39676   0.00000  Uiso   1.00
H626   H     0.93087   0.24944   0.40213   0.00000  Uiso   1.00
H627   H     0.93546   0.33040   0.50444   0.00000  Uiso   1.00
H628   H     0.82256   0.12532   0.47113   0.00000  Uiso   1.00
H629   H     0.95372   0.05976   0.65400   0.00000  Uiso   1.00
H630   H     0.98597   0.21357   0.62442   0.00000  Uiso   1.00
H631   H     0.78334   0.18461   0.38570   0.00000  Uiso   1.00
H632   H     0.69192   0.22125   0.36012   0.00000  Uiso   1.00
H633   H     0.76556   0.08529   0.57873   0.00000  Uiso   1.00
H634   H     0.73154   0.00301   0.49631   0.00000  Uiso   1.00
N635   N     0.81160   0.15223   0.49028   0.00000  Uiso   1.00
N636   N     0.85507   0.18110   0.50972   0.00000  Uiso   1.00
O637   O     0.96435   0.24629   0.50238   0.00000  Uiso   1.00
O638   O     0.88772   0.00304   0.61069   0.00000  Uiso   1.00
O639   O     0.72408   0.23704   0.49616   0.00000  Uiso   1.00
O640   O     0.98157   0.17358   0.55587   0.00000  Uiso   1.00
O641   O     0.74130   0.16433   0.54964   0.00000  Uiso   1.00
O642   O     0.94258   0.09629   0.50384   0.00000  Uiso   1.00
O643   O     0.70231   0.08704   0.49762   0.00000  Uiso   1.00
O644   O     0.92537   0.16901   0.45036   0.00000  Uiso   1.00
O645   O     0.68510   0.15976   0.44413   0.00000  Uiso   1.00
O646   O     0.88924   0.24063   0.55984   0.00000  Uiso   1.00
Zn647  Zn    0.93786   0.17284   0.50416   0.00000  Uiso   1.00
Zn648  Zn    0.72881   0.16049   0.49584   0.00000  Uiso   1.00
C649   C     0.01478   0.59815   0.49923   0.00000  Uiso   1.00
C650   C     0.05328   0.49986   0.61131   0.00000  Uiso   1.00
C651   C     0.02255   0.65272   0.49893   0.00000  Uiso   1.00
C652   C     0.03541   0.50140   0.57028   0.00000  Uiso   1.00
C653   C     0.31107   0.34735   0.50173   0.00000  Uiso   1.00
C654   C     0.31865   0.40187   0.50099   0.00000  Uiso   1.00
C655   C     0.29751   0.49585   0.42977   0.00000  Uiso   1.00
C656   C     0.26731   0.42246   0.33527   0.00000  Uiso   1.00
C657   C     0.27721   0.48486   0.38924   0.00000  Uiso   1.00
C658   C     0.02506   0.52850   0.63556   0.00000  Uiso   1.00
C659   C     0.04785   0.53410   0.34111   0.00000  Uiso   1.00
C660   C     0.13185   0.49005   0.66381   0.00000  Uiso   1.00
C661   C     0.10099   0.51492   0.35529   0.00000  Uiso   1.00
C662   C     0.18035   0.55257   0.53790   0.00000  Uiso   1.00
C663   C     0.19310   0.37089   0.59633   0.00000  Uiso   1.00
C664   C     0.22435   0.56635   0.38186   0.00000  Uiso   1.00
C665   C     0.22007   0.59851   0.34709   0.00000  Uiso   1.00
C666   C     0.10317   0.47512   0.62650   0.00000  Uiso   1.00
C667   C     0.18981   0.47847   0.34173   0.00000  Uiso   1.00
C668   C     0.21145   0.43772   0.65433   0.00000  Uiso   1.00
C669   C     0.17692   0.41493   0.61970   0.00000  Uiso   1.00
C670   C     0.12461   0.43571   0.60551   0.00000  Uiso   1.00
C671   C     0.22824   0.50802   0.37177   0.00000  Uiso   1.00
C672   C     0.29799   0.44338   0.37051   0.00000  Uiso   1.00
H673   H     0.00400   0.42658   0.38344   0.00000  Uiso   1.00
H674   H     0.13900   0.56460   0.54070   0.00000  Uiso   1.00
H675   H     0.17707   0.36752   0.56576   0.00000  Uiso   1.00
H676   H     0.22294   0.64082   0.35627   0.00000  Uiso   1.00
H677   H     0.25617   0.59130   0.66570   0.00000  Uiso   1.00
H678   H     0.17830   0.58878   0.66018   0.00000  Uiso   1.00
H679   H     0.18886   0.57395   0.39676   0.00000  Uiso   1.00
H680   H     0.26421   0.58277   0.40213   0.00000  Uiso   1.00
H681   H     0.26879   0.66373   0.50444   0.00000  Uiso   1.00
H682   H     0.15590   0.45865   0.47113   0.00000  Uiso   1.00
H683   H     0.28705   0.39309   0.65400   0.00000  Uiso   1.00
H684   H     0.31930   0.54690   0.62442   0.00000  Uiso   1.00
H685   H     0.11667   0.51794   0.38570   0.00000  Uiso   1.00
H686   H     0.02525   0.55459   0.36012   0.00000  Uiso   1.00
H687   H     0.09889   0.41863   0.57873   0.00000  Uiso   1.00
H688   H     0.06487   0.33634   0.49631   0.00000  Uiso   1.00
N689   N     0.14493   0.48556   0.49028   0.00000  Uiso   1.00
N690   N     0.18840   0.51444   0.50972   0.00000  Uiso   1.00
O691   O     0.29769   0.57963   0.50238   0.00000  Uiso   1.00
O692   O     0.22106   0.33637   0.61069   0.00000  Uiso   1.00
O693   O     0.05742   0.57038   0.49616   0.00000  Uiso   1.00
O694   O     0.31490   0.50691   0.55587   0.00000  Uiso   1.00
O695   O     0.07463   0.49766   0.54964   0.00000  Uiso   1.00
O696   O     0.27592   0.42962   0.50384   0.00000  Uiso   1.00
O697   O     0.03565   0.42037   0.49762   0.00000  Uiso   1.00
O698   O     0.25870   0.50234   0.45036   0.00000  Uiso   1.00
O699   O     0.01843   0.49309   0.44413   0.00000  Uiso   1.00
O700   O     0.22257   0.57397   0.55984   0.00000  Uiso   1.00
Zn701  Zn    0.27119   0.50618   0.50416   0.00000  Uiso   1.00
Zn702  Zn    0.06214   0.49382   0.49584   0.00000  Uiso   1.00
C703   C     0.34811   0.59815   0.49923   0.00000  Uiso   1.00
C704   C     0.38662   0.49986   0.61131   0.00000  Uiso   1.00
C705   C     0.35588   0.65272   0.49893   0.00000  Uiso   1.00
C706   C     0.36874   0.50140   0.57028   0.00000  Uiso   1.00
C707   C     0.64441   0.34735   0.50173   0.00000  Uiso   1.00
C708   C     0.65198   0.40187   0.50099   0.00000  Uiso   1.00
C709   C     0.63084   0.49585   0.42977   0.00000  Uiso   1.00
C710   C     0.60064   0.42246   0.33527   0.00000  Uiso   1.00
C711   C     0.61055   0.48486   0.38924   0.00000  Uiso   1.00
C712   C     0.35839   0.52850   0.63556   0.00000  Uiso   1.00
C713   C     0.38119   0.53410   0.34111   0.00000  Uiso   1.00
C714   C     0.46518   0.49005   0.66381   0.00000  Uiso   1.00
C715   C     0.43432   0.51492   0.35529   0.00000  Uiso   1.00
C716   C     0.51369   0.55257   0.53790   0.00000  Uiso   1.00
C717   C     0.52644   0.37089   0.59633   0.00000  Uiso   1.00
C718   C     0.55768   0.56635   0.38186   0.00000  Uiso   1.00
C719   C     0.55340   0.59851   0.34709   0.00000  Uiso   1.00
C720   C     0.43650   0.47512   0.62650   0.00000  Uiso   1.00
C721   C     0.52314   0.47847   0.34173   0.00000  Uiso   1.00
C722   C     0.54479   0.43772   0.65433   0.00000  Uiso   1.00
C723   C     0.51026   0.41493   0.61970   0.00000  Uiso   1.00
C724   C     0.45794   0.43571   0.60551   0.00000  Uiso   1.00
C725   C     0.56158   0.50802   0.37177   0.00000  Uiso   1.00
C726   C     0.63132   0.44338   0.37051   0.00000  Uiso   1.00
H727   H     0.33733   0.42658   0.38344   0.00000  Uiso   1.00
H728   H     0.47234   0.56460   0.54070   0.00000  Uiso   1.00
H729   H     0.51040   0.36752   0.56576   0.00000  Uiso   1.00
H730   H     0.55628   0.64082   0.35627   0.00000  Uiso   1.00
H731   H     0.58950   0.59130   0.66570   0.00000  Uiso   1.00
H732   H     0.51163   0.58878   0.66018   0.00000  Uiso   1.00
H733   H     0.52219   0.57395   0.39676   0.00000  Uiso   1.00
H734   H     0.59754   0.58277   0.40213   0.00000  Uiso   1.00
H735   H     0.60212   0.66373   0.50444   0.00000  Uiso   1.00
H736   H     0.48923   0.45865   0.47113   0.00000  Uiso   1.00
H737   H     0.62039   0.39309   0.65400   0.00000  Uiso   1.00
H738   H     0.65263   0.54690   0.62442   0.00000  Uiso   1.00
H739   H     0.45000   0.51794   0.38570   0.00000  Uiso   1.00
H740   H     0.35859   0.55459   0.36012   0.00000  Uiso   1.00
H741   H     0.43223   0.41863   0.57873   0.00000  Uiso   1.00
H742   H     0.39820   0.33634   0.49631   0.00000  Uiso   1.00
N743   N     0.47827   0.48556   0.49028   0.00000  Uiso   1.00
N744   N     0.52173   0.51444   0.50972   0.00000  Uiso   1.00
O745   O     0.63102   0.57963   0.50238   0.00000  Uiso   1.00
O746   O     0.55439   0.33637   0.61069   0.00000  Uiso   1.00
O747   O     0.39075   0.57038   0.49616   0.00000  Uiso   1.00
O748   O     0.64823   0.50691   0.55587   0.00000  Uiso   1.00
O749   O     0.40796   0.49766   0.54964   0.00000  Uiso   1.00
O750   O     0.60925   0.42962   0.50384   0.00000  Uiso   1.00
O751   O     0.36898   0.42037   0.49762   0.00000  Uiso   1.00
O752   O     0.59204   0.50234   0.45036   0.00000  Uiso   1.00
O753   O     0.35177   0.49309   0.44413   0.00000  Uiso   1.00
O754   O     0.55590   0.57397   0.55984   0.00000  Uiso   1.00
Zn755  Zn    0.60453   0.50618   0.50416   0.00000  Uiso   1.00
Zn756  Zn    0.39547   0.49382   0.49584   0.00000  Uiso   1.00
C757   C     0.68145   0.59815   0.49923   0.00000  Uiso   1.00
C758   C     0.71995   0.49986   0.61131   0.00000  Uiso   1.00
C759   C     0.68922   0.65272   0.49893   0.00000  Uiso   1.00
C760   C     0.70208   0.50140   0.57028   0.00000  Uiso   1.00
C761   C     0.97774   0.34735   0.50173   0.00000  Uiso   1.00
C762   C     0.98531   0.40187   0.50099   0.00000  Uiso   1.00
C763   C     0.96417   0.49585   0.42977   0.00000  Uiso   1.00
C764   C     0.93397   0.42246   0.33527   0.00000  Uiso   1.00
C765   C     0.94388   0.48486   0.38924   0.00000  Uiso   1.00
C766   C     0.69172   0.52850   0.63556   0.00000  Uiso   1.00
C767   C     0.71452   0.53410   0.34111   0.00000  Uiso   1.00
C768   C     0.79851   0.49005   0.66381   0.00000  Uiso   1.00
C769   C     0.76766   0.51492   0.35529   0.00000  Uiso   1.00
C770   C     0.84702   0.55257   0.53790   0.00000  Uiso   1.00
C771   C     0.85977   0.37089   0.59633   0.00000  Uiso   1.00
C772   C     0.89102   0.56635   0.38186   0.00000  Uiso   1.00
C773   C     0.88674   0.59851   0.34709   0.00000  Uiso   1.00
C774   C     0.76984   0.47512   0.62650   0.00000  Uiso   1.00
C775   C     0.85647   0.47847   0.34173   0.00000  Uiso   1.00
C776   C     0.87812   0.43772   0.65433   0.00000  Uiso   1.00
C777   C     0.84359   0.41493   0.61970   0.00000  Uiso   1.00
C778   C     0.79128   0.43571   0.60551   0.00000  Uiso   1.00
C779   C     0.89491   0.50802   0.37177   0.00000  Uiso   1.00
C780   C     0.96466   0.44338   0.37051   0.00000  Uiso   1.00
H781   H     0.67066   0.42658   0.38344   0.00000  Uiso   1.00
H782   H     0.80567   0.56460   0.54070   0.00000  Uiso   1.00
H783   H     0.84373   0.36752   0.56576   0.00000  Uiso   1.00
H784   H     0.88961   0.64082   0.35627   0.00000  Uiso   1.00
H785   H     0.92283   0.59130   0.66570   0.00000  Uiso   1.00
H786   H     0.84497   0.58878   0.66018   0.00000  Uiso   1.00
H787   H     0.85553   0.57395   0.39676   0.00000  Uiso   1.00
H788   H     0.93087   0.58277   0.40213   0.00000  Uiso   1.00
H789   H     0.93546   0.66373   0.50444   0.00000  Uiso   1.00
H790   H     0.82256   0.45865   0.47113   0.00000  Uiso   1.00
H791   H     0.95372   0.39309   0.65400   0.00000  Uiso   1.00
H792   H     0.98597   0.54690   0.62442   0.00000  Uiso   1.00
H793   H     0.78334   0.51794   0.38570   0.00000  Uiso   1.00
H794   H     0.69192   0.55459   0.36012   0.00000  Uiso   1.00
H795   H     0.76556   0.41863   0.57873   0.00000  Uiso   1.00
H796   H     0.73154   0.33634   0.49631   0.00000  Uiso   1.00
N797   N     0.81160   0.48556   0.49028   0.00000  Uiso   1.00
N798   N     0.85507   0.51444   0.50972   0.00000  Uiso   1.00
O799   O     0.96435   0.57963   0.50238   0.00000  Uiso   1.00
O800   O     0.88772   0.33637   0.61069   0.00000  Uiso   1.00
O801   O     0.72408   0.57038   0.49616   0.00000  Uiso   1.00
O802   O     0.98157   0.50691   0.55587   0.00000  Uiso   1.00
O803   O     0.74130   0.49766   0.54964   0.00000  Uiso   1.00
O804   O     0.94258   0.42962   0.50384   0.00000  Uiso   1.00
O805   O     0.70231   0.42037   0.49762   0.00000  Uiso   1.00
O806   O     0.92537   0.50234   0.45036   0.00000  Uiso   1.00
O807   O     0.68510   0.49309   0.44413   0.00000  Uiso   1.00
O808   O     0.88924   0.57397   0.55984   0.00000  Uiso   1.00
Zn809  Zn    0.93786   0.50618   0.50416   0.00000  Uiso   1.00
Zn810  Zn    0.72881   0.49382   0.49584   0.00000  Uiso   1.00
C811   C     0.01478   0.93148   0.49923   0.00000  Uiso   1.00
C812   C     0.05328   0.83319   0.61131   0.00000  Uiso   1.00
C813   C     0.02255   0.98605   0.49893   0.00000  Uiso   1.00
C814   C     0.03541   0.83473   0.57028   0.00000  Uiso   1.00
C815   C     0.31107   0.68068   0.50173   0.00000  Uiso   1.00
C816   C     0.31865   0.73520   0.50099   0.00000  Uiso   1.00
C817   C     0.29751   0.82918   0.42977   0.00000  Uiso   1.00
C818   C     0.26731   0.75579   0.33527   0.00000  Uiso   1.00
C819   C     0.27721   0.81820   0.38924   0.00000  Uiso   1.00
C820   C     0.02506   0.86183   0.63556   0.00000  Uiso   1.00
C821   C     0.04785   0.86744   0.34111   0.00000  Uiso   1.00
C822   C     0.13185   0.82338   0.66381   0.00000  Uiso   1.00
C823   C     0.10099   0.84826   0.35529   0.00000  Uiso   1.00
C824   C     0.18035   0.88591   0.53790   0.00000  Uiso   1.00
C825   C     0.19310   0.70422   0.59633   0.00000  Uiso   1.00
C826   C     0.22435   0.89969   0.38186   0.00000  Uiso   1.00
C827   C     0.22007   0.93184   0.34709   0.00000  Uiso   1.00
C828   C     0.10317   0.80845   0.62650   0.00000  Uiso   1.00
C829   C     0.18981   0.81180   0.34173   0.00000  Uiso   1.00
C830   C     0.21145   0.77106   0.65433   0.00000  Uiso   1.00
C831   C     0.17692   0.74826   0.61970   0.00000  Uiso   1.00
C832   C     0.12461   0.76905   0.60551   0.00000  Uiso   1.00
C833   C     0.22824   0.84135   0.37177   0.00000  Uiso   1.00
C834   C     0.29799   0.77671   0.37051   0.00000  Uiso   1.00
H835   H     0.00400   0.75992   0.38344   0.00000  Uiso   1.00
H836   H     0.13900   0.89793   0.54070   0.00000  Uiso   1.00
H837   H     0.17707   0.70085   0.56576   0.00000  Uiso   1.00
H838   H     0.22294   0.97415   0.35627   0.00000  Uiso   1.00
H839   H     0.25617   0.92463   0.66570   0.00000  Uiso   1.00
H840   H     0.17830   0.92211   0.66018   0.00000  Uiso   1.00
H841   H     0.18886   0.90728   0.39676   0.00000  Uiso   1.00
H842   H     0.26421   0.91610   0.40213   0.00000  Uiso   1.00
H843   H     0.26879   0.99706   0.50444   0.00000  Uiso   1.00
H844   H     0.15590   0.79198   0.47113   0.00000  Uiso   1.00
H845   H     0.28705   0.72642   0.65400   0.00000  Uiso   1.00
H846   H     0.31930   0.88024   0.62442   0.00000  Uiso   1.00
H847   H     0.11667   0.85127   0.38570   0.00000  Uiso   1.00
H848   H     0.02525   0.88792   0.36012   0.00000  Uiso   1.00
H849   H     0.09889   0.75196   0.57873   0.00000  Uiso   1.00
H850   H     0.06487   0.66967   0.49631   0.00000  Uiso   1.00
N851   N     0.14493   0.81890   0.49028   0.00000  Uiso   1.00
N852   N     0.18840   0.84777   0.50972   0.00000  Uiso   1.00
O853   O     0.29769   0.91296   0.50238   0.00000  Uiso   1.00
O854   O     0.22106   0.66970   0.61069   0.00000  Uiso   1.00
O855   O     0.05742   0.90371   0.49616   0.00000  Uiso   1.00
O856   O     0.31490   0.84024   0.55587   0.00000  Uiso   1.00
O857   O     0.07463   0.83099   0.54964   0.00000  Uiso   1.00
O858   O     0.27592   0.76296   0.50384   0.00000  Uiso   1.00
O859   O     0.03565   0.75371   0.49762   0.00000  Uiso   1.00
O860   O     0.25870   0.83567   0.45036   0.00000  Uiso   1.00
O861   O     0.01843   0.82642   0.44413   0.00000  Uiso   1.00
O862   O     0.22257   0.90730   0.55984   0.00000  Uiso   1.00
Zn863  Zn    0.27119   0.83951   0.50416   0.00000  Uiso   1.00
Zn864  Zn    0.06214   0.82716   0.49584   0.00000  Uiso   1.00
C865   C     0.34811   0.93148   0.49923   0.00000  Uiso   1.00
C866   C     0.38662   0.83319   0.61131   0.00000  Uiso   1.00
C867   C     0.35588   0.98605   0.49893   0.00000  Uiso   1.00
C868   C     0.36874   0.83473   0.57028   0.00000  Uiso   1.00
C869   C     0.64441   0.68068   0.50173   0.00000  Uiso   1.00
C870   C     0.65198   0.73520   0.50099   0.00000  Uiso   1.00
C871   C     0.63084   0.82918   0.42977   0.00000  Uiso   1.00
C872   C     0.60064   0.75579   0.33527   0.00000  Uiso   1.00
C873   C     0.61055   0.81820   0.38924   0.00000  Uiso   1.00
C874   C     0.35839   0.86183   0.63556   0.00000  Uiso   1.00
C875   C     0.38119   0.86744   0.34111   0.00000  Uiso   1.00
C876   C     0.46518   0.82338   0.66381   0.00000  Uiso   1.00
C877   C     0.43432   0.84826   0.35529   0.00000  Uiso   1.00
C878   C     0.51369   0.88591   0.53790   0.00000  Uiso   1.00
C879   C     0.52644   0.70422   0.59633   0.00000  Uiso   1.00
C880   C     0.55768   0.89969   0.38186   0.00000  Uiso   1.00
C881   C     0.55340   0.93184   0.34709   0.00000  Uiso   1.00
C882   C     0.43650   0.80845   0.62650   0.00000  Uiso   1.00
C883   C     0.52314   0.81180   0.34173   0.00000  Uiso   1.00
C884   C     0.54479   0.77106   0.65433   0.00000  Uiso   1.00
C885   C     0.51026   0.74826   0.61970   0.00000  Uiso   1.00
C886   C     0.45794   0.76905   0.60551   0.00000  Uiso   1.00
C887   C     0.56158   0.84135   0.37177   0.00000  Uiso   1.00
C888   C     0.63132   0.77671   0.37051   0.00000  Uiso   1.00
H889   H     0.33733   0.75992   0.38344   0.00000  Uiso   1.00
H890   H     0.47234   0.89793   0.54070   0.00000  Uiso   1.00
H891   H     0.51040   0.70085   0.56576   0.00000  Uiso   1.00
H892   H     0.55628   0.97415   0.35627   0.00000  Uiso   1.00
H893   H     0.58950   0.92463   0.66570   0.00000  Uiso   1.00
H894   H     0.51163   0.92211   0.66018   0.00000  Uiso   1.00
H895   H     0.52219   0.90728   0.39676   0.00000  Uiso   1.00
H896   H     0.59754   0.91610   0.40213   0.00000  Uiso   1.00
H897   H     0.60212   0.99706   0.50444   0.00000  Uiso   1.00
H898   H     0.48923   0.79198   0.47113   0.00000  Uiso   1.00
H899   H     0.62039   0.72642   0.65400   0.00000  Uiso   1.00
H900   H     0.65263   0.88024   0.62442   0.00000  Uiso   1.00
H901   H     0.45000   0.85127   0.38570   0.00000  Uiso   1.00
H902   H     0.35859   0.88792   0.36012   0.00000  Uiso   1.00
H903   H     0.43223   0.75196   0.57873   0.00000  Uiso   1.00
H904   H     0.39820   0.66967   0.49631   0.00000  Uiso   1.00
N905   N     0.47827   0.81890   0.49028   0.00000  Uiso   1.00
N906   N     0.52173   0.84777   0.50972   0.00000  Uiso   1.00
O907   O     0.63102   0.91296   0.50238   0.00000  Uiso   1.00
O908   O     0.55439   0.66970   0.61069   0.00000  Uiso   1.00
O909   O     0.39075   0.90371   0.49616   0.00000  Uiso   1.00
O910   O     0.64823   0.84024   0.55587   0.00000  Uiso   1.00
O911   O     0.40796   0.83099   0.54964   0.00000  Uiso   1.00
O912   O     0.60925   0.76296   0.50384   0.00000  Uiso   1.00
O913   O     0.36898   0.75371   0.49762   0.00000  Uiso   1.00
O914   O     0.59204   0.83567   0.45036   0.00000  Uiso   1.00
O915   O     0.35177   0.82642   0.44413   0.00000  Uiso   1.00
O916   O     0.55590   0.90730   0.55984   0.00000  Uiso   1.00
Zn917  Zn    0.60453   0.83951   0.50416   0.00000  Uiso   1.00
Zn918  Zn    0.39547   0.82716   0.49584   0.00000  Uiso   1.00
C919   C     0.68145   0.93148   0.49923   0.00000  Uiso   1.00
C920   C     0.71995   0.83319   0.61131   0.00000  Uiso   1.00
C921   C     0.68922   0.98605   0.49893   0.00000  Uiso   1.00
C922   C     0.70208   0.83473   0.57028   0.00000  Uiso   1.00
C923   C     0.97774   0.68068   0.50173   0.00000  Uiso   1.00
C924   C     0.98531   0.73520   0.50099   0.00000  Uiso   1.00
C925   C     0.96417   0.82918   0.42977   0.00000  Uiso   1.00
C926   C     0.93397   0.75579   0.33527   0.00000  Uiso   1.00
C927   C     0.94388   0.81820   0.38924   0.00000  Uiso   1.00
C928   C     0.69172   0.86183   0.63556   0.00000  Uiso   1.00
C929   C     0.71452   0.86744   0.34111   0.00000  Uiso   1.00
C930   C     0.79851   0.82338   0.66381   0.00000  Uiso   1.00
C931   C     0.76766   0.84826   0.35529   0.00000  Uiso   1.00
C932   C     0.84702   0.88591   0.53790   0.00000  Uiso   1.00
C933   C     0.85977   0.70422   0.59633   0.00000  Uiso   1.00
C934   C     0.89102   0.89969   0.38186   0.00000  Uiso   1.00
C935   C     0.88674   0.93184   0.34709   0.00000  Uiso   1.00
C936   C     0.76984   0.80845   0.62650   0.00000  Uiso   1.00
C937   C     0.85647   0.81180   0.34173   0.00000  Uiso   1.00
C938   C     0.87812   0.77106   0.65433   0.00000  Uiso   1.00
C939   C     0.84359   0.74826   0.61970   0.00000  Uiso   1.00
C940   C     0.79128   0.76905   0.60551   0.00000  Uiso   1.00
C941   C     0.89491   0.84135   0.37177   0.00000  Uiso   1.00
C942   C     0.96466   0.77671   0.37051   0.00000  Uiso   1.00
H943   H     0.67066   0.75992   0.38344   0.00000  Uiso   1.00
H944   H     0.80567   0.89793   0.54070   0.00000  Uiso   1.00
H945   H     0.84373   0.70085   0.56576   0.00000  Uiso   1.00
H946   H     0.88961   0.97415   0.35627   0.00000  Uiso   1.00
H947   H     0.92283   0.92463   0.66570   0.00000  Uiso   1.00
H948   H     0.84497   0.92211   0.66018   0.00000  Uiso   1.00
H949   H     0.85553   0.90728   0.39676   0.00000  Uiso   1.00
H950   H     0.93087   0.91610   0.40213   0.00000  Uiso   1.00
H951   H     0.93546   0.99706   0.50444   0.00000  Uiso   1.00
H952   H     0.82256   0.79198   0.47113   0.00000  Uiso   1.00
H953   H     0.95372   0.72642   0.65400   0.00000  Uiso   1.00
H954   H     0.98597   0.88024   0.62442   0.00000  Uiso   1.00
H955   H     0.78334   0.85127   0.38570   0.00000  Uiso   1.00
H956   H     0.69192   0.88792   0.36012   0.00000  Uiso   1.00
H957   H     0.76556   0.75196   0.57873   0.00000  Uiso   1.00
H958   H     0.73154   0.66967   0.49631   0.00000  Uiso   1.00
N959   N     0.81160   0.81890   0.49028   0.00000  Uiso   1.00
N960   N     0.85507   0.84777   0.50972   0.00000  Uiso   1.00
O961   O     0.96435   0.91296   0.50238   0.00000  Uiso   1.00
O962   O     0.88772   0.66970   0.61069   0.00000  Uiso   1.00
O963   O     0.72408   0.90371   0.49616   0.00000  Uiso   1.00
O964   O     0.98157   0.84024   0.55587   0.00000  Uiso   1.00
O965   O     0.74130   0.83099   0.54964   0.00000  Uiso   1.00
O966   O     0.94258   0.76296   0.50384   0.00000  Uiso   1.00
O967   O     0.70231   0.75371   0.49762   0.00000  Uiso   1.00
O968   O     0.92537   0.83567   0.45036   0.00000  Uiso   1.00
O969   O     0.68510   0.82642   0.44413   0.00000  Uiso   1.00
O970   O     0.88924   0.90730   0.55984   0.00000  Uiso   1.00
Zn971  Zn    0.93786   0.83951   0.50416   0.00000  Uiso   1.00
Zn972  Zn    0.72881   0.82716   0.49584   0.00000  Uiso   1.00
C973   C     0.01478   0.26482   0.83256   0.00000  Uiso   1.00
C974   C     0.05328   0.16653   0.94465   0.00000  Uiso   1.00
C975   C     0.02255   0.31938   0.83227   0.00000  Uiso   1.00
C976   C     0.03541   0.16807   0.90361   0.00000  Uiso   1.00
C977   C     0.31107   0.01401   0.83506   0.00000  Uiso   1.00
C978   C     0.31865   0.06853   0.83432   0.00000  Uiso   1.00
C979   C     0.29751   0.16251   0.76310   0.00000  Uiso   1.00
C980   C     0.26731   0.08912   0.66860   0.00000  Uiso   1.00
C981   C     0.27721   0.15153   0.72257   0.00000  Uiso   1.00
C982   C     0.02506   0.19516   0.96890   0.00000  Uiso   1.00
C983   C     0.04785   0.20077   0.67444   0.00000  Uiso   1.00
C984   C     0.13185   0.15671   0.99714   0.00000  Uiso   1.00
C985   C     0.10099   0.18159   0.68863   0.00000  Uiso   1.00
C986   C     0.18035   0.21924   0.87123   0.00000  Uiso   1.00
C987   C     0.19310   0.03756   0.92966   0.00000  Uiso   1.00
C988   C     0.22435   0.23302   0.71520   0.00000  Uiso   1.00
C989   C     0.22007   0.26518   0.68043   0.00000  Uiso   1.00
C990   C     0.10317   0.14178   0.95983   0.00000  Uiso   1.00
C991   C     0.18981   0.14513   0.67506   0.00000  Uiso   1.00
C992   C     0.21145   0.10439   0.98766   0.00000  Uiso   1.00
C993   C     0.17692   0.08160   0.95304   0.00000  Uiso   1.00
C994   C     0.12461   0.10238   0.93885   0.00000  Uiso   1.00
C995   C     0.22824   0.17469   0.70510   0.00000  Uiso   1.00
C996   C     0.29799   0.11005   0.70384   0.00000  Uiso   1.00
H997   H     0.00400   0.09325   0.71677   0.00000  Uiso   1.00
H998   H     0.13900   0.23127   0.87403   0.00000  Uiso   1.00
H999   H     0.17707   0.03419   0.89909   0.00000  Uiso   1.00
H1000  H     0.22294   0.30748   0.68961   0.00000  Uiso   1.00
H1001  H     0.25617   0.25797   0.99903   0.00000  Uiso   1.00
H1002  H     0.17830   0.25545   0.99352   0.00000  Uiso   1.00
H1003  H     0.18886   0.24061   0.73009   0.00000  Uiso   1.00
H1004  H     0.26421   0.24944   0.73547   0.00000  Uiso   1.00
H1005  H     0.26879   0.33040   0.83778   0.00000  Uiso   1.00
H1006  H     0.15590   0.12532   0.80446   0.00000  Uiso   1.00
H1007  H     0.28705   0.05976   0.98733   0.00000  Uiso   1.00
H1008  H     0.31930   0.21357   0.95776   0.00000  Uiso   1.00
H1009  H     0.11667   0.18461   0.71904   0.00000  Uiso   1.00
H1010  H     0.02525   0.22125   0.69345   0.00000  Uiso   1.00
H1011  H     0.09889   0.08529   0.91206   0.00000  Uiso   1.00
H1012  H     0.06487   0.00301   0.82965   0.00000  Uiso   1.00
N1013  N     0.14493   0.15223   0.82362   0.00000  Uiso   1.00
N1014  N     0.18840   0.18110   0.84305   0.00000  Uiso   1.00
O1015  O     0.29769   0.24629   0.83572   0.00000  Uiso   1.00
O1016  O     0.22106   0.00304   0.94402   0.00000  Uiso   1.00
O1017  O     0.05742   0.23704   0.82949   0.00000  Uiso   1.00
O1018  O     0.31490   0.17358   0.88920   0.00000  Uiso   1.00
O1019  O     0.07463   0.16433   0.88297   0.00000  Uiso   1.00
O1020  O     0.27592   0.09629   0.83718   0.00000  Uiso   1.00
O1021  O     0.03565   0.08704   0.83095   0.00000  Uiso   1.00
O1022  O     0.25870   0.16901   0.78369   0.00000  Uiso   1.00
O1023  O     0.01843   0.15976   0.77747   0.00000  Uiso   1.00
O1024  O     0.22257   0.24063   0.89317   0.00000  Uiso   1.00
Zn1025 Zn    0.27119   0.17284   0.83749   0.00000  Uiso   1.00
Zn1026 Zn    0.06214   0.16049   0.82918   0.00000  Uiso   1.00
C1027  C     0.34811   0.26482   0.83256   0.00000  Uiso   1.00
C1028  C     0.38662   0.16653   0.94465   0.00000  Uiso   1.00
C1029  C     0.35588   0.31938   0.83227   0.00000  Uiso   1.00
C1030  C     0.36874   0.16807   0.90361   0.00000  Uiso   1.00
C1031  C     0.64441   0.01401   0.83506   0.00000  Uiso   1.00
C1032  C     0.65198   0.06853   0.83432   0.00000  Uiso   1.00
C1033  C     0.63084   0.16251   0.76310   0.00000  Uiso   1.00
C1034  C     0.60064   0.08912   0.66860   0.00000  Uiso   1.00
C1035  C     0.61055   0.15153   0.72257   0.00000  Uiso   1.00
C1036  C     0.35839   0.19516   0.96890   0.00000  Uiso   1.00
C1037  C     0.38119   0.20077   0.67444   0.00000  Uiso   1.00
C1038  C     0.46518   0.15671   0.99714   0.00000  Uiso   1.00
C1039  C     0.43432   0.18159   0.68863   0.00000  Uiso   1.00
C1040  C     0.51369   0.21924   0.87123   0.00000  Uiso   1.00
C1041  C     0.52644   0.03756   0.92966   0.00000  Uiso   1.00
C1042  C     0.55768   0.23302   0.71520   0.00000  Uiso   1.00
C1043  C     0.55340   0.26518   0.68043   0.00000  Uiso   1.00
C1044  C     0.43650   0.14178   0.95983   0.00000  Uiso   1.00
C1045  C     0.52314   0.14513   0.67506   0.00000  Uiso   1.00
C1046  C     0.54479   0.10439   0.98766   0.00000  Uiso   1.00
C1047  C     0.51026   0.08160   0.95304   0.00000  Uiso   1.00
C1048  C     0.45794   0.10238   0.93885   0.00000  Uiso   1.00
C1049  C     0.56158   0.17469   0.70510   0.00000  Uiso   1.00
C1050  C     0.63132   0.11005   0.70384   0.00000  Uiso   1.00
H1051  H     0.33733   0.09325   0.71677   0.00000  Uiso   1.00
H1052  H     0.47234   0.23127   0.87403   0.00000  Uiso   1.00
H1053  H     0.51040   0.03419   0.89909   0.00000  Uiso   1.00
H1054  H     0.55628   0.30748   0.68961   0.00000  Uiso   1.00
H1055  H     0.58950   0.25797   0.99903   0.00000  Uiso   1.00
H1056  H     0.51163   0.25545   0.99352   0.00000  Uiso   1.00
H1057  H     0.52219   0.24061   0.73009   0.00000  Uiso   1.00
H1058  H     0.59754   0.24944   0.73547   0.00000  Uiso   1.00
H1059  H     0.60212   0.33040   0.83778   0.00000  Uiso   1.00
H1060  H     0.48923   0.12532   0.80446   0.00000  Uiso   1.00
H1061  H     0.62039   0.05976   0.98733   0.00000  Uiso   1.00
H1062  H     0.65263   0.21357   0.95776   0.00000  Uiso   1.00
H1063  H     0.45000   0.18461   0.71904   0.00000  Uiso   1.00
H1064  H     0.35859   0.22125   0.69345   0.00000  Uiso   1.00
H1065  H     0.43223   0.08529   0.91206   0.00000  Uiso   1.00
H1066  H     0.39820   0.00301   0.82965   0.00000  Uiso   1.00
N1067  N     0.47827   0.15223   0.82362   0.00000  Uiso   1.00
N1068  N     0.52173   0.18110   0.84305   0.00000  Uiso   1.00
O1069  O     0.63102   0.24629   0.83572   0.00000  Uiso   1.00
O1070  O     0.55439   0.00304   0.94402   0.00000  Uiso   1.00
O1071  O     0.39075   0.23704   0.82949   0.00000  Uiso   1.00
O1072  O     0.64823   0.17358   0.88920   0.00000  Uiso   1.00
O1073  O     0.40796   0.16433   0.88297   0.00000  Uiso   1.00
O1074  O     0.60925   0.09629   0.83718   0.00000  Uiso   1.00
O1075  O     0.36898   0.08704   0.83095   0.00000  Uiso   1.00
O1076  O     0.59204   0.16901   0.78369   0.00000  Uiso   1.00
O1077  O     0.35177   0.15976   0.77747   0.00000  Uiso   1.00
O1078  O     0.55590   0.24063   0.89317   0.00000  Uiso   1.00
Zn1079 Zn    0.60453   0.17284   0.83749   0.00000  Uiso   1.00
Zn1080 Zn    0.39547   0.16049   0.82918   0.00000  Uiso   1.00
C1081  C     0.68145   0.26482   0.83256   0.00000  Uiso   1.00
C1082  C     0.71995   0.16653   0.94465   0.00000  Uiso   1.00
C1083  C     0.68922   0.31938   0.83227   0.00000  Uiso   1.00
C1084  C     0.70208   0.16807   0.90361   0.00000  Uiso   1.00
C1085  C     0.97774   0.01401   0.83506   0.00000  Uiso   1.00
C1086  C     0.98531   0.06853   0.83432   0.00000  Uiso   1.00
C1087  C     0.96417   0.16251   0.76310   0.00000  Uiso   1.00
C1088  C     0.93397   0.08912   0.66860   0.00000  Uiso   1.00
C1089  C     0.94388   0.15153   0.72257   0.00000  Uiso   1.00
C1090  C     0.69172   0.19516   0.96890   0.00000  Uiso   1.00
C1091  C     0.71452   0.20077   0.67444   0.00000  Uiso   1.00
C1092  C     0.79851   0.15671   0.99714   0.00000  Uiso   1.00
C1093  C     0.76766   0.18159   0.68863   0.00000  Uiso   1.00
C1094  C     0.84702   0.21924   0.87123   0.00000  Uiso   1.00
C1095  C     0.85977   0.03756   0.92966   0.00000  Uiso   1.00
C1096  C     0.89102   0.23302   0.71520   0.00000  Uiso   1.00
C1097  C     0.88674   0.26518   0.68043   0.00000  Uiso   1.00
C1098  C     0.76984   0.14178   0.95983   0.00000  Uiso   1.00
C1099  C     0.85647   0.14513   0.67506   0.00000  Uiso   1.00
C1100  C     0.87812   0.10439   0.98766   0.00000  Uiso   1.00
C1101  C     0.84359   0.08160   0.95304   0.00000  Uiso   1.00
C1102  C     0.79128   0.10238   0.93885   0.00000  Uiso   1.00
C1103  C     0.89491   0.17469   0.70510   0.00000  Uiso   1.00
C1104  C     0.96466   0.11005   0.70384   0.00000  Uiso   1.00
H1105  H     0.67066   0.09325   0.71677   0.00000  Uiso   1.00
H1106  H     0.80567   0.23127   0.87403   0.00000  Uiso   1.00
H1107  H     0.84373   0.03419   0.89909   0.00000  Uiso   1.00
H1108  H     0.88961   0.30748   0.68961   0.00000  Uiso   1.00
H1109  H     0.92283   0.25797   0.99903   0.00000  Uiso   1.00
H1110  H     0.84497   0.25545   0.99352   0.00000  Uiso   1.00
H1111  H     0.85553   0.24061   0.73009   0.00000  Uiso   1.00
H1112  H     0.93087   0.24944   0.73547   0.00000  Uiso   1.00
H1113  H     0.93546   0.33040   0.83778   0.00000  Uiso   1.00
H1114  H     0.82256   0.12532   0.80446   0.00000  Uiso   1.00
H1115  H     0.95372   0.05976   0.98733   0.00000  Uiso   1.00
H1116  H     0.98597   0.21357   0.95776   0.00000  Uiso   1.00
H1117  H     0.78334   0.18461   0.71904   0.00000  Uiso   1.00
H1118  H     0.69192   0.22125   0.69345   0.00000  Uiso   1.00
H1119  H     0.76556   0.08529   0.91206   0.00000  Uiso   1.00
H1120  H     0.73154   0.00301   0.82965   0.00000  Uiso   1.00
N1121  N     0.81160   0.15223   0.82362   0.00000  Uiso   1.00
N1122  N     0.85507   0.18110   0.84305   0.00000  Uiso   1.00
O1123  O     0.96435   0.24629   0.83572   0.00000  Uiso   1.00
O1124  O     0.88772   0.00304   0.94402   0.00000  Uiso   1.00
O1125  O     0.72408   0.23704   0.82949   0.00000  Uiso   1.00
O1126  O     0.98157   0.17358   0.88920   0.00000  Uiso   1.00
O1127  O     0.74130   0.16433   0.88297   0.00000  Uiso   1.00
O1128  O     0.94258   0.09629   0.83718   0.00000  Uiso   1.00
O1129  O     0.70231   0.08704   0.83095   0.00000  Uiso   1.00
O1130  O     0.92537   0.16901   0.78369   0.00000  Uiso   1.00
O1131  O     0.68510   0.15976   0.77747   0.00000  Uiso   1.00
O1132  O     0.88924   0.24063   0.89317   0.00000  Uiso   1.00
Zn1133 Zn    0.93786   0.17284   0.83749   0.00000  Uiso   1.00
Zn1134 Zn    0.72881   0.16049   0.82918   0.00000  Uiso   1.00
C1135  C     0.01478   0.59815   0.83256   0.00000  Uiso   1.00
C1136  C     0.05328   0.49986   0.94465   0.00000  Uiso   1.00
C1137  C     0.02255   0.65272   0.83227   0.00000  Uiso   1.00
C1138  C     0.03541   0.50140   0.90361   0.00000  Uiso   1.00
C1139  C     0.31107   0.34735   0.83506   0.00000  Uiso   1.00
C1140  C     0.31865   0.40187   0.83432   0.00000  Uiso   1.00
C1141  C     0.29751   0.49585   0.76310   0.00000  Uiso   1.00
C1142  C     0.26731   0.42246   0.66860   0.00000  Uiso   1.00
C1143  C     0.27721   0.48486   0.72257   0.00000  Uiso   1.00
C1144  C     0.02506   0.52850   0.96890   0.00000  Uiso   1.00
C1145  C     0.04785   0.53410   0.67444   0.00000  Uiso   1.00
C1146  C     0.13185   0.49005   0.99714   0.00000  Uiso   1.00
C1147  C     0.10099   0.51492   0.68863   0.00000  Uiso   1.00
C1148  C     0.18035   0.55257   0.87123   0.00000  Uiso   1.00
C1149  C     0.19310   0.37089   0.92966   0.00000  Uiso   1.00
C1150  C     0.22435   0.56635   0.71520   0.00000  Uiso   1.00
C1151  C     0.22007   0.59851   0.68043   0.00000  Uiso   1.00
C1152  C     0.10317   0.47512   0.95983   0.00000  Uiso   1.00
C1153  C     0.18981   0.47847   0.67506   0.00000  Uiso   1.00
C1154  C     0.21145   0.43772   0.98766   0.00000  Uiso   1.00
C1155  C     0.17692   0.41493   0.95304   0.00000  Uiso   1.00
C1156  C     0.12461   0.43571   0.93885   0.00000  Uiso   1.00
C1157  C     0.22824   0.50802   0.70510   0.00000  Uiso   1.00
C1158  C     0.29799   0.44338   0.70384   0.00000  Uiso   1.00
H1159  H     0.00400   0.42658   0.71677   0.00000  Uiso   1.00
H1160  H     0.13900   0.56460   0.87403   0.00000  Uiso   1.00
H1161  H     0.17707   0.36752   0.89909   0.00000  Uiso   1.00
H1162  H     0.22294   0.64082   0.68961   0.00000  Uiso   1.00
H1163  H     0.25617   0.59130   0.99903   0.00000  Uiso   1.00
H1164  H     0.17830   0.58878   0.99352   0.00000  Uiso   1.00
H1165  H     0.18886   0.57395   0.73009   0.00000  Uiso   1.00
H1166  H     0.26421   0.58277   0.73547   0.00000  Uiso   1.00
H1167  H     0.26879   0.66373   0.83778   0.00000  Uiso   1.00
H1168  H     0.15590   0.45865   0.80446   0.00000  Uiso   1.00
H1169  H     0.28705   0.39309   0.98733   0.00000  Uiso   1.00
H1170  H     0.31930   0.54690   0.95776   0.00000  Uiso   1.00
H1171  H     0.11667   0.51794   0.71904   0.00000  Uiso   1.00
H1172  H     0.02525   0.55459   0.69345   0.00000  Uiso   1.00
H1173  H     0.09889   0.41863   0.91206   0.00000  Uiso   1.00
H1174  H     0.06487   0.33634   0.82965   0.00000  Uiso   1.00
N1175  N     0.14493   0.48556   0.82362   0.00000  Uiso   1.00
N1176  N     0.18840   0.51444   0.84305   0.00000  Uiso   1.00
O1177  O     0.29769   0.57963   0.83572   0.00000  Uiso   1.00
O1178  O     0.22106   0.33637   0.94402   0.00000  Uiso   1.00
O1179  O     0.05742   0.57038   0.82949   0.00000  Uiso   1.00
O1180  O     0.31490   0.50691   0.88920   0.00000  Uiso   1.00
O1181  O     0.07463   0.49766   0.88297   0.00000  Uiso   1.00
O1182  O     0.27592   0.42962   0.83718   0.00000  Uiso   1.00
O1183  O     0.03565   0.42037   0.83095   0.00000  Uiso   1.00
O1184  O     0.25870   0.50234   0.78369   0.00000  Uiso   1.00
O1185  O     0.01843   0.49309   0.77747   0.00000  Uiso   1.00
O1186  O     0.22257   0.57397   0.89317   0.00000  Uiso   1.00
Zn1187 Zn    0.27119   0.50618   0.83749   0.00000  Uiso   1.00
Zn1188 Zn    0.06214   0.49382   0.82918   0.00000  Uiso   1.00
C1189  C     0.34811   0.59815   0.83256   0.00000  Uiso   1.00
C1190  C     0.38662   0.49986   0.94465   0.00000  Uiso   1.00
C1191  C     0.35588   0.65272   0.83227   0.00000  Uiso   1.00
C1192  C     0.36874   0.50140   0.90361   0.00000  Uiso   1.00
C1193  C     0.64441   0.34735   0.83506   0.00000  Uiso   1.00
C1194  C     0.65198   0.40187   0.83432   0.00000  Uiso   1.00
C1195  C     0.63084   0.49585   0.76310   0.00000  Uiso   1.00
C1196  C     0.60064   0.42246   0.66860   0.00000  Uiso   1.00
C1197  C     0.61055   0.48486   0.72257   0.00000  Uiso   1.00
C1198  C     0.35839   0.52850   0.96890   0.00000  Uiso   1.00
C1199  C     0.38119   0.53410   0.67444   0.00000  Uiso   1.00
C1200  C     0.46518   0.49005   0.99714   0.00000  Uiso   1.00
C1201  C     0.43432   0.51492   0.68863   0.00000  Uiso   1.00
C1202  C     0.51369   0.55257   0.87123   0.00000  Uiso   1.00
C1203  C     0.52644   0.37089   0.92966   0.00000  Uiso   1.00
C1204  C     0.55768   0.56635   0.71520   0.00000  Uiso   1.00
C1205  C     0.55340   0.59851   0.68043   0.00000  Uiso   1.00
C1206  C     0.43650   0.47512   0.95983   0.00000  Uiso   1.00
C1207  C     0.52314   0.47847   0.67506   0.00000  Uiso   1.00
C1208  C     0.54479   0.43772   0.98766   0.00000  Uiso   1.00
C1209  C     0.51026   0.41493   0.95304   0.00000  Uiso   1.00
C1210  C     0.45794   0.43571   0.93885   0.00000  Uiso   1.00
C1211  C     0.56158   0.50802   0.70510   0.00000  Uiso   1.00
C1212  C     0.63132   0.44338   0.70384   0.00000  Uiso   1.00
H1213  H     0.33733   0.42658   0.71677   0.00000  Uiso   1.00
H1214  H     0.47234   0.56460   0.87403   0.00000  Uiso   1.00
H1215  H     0.51040   0.36752   0.89909   0.00000  Uiso   1.00
H1216  H     0.55628   0.64082   0.68961   0.00000  Uiso   1.00
H1217  H     0.58950   0.59130   0.99903   0.00000  Uiso   1.00
H1218  H     0.51163   0.58878   0.99352   0.00000  Uiso   1.00
H1219  H     0.52219   0.57395   0.73009   0.00000  Uiso   1.00
H1220  H     0.59754   0.58277   0.73547   0.00000  Uiso   1.00
H1221  H     0.60212   0.66373   0.83778   0.00000  Uiso   1.00
H1222  H     0.48923   0.45865   0.80446   0.00000  Uiso   1.00
H1223  H     0.62039   0.39309   0.98733   0.00000  Uiso   1.00
H1224  H     0.65263   0.54690   0.95776   0.00000  Uiso   1.00
H1225  H     0.45000   0.51794   0.71904   0.00000  Uiso   1.00
H1226  H     0.35859   0.55459   0.69345   0.00000  Uiso   1.00
H1227  H     0.43223   0.41863   0.91206   0.00000  Uiso   1.00
H1228  H     0.39820   0.33634   0.82965   0.00000  Uiso   1.00
N1229  N     0.47827   0.48556   0.82362   0.00000  Uiso   1.00
N1230  N     0.52173   0.51444   0.84305   0.00000  Uiso   1.00
O1231  O     0.63102   0.57963   0.83572   0.00000  Uiso   1.00
O1232  O     0.55439   0.33637   0.94402   0.00000  Uiso   1.00
O1233  O     0.39075   0.57038   0.82949   0.00000  Uiso   1.00
O1234  O     0.64823   0.50691   0.88920   0.00000  Uiso   1.00
O1235  O     0.40796   0.49766   0.88297   0.00000  Uiso   1.00
O1236  O     0.60925   0.42962   0.83718   0.00000  Uiso   1.00
O1237  O     0.36898   0.42037   0.83095   0.00000  Uiso   1.00
O1238  O     0.59204   0.50234   0.78369   0.00000  Uiso   1.00
O1239  O     0.35177   0.49309   0.77747   0.00000  Uiso   1.00
O1240  O     0.55590   0.57397   0.89317   0.00000  Uiso   1.00
Zn1241 Zn    0.60453   0.50618   0.83749   0.00000  Uiso   1.00
Zn1242 Zn    0.39547   0.49382   0.82918   0.00000  Uiso   1.00
C1243  C     0.68145   0.59815   0.83256   0.00000  Uiso   1.00
C1244  C     0.71995   0.49986   0.94465   0.00000  Uiso   1.00
C1245  C     0.68922   0.65272   0.83227   0.00000  Uiso   1.00
C1246  C     0.70208   0.50140   0.90361   0.00000  Uiso   1.00
C1247  C     0.97774   0.34735   0.83506   0.00000  Uiso   1.00
C1248  C     0.98531   0.40187   0.83432   0.00000  Uiso   1.00
C1249  C     0.96417   0.49585   0.76310   0.00000  Uiso   1.00
C1250  C     0.93397   0.42246   0.66860   0.00000  Uiso   1.00
C1251  C     0.94388   0.48486   0.72257   0.00000  Uiso   1.00
C1252  C     0.69172   0.52850   0.96890   0.00000  Uiso   1.00
C1253  C     0.71452   0.53410   0.67444   0.00000  Uiso   1.00
C1254  C     0.79851   0.49005   0.99714   0.00000  Uiso   1.00
C1255  C     0.76766   0.51492   0.68863   0.00000  Uiso   1.00
C1256  C     0.84702   0.55257   0.87123   0.00000  Uiso   1.00
C1257  C     0.85977   0.37089   0.92966   0.00000  Uiso   1.00
C1258  C     0.89102   0.56635   0.71520   0.00000  Uiso   1.00
C1259  C     0.88674   0.59851   0.68043   0.00000  Uiso   1.00
C1260  C     0.76984   0.47512   0.95983   0.00000  Uiso   1.00
C1261  C     0.85647   0.47847   0.67506   0.00000  Uiso   1.00
C1262  C     0.87812   0.43772   0.98766   0.00000  Uiso   1.00
C1263  C     0.84359   0.41493   0.95304   0.00000  Uiso   1.00
C1264  C     0.79128   0.43571   0.93885   0.00000  Uiso   1.00
C1265  C     0.89491   0.50802   0.70510   0.00000  Uiso   1.00
C1266  C     0.96466   0.44338   0.70384   0.00000  Uiso   1.00
H1267  H     0.67066   0.42658   0.71677   0.00000  Uiso   1.00
H1268  H     0.80567   0.56460   0.87403   0.00000  Uiso   1.00
H1269  H     0.84373   0.36752   0.89909   0.00000  Uiso   1.00
H1270  H     0.88961   0.64082   0.68961   0.00000  Uiso   1.00
H1271  H     0.92283   0.59130   0.99903   0.00000  Uiso   1.00
H1272  H     0.84497   0.58878   0.99352   0.00000  Uiso   1.00
H1273  H     0.85553   0.57395   0.73009   0.00000  Uiso   1.00
H1274  H     0.93087   0.58277   0.73547   0.00000  Uiso   1.00
H1275  H     0.93546   0.66373   0.83778   0.00000  Uiso   1.00
H1276  H     0.82256   0.45865   0.80446   0.00000  Uiso   1.00
H1277  H     0.95372   0.39309   0.98733   0.00000  Uiso   1.00
H1278  H     0.98597   0.54690   0.95776   0.00000  Uiso   1.00
H1279  H     0.78334   0.51794   0.71904   0.00000  Uiso   1.00
H1280  H     0.69192   0.55459   0.69345   0.00000  Uiso   1.00
H1281  H     0.76556   0.41863   0.91206   0.00000  Uiso   1.00
H1282  H     0.73154   0.33634   0.82965   0.00000  Uiso   1.00
N1283  N     0.81160   0.48556   0.82362   0.00000  Uiso   1.00
N1284  N     0.85507   0.51444   0.84305   0.00000  Uiso   1.00
O1285  O     0.96435   0.57963   0.83572   0.00000  Uiso   1.00
O1286  O     0.88772   0.33637   0.94402   0.00000  Uiso   1.00
O1287  O     0.72408   0.57038   0.82949   0.00000  Uiso   1.00
O1288  O     0.98157   0.50691   0.88920   0.00000  Uiso   1.00
O1289  O     0.74130   0.49766   0.88297   0.00000  Uiso   1.00
O1290  O     0.94258   0.42962   0.83718   0.00000  Uiso   1.00
O1291  O     0.70231   0.42037   0.83095   0.00000  Uiso   1.00
O1292  O     0.92537   0.50234   0.78369   0.00000  Uiso   1.00
O1293  O     0.68510   0.49309   0.77747   0.00000  Uiso   1.00
O1294  O     0.88924   0.57397   0.89317   0.00000  Uiso   1.00
Zn1295 Zn    0.93786   0.50618   0.83749   0.00000  Uiso   1.00
Zn1296 Zn    0.72881   0.49382   0.82918   0.00000  Uiso   1.00
C1297  C     0.01478   0.93148   0.83256   0.00000  Uiso   1.00
C1298  C     0.05328   0.83319   0.94465   0.00000  Uiso   1.00
C1299  C     0.02255   0.98605   0.83227   0.00000  Uiso   1.00
C1300  C     0.03541   0.83473   0.90361   0.00000  Uiso   1.00
C1301  C     0.31107   0.68068   0.83506   0.00000  Uiso   1.00
C1302  C     0.31865   0.73520   0.83432   0.00000  Uiso   1.00
C1303  C     0.29751   0.82918   0.76310   0.00000  Uiso   1.00
C1304  C     0.26731   0.75579   0.66860   0.00000  Uiso   1.00
C1305  C     0.27721   0.81820   0.72257   0.00000  Uiso   1.00
C1306  C     0.02506   0.86183   0.96890   0.00000  Uiso   1.00
C1307  C     0.04785   0.86744   0.67444   0.00000  Uiso   1.00
C1308  C     0.13185   0.82338   0.99714   0.00000  Uiso   1.00
C1309  C     0.10099   0.84826   0.68863   0.00000  Uiso   1.00
C1310  C     0.18035   0.88591   0.87123   0.00000  Uiso   1.00
C1311  C     0.19310   0.70422   0.92966   0.00000  Uiso   1.00
C1312  C     0.22435   0.89969   0.71520   0.00000  Uiso   1.00
C1313  C     0.22007   0.93184   0.68043   0.00000  Uiso   1.00
C1314  C     0.10317   0.80845   0.95983   0.00000  Uiso   1.00
C1315  C     0.18981   0.81180   0.67506   0.00000  Uiso   1.00
C1316  C     0.21145   0.77106   0.98766   0.00000  Uiso   1.00
C1317  C     0.17692   0.74826   0.95304   0.00000  Uiso   1.00
C1318  C     0.12461   0.76905   0.93885   0.00000  Uiso   1.00
C1319  C     0.22824   0.84135   0.70510   0.00000  Uiso   1.00
C1320  C     0.29799   0.77671   0.70384   0.00000  Uiso   1.00
H1321  H     0.00400   0.75992   0.71677   0.00000  Uiso   1.00
H1322  H     0.13900   0.89793   0.87403   0.00000  Uiso   1.00
H1323  H     0.17707   0.70085   0.89909   0.00000  Uiso   1.00
H1324  H     0.22294   0.97415   0.68961   0.00000  Uiso   1.00
H1325  H     0.25617   0.92463   0.99903   0.00000  Uiso   1.00
H1326  H     0.17830   0.92211   0.99352   0.00000  Uiso   1.00
H1327  H     0.18886   0.90728   0.73009   0.00000  Uiso   1.00
H1328  H     0.26421   0.91610   0.73547   0.00000  Uiso   1.00
H1329  H     0.26879   0.99706   0.83778   0.00000  Uiso   1.00
H1330  H     0.15590   0.79198   0.80446   0.00000  Uiso   1.00
H1331  H     0.28705   0.72642   0.98733   0.00000  Uiso   1.00
H1332  H     0.31930   0.88024   0.95776   0.00000  Uiso   1.00
H1333  H     0.11667   0.85127   0.71904   0.00000  Uiso   1.00
H1334  H     0.02525   0.88792   0.69345   0.00000  Uiso   1.00
H1335  H     0.09889   0.75196   0.91206   0.00000  Uiso   1.00
H1336  H     0.06487   0.66967   0.82965   0.00000  Uiso   1.00
N1337  N     0.14493   0.81890   0.82362   0.00000  Uiso   1.00
N1338  N     0.18840   0.84777   0.84305   0.00000  Uiso   1.00
O1339  O     0.29769   0.91296   0.83572   0.00000  Uiso   1.00
O1340  O     0.22106   0.66970   0.94402   0.00000  Uiso   1.00
O1341  O     0.05742   0.90371   0.82949   0.00000  Uiso   1.00
O1342  O     0.31490   0.84024   0.88920   0.00000  Uiso   1.00
O1343  O     0.07463   0.83099   0.88297   0.00000  Uiso   1.00
O1344  O     0.27592   0.76296   0.83718   0.00000  Uiso   1.00
O1345  O     0.03565   0.75371   0.83095   0.00000  Uiso   1.00
O1346  O     0.25870   0.83567   0.78369   0.00000  Uiso   1.00
O1347  O     0.01843   0.82642   0.77747   0.00000  Uiso   1.00
O1348  O     0.22257   0.90730   0.89317   0.00000  Uiso   1.00
Zn1349 Zn    0.27119   0.83951   0.83749   0.00000  Uiso   1.00
Zn1350 Zn    0.06214   0.82716   0.82918   0.00000  Uiso   1.00
C1351  C     0.34811   0.93148   0.83256   0.00000  Uiso   1.00
C1352  C     0.38662   0.83319   0.94465   0.00000  Uiso   1.00
C1353  C     0.35588   0.98605   0.83227   0.00000  Uiso   1.00
C1354  C     0.36874   0.83473   0.90361   0.00000  Uiso   1.00
C1355  C     0.64441   0.68068   0.83506   0.00000  Uiso   1.00
C1356  C     0.65198   0.73520   0.83432   0.00000  Uiso   1.00
C1357  C     0.63084   0.82918   0.76310   0.00000  Uiso   1.00
C1358  C     0.60064   0.75579   0.66860   0.00000  Uiso   1.00
C1359  C     0.61055   0.81820   0.72257   0.00000  Uiso   1.00
C1360  C     0.35839   0.86183   0.96890   0.00000  Uiso   1.00
C1361  C     0.38119   0.86744   0.67444   0.00000  Uiso   1.00
C1362  C     0.46518   0.82338   0.99714   0.00000  Uiso   1.00
C1363  C     0.43432   0.84826   0.68863   0.00000  Uiso   1.00
C1364  C     0.51369   0.88591   0.87123   0.00000  Uiso   1.00
C1365  C     0.52644   0.70422   0.92966   0.00000  Uiso   1.00
C1366  C     0.55768   0.89969   0.71520   0.00000  Uiso   1.00
C1367  C     0.55340   0.93184   0.68043   0.00000  Uiso   1.00
C1368  C     0.43650   0.80845   0.95983   0.00000  Uiso   1.00
C1369  C     0.52314   0.81180   0.67506   0.00000  Uiso   1.00
C1370  C     0.54479   0.77106   0.98766   0.00000  Uiso   1.00
C1371  C     0.51026   0.74826   0.95304   0.00000  Uiso   1.00
C1372  C     0.45794   0.76905   0.93885   0.00000  Uiso   1.00
C1373  C     0.56158   0.84135   0.70510   0.00000  Uiso   1.00
C1374  C     0.63132   0.77671   0.70384   0.00000  Uiso   1.00
H1375  H     0.33733   0.75992   0.71677   0.00000  Uiso   1.00
H1376  H     0.47234   0.89793   0.87403   0.00000  Uiso   1.00
H1377  H     0.51040   0.70085   0.89909   0.00000  Uiso   1.00
H1378  H     0.55628   0.97415   0.68961   0.00000  Uiso   1.00
H1379  H     0.58950   0.92463   0.99903   0.00000  Uiso   1.00
H1380  H     0.51163   0.92211   0.99352   0.00000  Uiso   1.00
H1381  H     0.52219   0.90728   0.73009   0.00000  Uiso   1.00
H1382  H     0.59754   0.91610   0.73547   0.00000  Uiso   1.00
H1383  H     0.60212   0.99706   0.83778   0.00000  Uiso   1.00
H1384  H     0.48923   0.79198   0.80446   0.00000  Uiso   1.00
H1385  H     0.62039   0.72642   0.98733   0.00000  Uiso   1.00
H1386  H     0.65263   0.88024   0.95776   0.00000  Uiso   1.00
H1387  H     0.45000   0.85127   0.71904   0.00000  Uiso   1.00
H1388  H     0.35859   0.88792   0.69345   0.00000  Uiso   1.00
H1389  H     0.43223   0.75196   0.91206   0.00000  Uiso   1.00
H1390  H     0.39820   0.66967   0.82965   0.00000  Uiso   1.00
N1391  N     0.47827   0.81890   0.82362   0.00000  Uiso   1.00
N1392  N     0.52173   0.84777   0.84305   0.00000  Uiso   1.00
O1393  O     0.63102   0.91296   0.83572   0.00000  Uiso   1.00
O1394  O     0.55439   0.66970   0.94402   0.00000  Uiso   1.00
O1395  O     0.39075   0.90371   0.82949   0.00000  Uiso   1.00
O1396  O     0.64823   0.84024   0.88920   0.00000  Uiso   1.00
O1397  O     0.40796   0.83099   0.88297   0.00000  Uiso   1.00
O1398  O     0.60925   0.76296   0.83718   0.00000  Uiso   1.00
O1399  O     0.36898   0.75371   0.83095   0.00000  Uiso   1.00
O1400  O     0.59204   0.83567   0.78369   0.00000  Uiso   1.00
O1401  O     0.35177   0.82642   0.77747   0.00000  Uiso   1.00
O1402  O     0.55590   0.90730   0.89317   0.00000  Uiso   1.00
Zn1403 Zn    0.60453   0.83951   0.83749   0.00000  Uiso   1.00
Zn1404 Zn    0.39547   0.82716   0.82918   0.00000  Uiso   1.00
C1405  C     0.68145   0.93148   0.83256   0.00000  Uiso   1.00
C1406  C     0.71995   0.83319   0.94465   0.00000  Uiso   1.00
C1407  C     0.68922   0.98605   0.83227   0.00000  Uiso   1.00
C1408  C     0.70208   0.83473   0.90361   0.00000  Uiso   1.00
C1409  C     0.97774   0.68068   0.83506   0.00000  Uiso   1.00
C1410  C     0.98531   0.73520   0.83432   0.00000  Uiso   1.00
C1411  C     0.96417   0.82918   0.76310   0.00000  Uiso   1.00
C1412  C     0.93397   0.75579   0.66860   0.00000  Uiso   1.00
C1413  C     0.94388   0.81820   0.72257   0.00000  Uiso   1.00
C1414  C     0.69172   0.86183   0.96890   0.00000  Uiso   1.00
C1415  C     0.71452   0.86744   0.67444   0.00000  Uiso   1.00
C1416  C     0.79851   0.82338   0.99714   0.00000  Uiso   1.00
C1417  C     0.76766   0.84826   0.68863   0.00000  Uiso   1.00
C1418  C     0.84702   0.88591   0.87123   0.00000  Uiso   1.00
C1419  C     0.85977   0.70422   0.92966   0.00000  Uiso   1.00
C1420  C     0.89102   0.89969   0.71520   0.00000  Uiso   1.00
C1421  C     0.88674   0.93184   0.68043   0.00000  Uiso   1.00
C1422  C     0.76984   0.80845   0.95983   0.00000  Uiso   1.00
C1423  C     0.85647   0.81180   0.67506   0.00000  Uiso   1.00
C1424  C     0.87812   0.77106   0.98766   0.00000  Uiso   1.00
C1425  C     0.84359   0.74826   0.95304   0.00000  Uiso   1.00
C1426  C     0.79128   0.76905   0.93885   0.00000  Uiso   1.00
C1427  C     0.89491   0.84135   0.70510   0.00000  Uiso   1.00
C1428  C     0.96466   0.77671   0.70384   0.00000  Uiso   1.00
H1429  H     0.67066   0.75992   0.71677   0.00000  Uiso   1.00
H1430  H     0.80567   0.89793   0.87403   0.00000  Uiso   1.00
H1431  H     0.84373   0.70085   0.89909   0.00000  Uiso   1.00
H1432  H     0.88961   0.97415   0.68961   0.00000  Uiso   1.00
H1433  H     0.92283   0.92463   0.99903   0.00000  Uiso   1.00
H1434  H     0.84497   0.92211   0.99352   0.00000  Uiso   1.00
H1435  H     0.85553   0.90728   0.73009   0.00000  Uiso   1.00
H1436  H     0.93087   0.91610   0.73547   0.00000  Uiso   1.00
H1437  H     0.93546   0.99706   0.83778   0.00000  Uiso   1.00
H1438  H     0.82256   0.79198   0.80446   0.00000  Uiso   1.00
H1439  H     0.95372   0.72642   0.98733   0.00000  Uiso   1.00
H1440  H     0.98597   0.88024   0.95776   0.00000  Uiso   1.00
H1441  H     0.78334   0.85127   0.71904   0.00000  Uiso   1.00
H1442  H     0.69192   0.88792   0.69345   0.00000  Uiso   1.00
H1443  H     0.76556   0.75196   0.91206   0.00000  Uiso   1.00
H1444  H     0.73154   0.66967   0.82965   0.00000  Uiso   1.00
N1445  N     0.81160   0.81890   0.82362   0.00000  Uiso   1.00
N1446  N     0.85507   0.84777   0.84305   0.00000  Uiso   1.00
O1447  O     0.96435   0.91296   0.83572   0.00000  Uiso   1.00
O1448  O     0.88772   0.66970   0.94402   0.00000  Uiso   1.00
O1449  O     0.72408   0.90371   0.82949   0.00000  Uiso   1.00
O1450  O     0.98157   0.84024   0.88920   0.00000  Uiso   1.00
O1451  O     0.74130   0.83099   0.88297   0.00000  Uiso   1.00
O1452  O     0.94258   0.76296   0.83718   0.00000  Uiso   1.00
O1453  O     0.70231   0.75371   0.83095   0.00000  Uiso   1.00
O1454  O     0.92537   0.83567   0.78369   0.00000  Uiso   1.00
O1455  O     0.68510   0.82642   0.77747   0.00000  Uiso   1.00
O1456  O     0.88924   0.90730   0.89317   0.00000  Uiso   1.00
Zn1457 Zn    0.93786   0.83951   0.83749   0.00000  Uiso   1.00
Zn1458 Zn    0.72881   0.82716   0.82918   0.00000  Uiso   1.00
loop_
_geom_bond_atom_site_label_1
_geom_bond_atom_site_label_2
_geom_bond_distance
_geom_bond_site_symmetry_2
_ccdc_geom_bond_type
C1     O45     1.292   .     A
C1     C3      1.402   .     S
C1     O151    1.282   1_455 S
C2     C4      1.456   .     S
C2     C18     1.407   .     A
C2     C10     1.404   .     A
C3     C275    1.336   1_455 S
C3     H202    1.088   .     S
C4     O47     1.303   .     A
C4     O154    1.297   1_455 S
C5     C6      1.402   .     S
C5     C381    1.336   1_545 S
C5     H357    1.088   1_545 S
C6     O48     1.292   .     A
C6     O103    1.283   .     S
C7     C9      1.446   .     S
C7     O50     1.302   .     A
C7     O105    1.293   .     S
C8     C24     1.388   .     A
C8     C992    1.410   1_554 S
C8     H1007   1.078   1_554 S
C9     C24     1.396   .     A
C9     C23     1.392   .     A
C10    C497    1.391   .     S
C10    H144    1.083   1_455 S
C11    H38     1.082   .     S
C11    C13     1.393   .     A
C11    C982    1.391   1_554 S
C12    C18     1.397   .     A
C12    C499    1.412   .     S
C12    C505    1.407   .     S
C13    H37     1.080   .     S
C13    C984    1.412   1_554 S
C14    N42     1.418   .     S
C14    H26     1.067   .     S
C14    O52     1.219   .     D
C15    C21     1.486   .     S
C15    O44     1.219   .     D
C15    H27     1.086   .     S
C16    H32     1.112   .     S
C16    H31     1.103   .     S
C16    C23     1.534   .     S
C16    C17     1.529   .     S
C17    H28     1.111   .     S
C17    H1001   1.110   1_554 S
C17    H1002   1.109   1_554 S
C18    C22     1.408   .     A
C19    C23     1.412   .     A
C19    C984    1.407   1_554 S
C19    C992    1.431   1_554 S
C20    C21     1.418   .     A
C20    C494    1.410   .     S
C20    C505    1.431   .     S
C21    C22     1.395   .     A
C22    H39     1.083   .     S
C24    H79     1.084   .     S
H25    C132    1.084   1_455 S
H29    C503    1.110   .     S
H30    C503    1.109   .     S
H33    C167    1.088   .     S
H34    N41     1.029   .     S
H35    C494    1.078   .     S
H36    C64     1.083   .     S
H40    C327    1.088   1_545 S
N41    N42     1.284   .     D
N41    Zn54    2.031   .     S
N42    Zn53    2.031   .     S
O43    Zn53    1.956   .     S
O43    C55     1.282   .     S
O45    Zn54    1.976   .     S
O46    Zn53    1.939   .     S
O46    C58     1.297   .     S
O47    Zn54    1.894   .     S
O48    Zn53    1.976   .     S
O49    Zn54    1.956   .     S
O49    C114    1.283   1_455 S
O50    Zn53    1.894   .     S
O51    Zn54    1.939   .     S
O51    C115    1.293   1_455 S
C55    O99     1.292   .     A
C55    C57     1.402   .     S
C56    C58     1.456   .     S
C56    C72     1.407   .     A
C56    C64     1.404   .     A
C57    C167    1.336   .     S
C57    H256    1.088   .     S
C58    O101    1.303   .     A
C59    C60     1.402   .     S
C59    C435    1.336   1_545 S
C59    H411    1.088   1_545 S
C60    O102    1.292   .     A
C60    O157    1.283   .     S
C61    C63     1.446   .     S
C61    O104    1.302   .     A
C61    O159    1.293   .     S
C62    C78     1.388   .     A
C62    C1046   1.410   1_554 S
C62    H1061   1.078   1_554 S
C63    C78     1.396   .     A
C63    C77     1.392   .     A
C64    C551    1.391   .     S
C65    H92     1.082   .     S
C65    C67     1.393   .     A
C65    C1036   1.391   1_554 S
C66    C72     1.397   .     A
C66    C553    1.412   .     S
C66    C559    1.407   .     S
C67    H91     1.080   .     S
C67    C1038   1.412   1_554 S
C68    N96     1.418   .     S
C68    H80     1.067   .     S
C68    O106    1.219   .     D
C69    C75     1.486   .     S
C69    O98     1.219   .     D
C69    H81     1.086   .     S
C70    H86     1.112   .     S
C70    H85     1.103   .     S
C70    C77     1.534   .     S
C70    C71     1.529   .     S
C71    H82     1.111   .     S
C71    H1055   1.110   1_554 S
C71    H1056   1.109   1_554 S
C72    C76     1.408   .     A
C73    C77     1.412   .     A
C73    C1038   1.407   1_554 S
C73    C1046   1.431   1_554 S
C74    C75     1.418   .     A
C74    C548    1.410   .     S
C74    C559    1.431   .     S
C75    C76     1.395   .     A
C76    H93     1.083   .     S
C78    H133    1.084   .     S
H83    C557    1.110   .     S
H84    C557    1.109   .     S
H87    C221    1.088   .     S
H88    N95     1.029   .     S
H89    C548    1.078   .     S
H90    C118    1.083   .     S
H94    C381    1.088   1_545 S
N95    N96     1.284   .     D
N95    Zn108   2.031   .     S
N96    Zn107   2.031   .     S
O97    Zn107   1.956   .     S
O97    C109    1.282   .     S
O99    Zn108   1.976   .     S
O100   Zn107   1.939   .     S
O100   C112    1.297   .     S
O101   Zn108   1.894   .     S
O102   Zn107   1.976   .     S
O103   Zn108   1.956   .     S
O104   Zn107   1.894   .     S
O105   Zn108   1.939   .     S
C109   O153    1.292   .     A
C109   C111    1.402   .     S
C110   C112    1.456   .     S
C110   C126    1.407   .     A
C110   C118    1.404   .     A
C111   C221    1.336   .     S
C111   H310    1.088   .     S
C112   O155    1.303   .     A
C113   C114    1.402   .     S
C113   C327    1.336   1_645 S
C113   H465    1.088   1_545 S
C114   O156    1.292   .     A
C114   O49     1.283   1_655 S
C115   C117    1.446   .     S
C115   O158    1.302   .     A
C115   O51     1.293   1_655 S
C116   C132    1.388   .     A
C116   C1100   1.410   1_554 S
C116   H1115   1.078   1_554 S
C117   C132    1.396   .     A
C117   C131    1.392   .     A
C118   C605    1.391   .     S
C119   H146    1.082   .     S
C119   C121    1.393   .     A
C119   C1090   1.391   1_554 S
C120   C126    1.397   .     A
C120   C607    1.412   .     S
C120   C613    1.407   .     S
C121   H145    1.080   .     S
C121   C1092   1.412   1_554 S
C122   N150    1.418   .     S
C122   H134    1.067   .     S
C122   O160    1.219   .     D
C123   C129    1.486   .     S
C123   O152    1.219   .     D
C123   H135    1.086   .     S
C124   H140    1.112   .     S
C124   H139    1.103   .     S
C124   C131    1.534   .     S
C124   C125    1.529   .     S
C125   H136    1.111   .     S
C125   H1109   1.110   1_554 S
C125   H1110   1.109   1_554 S
C126   C130    1.408   .     A
C127   C131    1.412   .     A
C127   C1092   1.407   1_554 S
C127   C1100   1.431   1_554 S
C128   C129    1.418   .     A
C128   C602    1.410   .     S
C128   C613    1.431   .     S
C129   C130    1.395   .     A
C130   H147    1.083   .     S
C132   H25     1.084   1_655 S
H137   C611    1.110   .     S
H138   C611    1.109   .     S
H141   C275    1.088   .     S
H142   N149    1.029   .     S
H143   C602    1.078   .     S
H144   C10     1.083   1_655 S
H148   C435    1.088   1_545 S
N149   N150    1.284   .     D
N149   Zn162   2.031   .     S
N150   Zn161   2.031   .     S
O151   Zn161   1.956   .     S
O151   C1      1.282   1_655 S
O153   Zn162   1.976   .     S
O154   Zn161   1.939   .     S
O154   C4      1.297   1_655 S
O155   Zn162   1.894   .     S
O156   Zn161   1.976   .     S
O157   Zn162   1.956   .     S
O158   Zn161   1.894   .     S
O159   Zn162   1.939   .     S
C163   O207    1.292   .     A
C163   C165    1.402   .     S
C163   O313    1.282   1_455 S
C164   C166    1.456   .     S
C164   C180    1.407   .     A
C164   C172    1.404   .     A
C165   C437    1.336   1_455 S
C165   H364    1.088   .     S
C166   O209    1.303   .     A
C166   O316    1.297   1_455 S
C167   C168    1.402   .     S
C168   O210    1.292   .     A
C168   O265    1.283   .     S
C169   C171    1.446   .     S
C169   O212    1.302   .     A
C169   O267    1.293   .     S
C170   C186    1.388   .     A
C170   C1154   1.410   1_554 S
C170   H1169   1.078   1_554 S
C171   C186    1.396   .     A
C171   C185    1.392   .     A
C172   C659    1.391   .     S
C172   H306    1.083   1_455 S
C173   H200    1.082   .     S
C173   C175    1.393   .     A
C173   C1144   1.391   1_554 S
C174   C180    1.397   .     A
C174   C661    1.412   .     S
C174   C667    1.407   .     S
C175   H199    1.080   .     S
C175   C1146   1.412   1_554 S
C176   N204    1.418   .     S
C176   H188    1.067   .     S
C176   O214    1.219   .     D
C177   C183    1.486   .     S
C177   O206    1.219   .     D
C177   H189    1.086   .     S
C178   H194    1.112   .     S
C178   H193    1.103   .     S
C178   C185    1.534   .     S
C178   C179    1.529   .     S
C179   H190    1.111   .     S
C179   H1163   1.110   1_554 S
C179   H1164   1.109   1_554 S
C180   C184    1.408   .     A
C181   C185    1.412   .     A
C181   C1146   1.407   1_554 S
C181   C1154   1.431   1_554 S
C182   C183    1.418   .     A
C182   C656    1.410   .     S
C182   C667    1.431   .     S
C183   C184    1.395   .     A
C184   H201    1.083   .     S
C186   H241    1.084   .     S
H187   C294    1.084   1_455 S
H191   C665    1.110   .     S
H192   C665    1.109   .     S
H195   C329    1.088   .     S
H196   N203    1.029   .     S
H197   C656    1.078   .     S
H198   C226    1.083   .     S
N203   N204    1.284   .     D
N203   Zn216   2.031   .     S
N204   Zn215   2.031   .     S
O205   Zn215   1.956   .     S
O205   C217    1.282   .     S
O207   Zn216   1.976   .     S
O208   Zn215   1.939   .     S
O208   C220    1.297   .     S
O209   Zn216   1.894   .     S
O210   Zn215   1.976   .     S
O211   Zn216   1.956   .     S
O211   C276    1.283   1_455 S
O212   Zn215   1.894   .     S
O213   Zn216   1.939   .     S
O213   C277    1.293   1_455 S
C217   O261    1.292   .     A
C217   C219    1.402   .     S
C218   C220    1.456   .     S
C218   C234    1.407   .     A
C218   C226    1.404   .     A
C219   C329    1.336   .     S
C219   H418    1.088   .     S
C220   O263    1.303   .     A
C221   C222    1.402   .     S
C222   O264    1.292   .     A
C222   O319    1.283   .     S
C223   C225    1.446   .     S
C223   O266    1.302   .     A
C223   O321    1.293   .     S
C224   C240    1.388   .     A
C224   C1208   1.410   1_554 S
C224   H1223   1.078   1_554 S
C225   C240    1.396   .     A
C225   C239    1.392   .     A
C226   C713    1.391   .     S
C227   H254    1.082   .     S
C227   C229    1.393   .     A
C227   C1198   1.391   1_554 S
C228   C234    1.397   .     A
C228   C715    1.412   .     S
C228   C721    1.407   .     S
C229   H253    1.080   .     S
C229   C1200   1.412   1_554 S
C230   N258    1.418   .     S
C230   H242    1.067   .     S
C230   O268    1.219   .     D
C231   C237    1.486   .     S
C231   O260    1.219   .     D
C231   H243    1.086   .     S
C232   H248    1.112   .     S
C232   H247    1.103   .     S
C232   C239    1.534   .     S
C232   C233    1.529   .     S
C233   H244    1.111   .     S
C233   H1217   1.110   1_554 S
C233   H1218   1.109   1_554 S
C234   C238    1.408   .     A
C235   C239    1.412   .     A
C235   C1200   1.407   1_554 S
C235   C1208   1.431   1_554 S
C236   C237    1.418   .     A
C236   C710    1.410   .     S
C236   C721    1.431   .     S
C237   C238    1.395   .     A
C238   H255    1.083   .     S
C240   H295    1.084   .     S
H245   C719    1.110   .     S
H246   C719    1.109   .     S
H249   C383    1.088   .     S
H250   N257    1.029   .     S
H251   C710    1.078   .     S
H252   C280    1.083   .     S
N257   N258    1.284   .     D
N257   Zn270   2.031   .     S
N258   Zn269   2.031   .     S
O259   Zn269   1.956   .     S
O259   C271    1.282   .     S
O261   Zn270   1.976   .     S
O262   Zn269   1.939   .     S
O262   C274    1.297   .     S
O263   Zn270   1.894   .     S
O264   Zn269   1.976   .     S
O265   Zn270   1.956   .     S
O266   Zn269   1.894   .     S
O267   Zn270   1.939   .     S
C271   O315    1.292   .     A
C271   C273    1.402   .     S
C272   C274    1.456   .     S
C272   C288    1.407   .     A
C272   C280    1.404   .     A
C273   C383    1.336   .     S
C273   H472    1.088   .     S
C274   O317    1.303   .     A
C275   C276    1.402   .     S
C275   C3      1.336   1_655 S
C276   O318    1.292   .     A
C276   O211    1.283   1_655 S
C277   C279    1.446   .     S
C277   O320    1.302   .     A
C277   O213    1.293   1_655 S
C278   C294    1.388   .     A
C278   C1262   1.410   1_554 S
C278   H1277   1.078   1_554 S
C279   C294    1.396   .     A
C279   C293    1.392   .     A
C280   C767    1.391   .     S
C281   H308    1.082   .     S
C281   C283    1.393   .     A
C281   C1252   1.391   1_554 S
C282   C288    1.397   .     A
C282   C769    1.412   .     S
C282   C775    1.407   .     S
C283   H307    1.080   .     S
C283   C1254   1.412   1_554 S
C284   N312    1.418   .     S
C284   H296    1.067   .     S
C284   O322    1.219   .     D
C285   C291    1.486   .     S
C285   O314    1.219   .     D
C285   H297    1.086   .     S
C286   H302    1.112   .     S
C286   H301    1.103   .     S
C286   C293    1.534   .     S
C286   C287    1.529   .     S
C287   H298    1.111   .     S
C287   H1271   1.110   1_554 S
C287   H1272   1.109   1_554 S
C288   C292    1.408   .     A
C289   C293    1.412   .     A
C289   C1254   1.407   1_554 S
C289   C1262   1.431   1_554 S
C290   C291    1.418   .     A
C290   C764    1.410   .     S
C290   C775    1.431   .     S
C291   C292    1.395   .     A
C292   H309    1.083   .     S
C294   H187    1.084   1_655 S
H299   C773    1.110   .     S
H300   C773    1.109   .     S
H303   C437    1.088   .     S
H304   N311    1.029   .     S
H305   C764    1.078   .     S
H306   C172    1.083   1_655 S
N311   N312    1.284   .     D
N311   Zn324   2.031   .     S
N312   Zn323   2.031   .     S
O313   Zn323   1.956   .     S
O313   C163    1.282   1_655 S
O315   Zn324   1.976   .     S
O316   Zn323   1.939   .     S
O316   C166    1.297   1_655 S
O317   Zn324   1.894   .     S
O318   Zn323   1.976   .     S
O319   Zn324   1.956   .     S
O320   Zn323   1.894   .     S
O321   Zn324   1.939   .     S
C325   O369    1.292   .     A
C325   C327    1.402   .     S
C325   O475    1.282   1_455 S
C326   C328    1.456   .     S
C326   C342    1.407   .     A
C326   C334    1.404   .     A
C327   C113    1.336   1_465 S
C327   H40     1.088   1_565 S
C328   O371    1.303   .     A
C328   O478    1.297   1_455 S
C329   C330    1.402   .     S
C330   O372    1.292   .     A
C330   O427    1.283   .     S
C331   C333    1.446   .     S
C331   O374    1.302   .     A
C331   O429    1.293   .     S
C332   C348    1.388   .     A
C332   C1316   1.410   1_554 S
C332   H1331   1.078   1_554 S
C333   C348    1.396   .     A
C333   C347    1.392   .     A
C334   C821    1.391   .     S
C334   H468    1.083   1_455 S
C335   H362    1.082   .     S
C335   C337    1.393   .     A
C335   C1306   1.391   1_554 S
C336   C342    1.397   .     A
C336   C823    1.412   .     S
C336   C829    1.407   .     S
C337   H361    1.080   .     S
C337   C1308   1.412   1_554 S
C338   N366    1.418   .     S
C338   H350    1.067   .     S
C338   O376    1.219   .     D
C339   C345    1.486   .     S
C339   O368    1.219   .     D
C339   H351    1.086   .     S
C340   H356    1.112   .     S
C340   H355    1.103   .     S
C340   C347    1.534   .     S
C340   C341    1.529   .     S
C341   H352    1.111   .     S
C341   H1325   1.110   1_554 S
C341   H1326   1.109   1_554 S
C342   C346    1.408   .     A
C343   C347    1.412   .     A
C343   C1308   1.407   1_554 S
C343   C1316   1.431   1_554 S
C344   C345    1.418   .     A
C344   C818    1.410   .     S
C344   C829    1.431   .     S
C345   C346    1.395   .     A
C346   H363    1.083   .     S
C348   H403    1.084   .     S
H349   C456    1.084   1_455 S
H353   C827    1.110   .     S
H354   C827    1.109   .     S
H357   C5      1.088   1_565 S
H358   N365    1.029   .     S
H359   C818    1.078   .     S
H360   C388    1.083   .     S
N365   N366    1.284   .     D
N365   Zn378   2.031   .     S
N366   Zn377   2.031   .     S
O367   Zn377   1.956   .     S
O367   C379    1.282   .     S
O369   Zn378   1.976   .     S
O370   Zn377   1.939   .     S
O370   C382    1.297   .     S
O371   Zn378   1.894   .     S
O372   Zn377   1.976   .     S
O373   Zn378   1.956   .     S
O373   C438    1.283   1_455 S
O374   Zn377   1.894   .     S
O375   Zn378   1.939   .     S
O375   C439    1.293   1_455 S
C379   O423    1.292   .     A
C379   C381    1.402   .     S
C380   C382    1.456   .     S
C380   C396    1.407   .     A
C380   C388    1.404   .     A
C381   C5      1.336   1_565 S
C381   H94     1.088   1_565 S
C382   O425    1.303   .     A
C383   C384    1.402   .     S
C384   O426    1.292   .     A
C384   O481    1.283   .     S
C385   C387    1.446   .     S
C385   O428    1.302   .     A
C385   O483    1.293   .     S
C386   C402    1.388   .     A
C386   C1370   1.410   1_554 S
C386   H1385   1.078   1_554 S
C387   C402    1.396   .     A
C387   C401    1.392   .     A
C388   C875    1.391   .     S
C389   H416    1.082   .     S
C389   C391    1.393   .     A
C389   C1360   1.391   1_554 S
C390   C396    1.397   .     A
C390   C877    1.412   .     S
C390   C883    1.407   .     S
C391   H415    1.080   .     S
C391   C1362   1.412   1_554 S
C392   N420    1.418   .     S
C392   H404    1.067   .     S
C392   O430    1.219   .     D
C393   C399    1.486   .     S
C393   O422    1.219   .     D
C393   H405    1.086   .     S
C394   H410    1.112   .     S
C394   H409    1.103   .     S
C394   C401    1.534   .     S
C394   C395    1.529   .     S
C395   H406    1.111   .     S
C395   H1379   1.110   1_554 S
C395   H1380   1.109   1_554 S
C396   C400    1.408   .     A
C397   C401    1.412   .     A
C397   C1362   1.407   1_554 S
C397   C1370   1.431   1_554 S
C398   C399    1.418   .     A
C398   C872    1.410   .     S
C398   C883    1.431   .     S
C399   C400    1.395   .     A
C400   H417    1.083   .     S
C402   H457    1.084   .     S
H407   C881    1.110   .     S
H408   C881    1.109   .     S
H411   C59     1.088   1_565 S
H412   N419    1.029   .     S
H413   C872    1.078   .     S
H414   C442    1.083   .     S
N419   N420    1.284   .     D
N419   Zn432   2.031   .     S
N420   Zn431   2.031   .     S
O421   Zn431   1.956   .     S
O421   C433    1.282   .     S
O423   Zn432   1.976   .     S
O424   Zn431   1.939   .     S
O424   C436    1.297   .     S
O425   Zn432   1.894   .     S
O426   Zn431   1.976   .     S
O427   Zn432   1.956   .     S
O428   Zn431   1.894   .     S
O429   Zn432   1.939   .     S
C433   O477    1.292   .     A
C433   C435    1.402   .     S
C434   C436    1.456   .     S
C434   C450    1.407   .     A
C434   C442    1.404   .     A
C435   C59     1.336   1_565 S
C435   H148    1.088   1_565 S
C436   O479    1.303   .     A
C437   C438    1.402   .     S
C437   C165    1.336   1_655 S
C438   O480    1.292   .     A
C438   O373    1.283   1_655 S
C439   C441    1.446   .     S
C439   O482    1.302   .     A
C439   O375    1.293   1_655 S
C440   C456    1.388   .     A
C440   C1424   1.410   1_554 S
C440   H1439   1.078   1_554 S
C441   C456    1.396   .     A
C441   C455    1.392   .     A
C442   C929    1.391   .     S
C443   H470    1.082   .     S
C443   C445    1.393   .     A
C443   C1414   1.391   1_554 S
C444   C450    1.397   .     A
C444   C931    1.412   .     S
C444   C937    1.407   .     S
C445   H469    1.080   .     S
C445   C1416   1.412   1_554 S
C446   N474    1.418   .     S
C446   H458    1.067   .     S
C446   O484    1.219   .     D
C447   C453    1.486   .     S
C447   O476    1.219   .     D
C447   H459    1.086   .     S
C448   H464    1.112   .     S
C448   H463    1.103   .     S
C448   C455    1.534   .     S
C448   C449    1.529   .     S
C449   H460    1.111   .     S
C449   H1433   1.110   1_554 S
C449   H1434   1.109   1_554 S
C450   C454    1.408   .     A
C451   C455    1.412   .     A
C451   C1416   1.407   1_554 S
C451   C1424   1.431   1_554 S
C452   C453    1.418   .     A
C452   C926    1.410   .     S
C452   C937    1.431   .     S
C453   C454    1.395   .     A
C454   H471    1.083   .     S
C456   H349    1.084   1_655 S
H461   C935    1.110   .     S
H462   C935    1.109   .     S
H465   C113    1.088   1_565 S
H466   N473    1.029   .     S
H467   C926    1.078   .     S
H468   C334    1.083   1_655 S
N473   N474    1.284   .     D
N473   Zn486   2.031   .     S
N474   Zn485   2.031   .     S
O475   Zn485   1.956   .     S
O475   C325    1.282   1_655 S
O477   Zn486   1.976   .     S
O478   Zn485   1.939   .     S
O478   C328    1.297   1_655 S
O479   Zn486   1.894   .     S
O480   Zn485   1.976   .     S
O481   Zn486   1.956   .     S
O482   Zn485   1.894   .     S
O483   Zn486   1.939   .     S
C487   O531    1.292   .     A
C487   C489    1.402   .     S
C487   O637    1.282   1_455 S
C488   C490    1.456   .     S
C488   C504    1.407   .     A
C488   C496    1.404   .     A
C489   C761    1.336   1_455 S
C489   H688    1.088   .     S
C490   O533    1.303   .     A
C490   O640    1.297   1_455 S
C491   C492    1.402   .     S
C491   C867    1.336   1_545 S
C491   H843    1.088   1_545 S
C492   O534    1.292   .     A
C492   O589    1.283   .     S
C493   C495    1.446   .     S
C493   O536    1.302   .     A
C493   O591    1.293   .     S
C494   C510    1.388   .     A
C495   C510    1.396   .     A
C495   C509    1.392   .     A
C496   C983    1.391   .     S
C496   H630    1.083   1_455 S
C497   H524    1.082   .     S
C497   C499    1.393   .     A
C498   C504    1.397   .     A
C498   C985    1.412   .     S
C498   C991    1.407   .     S
C499   H523    1.080   .     S
C500   N528    1.418   .     S
C500   H512    1.067   .     S
C500   O538    1.219   .     D
C501   C507    1.486   .     S
C501   O530    1.219   .     D
C501   H513    1.086   .     S
C502   H518    1.112   .     S
C502   H517    1.103   .     S
C502   C509    1.534   .     S
C502   C503    1.529   .     S
C503   H514    1.111   .     S
C504   C508    1.408   .     A
C505   C509    1.412   .     A
C506   C507    1.418   .     A
C506   C980    1.410   .     S
C506   C991    1.431   .     S
C507   C508    1.395   .     A
C508   H525    1.083   .     S
C510   H565    1.084   .     S
H511   C618    1.084   1_455 S
H515   C989    1.110   .     S
H516   C989    1.109   .     S
H519   C653    1.088   .     S
H520   N527    1.029   .     S
H521   C980    1.078   .     S
H522   C550    1.083   .     S
H526   C813    1.088   1_545 S
N527   N528    1.284   .     D
N527   Zn540   2.031   .     S
N528   Zn539   2.031   .     S
O529   Zn539   1.956   .     S
O529   C541    1.282   .     S
O531   Zn540   1.976   .     S
O532   Zn539   1.939   .     S
O532   C544    1.297   .     S
O533   Zn540   1.894   .     S
O534   Zn539   1.976   .     S
O535   Zn540   1.956   .     S
O535   C600    1.283   1_455 S
O536   Zn539   1.894   .     S
O537   Zn540   1.939   .     S
O537   C601    1.293   1_455 S
C541   O585    1.292   .     A
C541   C543    1.402   .     S
C542   C544    1.456   .     S
C542   C558    1.407   .     A
C542   C550    1.404   .     A
C543   C653    1.336   .     S
C543   H742    1.088   .     S
C544   O587    1.303   .     A
C545   C546    1.402   .     S
C545   C921    1.336   1_545 S
C545   H897    1.088   1_545 S
C546   O588    1.292   .     A
C546   O643    1.283   .     S
C547   C549    1.446   .     S
C547   O590    1.302   .     A
C547   O645    1.293   .     S
C548   C564    1.388   .     A
C549   C564    1.396   .     A
C549   C563    1.392   .     A
C550   C1037   1.391   .     S
C551   H578    1.082   .     S
C551   C553    1.393   .     A
C552   C558    1.397   .     A
C552   C1039   1.412   .     S
C552   C1045   1.407   .     S
C553   H577    1.080   .     S
C554   N582    1.418   .     S
C554   H566    1.067   .     S
C554   O592    1.219   .     D
C555   C561    1.486   .     S
C555   O584    1.219   .     D
C555   H567    1.086   .     S
C556   H572    1.112   .     S
C556   H571    1.103   .     S
C556   C563    1.534   .     S
C556   C557    1.529   .     S
C557   H568    1.111   .     S
C558   C562    1.408   .     A
C559   C563    1.412   .     A
C560   C561    1.418   .     A
C560   C1034   1.410   .     S
C560   C1045   1.431   .     S
C561   C562    1.395   .     A
C562   H579    1.083   .     S
C564   H619    1.084   .     S
H569   C1043   1.110   .     S
H570   C1043   1.109   .     S
H573   C707    1.088   .     S
H574   N581    1.029   .     S
H575   C1034   1.078   .     S
H576   C604    1.083   .     S
H580   C867    1.088   1_545 S
N581   N582    1.284   .     D
N581   Zn594   2.031   .     S
N582   Zn593   2.031   .     S
O583   Zn593   1.956   .     S
O583   C595    1.282   .     S
O585   Zn594   1.976   .     S
O586   Zn593   1.939   .     S
O586   C598    1.297   .     S
O587   Zn594   1.894   .     S
O588   Zn593   1.976   .     S
O589   Zn594   1.956   .     S
O590   Zn593   1.894   .     S
O591   Zn594   1.939   .     S
C595   O639    1.292   .     A
C595   C597    1.402   .     S
C596   C598    1.456   .     S
C596   C612    1.407   .     A
C596   C604    1.404   .     A
C597   C707    1.336   .     S
C597   H796    1.088   .     S
C598   O641    1.303   .     A
C599   C600    1.402   .     S
C599   C813    1.336   1_645 S
C599   H951    1.088   1_545 S
C600   O642    1.292   .     A
C600   O535    1.283   1_655 S
C601   C603    1.446   .     S
C601   O644    1.302   .     A
C601   O537    1.293   1_655 S
C602   C618    1.388   .     A
C603   C618    1.396   .     A
C603   C617    1.392   .     A
C604   C1091   1.391   .     S
C605   H632    1.082   .     S
C605   C607    1.393   .     A
C606   C612    1.397   .     A
C606   C1093   1.412   .     S
C606   C1099   1.407   .     S
C607   H631    1.080   .     S
C608   N636    1.418   .     S
C608   H620    1.067   .     S
C608   O646    1.219   .     D
C609   C615    1.486   .     S
C609   O638    1.219   .     D
C609   H621    1.086   .     S
C610   H626    1.112   .     S
C610   H625    1.103   .     S
C610   C617    1.534   .     S
C610   C611    1.529   .     S
C611   H622    1.111   .     S
C612   C616    1.408   .     A
C613   C617    1.412   .     A
C614   C615    1.418   .     A
C614   C1088   1.410   .     S
C614   C1099   1.431   .     S
C615   C616    1.395   .     A
C616   H633    1.083   .     S
C618   H511    1.084   1_655 S
H623   C1097   1.110   .     S
H624   C1097   1.109   .     S
H627   C761    1.088   .     S
H628   N635    1.029   .     S
H629   C1088   1.078   .     S
H630   C496    1.083   1_655 S
H634   C921    1.088   1_545 S
N635   N636    1.284   .     D
N635   Zn648   2.031   .     S
N636   Zn647   2.031   .     S
O637   Zn647   1.956   .     S
O637   C487    1.282   1_655 S
O639   Zn648   1.976   .     S
O640   Zn647   1.939   .     S
O640   C490    1.297   1_655 S
O641   Zn648   1.894   .     S
O642   Zn647   1.976   .     S
O643   Zn648   1.956   .     S
O644   Zn647   1.894   .     S
O645   Zn648   1.939   .     S
C649   O693    1.292   .     A
C649   C651    1.402   .     S
C649   O799    1.282   1_455 S
C650   C652    1.456   .     S
C650   C666    1.407   .     A
C650   C658    1.404   .     A
C651   C923    1.336   1_455 S
C651   H850    1.088   .     S
C652   O695    1.303   .     A
C652   O802    1.297   1_455 S
C653   C654    1.402   .     S
C654   O696    1.292   .     A
C654   O751    1.283   .     S
C655   C657    1.446   .     S
C655   O698    1.302   .     A
C655   O753    1.293   .     S
C656   C672    1.388   .     A
C657   C672    1.396   .     A
C657   C671    1.392   .     A
C658   C1145   1.391   .     S
C658   H792    1.083   1_455 S
C659   H686    1.082   .     S
C659   C661    1.393   .     A
C660   C666    1.397   .     A
C660   C1147   1.412   .     S
C660   C1153   1.407   .     S
C661   H685    1.080   .     S
C662   N690    1.418   .     S
C662   H674    1.067   .     S
C662   O700    1.219   .     D
C663   C669    1.486   .     S
C663   O692    1.219   .     D
C663   H675    1.086   .     S
C664   H680    1.112   .     S
C664   H679    1.103   .     S
C664   C671    1.534   .     S
C664   C665    1.529   .     S
C665   H676    1.111   .     S
C666   C670    1.408   .     A
C667   C671    1.412   .     A
C668   C669    1.418   .     A
C668   C1142   1.410   .     S
C668   C1153   1.431   .     S
C669   C670    1.395   .     A
C670   H687    1.083   .     S
C672   H727    1.084   .     S
H673   C780    1.084   1_455 S
H677   C1151   1.110   .     S
H678   C1151   1.109   .     S
H681   C815    1.088   .     S
H682   N689    1.029   .     S
H683   C1142   1.078   .     S
H684   C712    1.083   .     S
N689   N690    1.284   .     D
N689   Zn702   2.031   .     S
N690   Zn701   2.031   .     S
O691   Zn701   1.956   .     S
O691   C703    1.282   .     S
O693   Zn702   1.976   .     S
O694   Zn701   1.939   .     S
O694   C706    1.297   .     S
O695   Zn702   1.894   .     S
O696   Zn701   1.976   .     S
O697   Zn702   1.956   .     S
O697   C762    1.283   1_455 S
O698   Zn701   1.894   .     S
O699   Zn702   1.939   .     S
O699   C763    1.293   1_455 S
C703   O747    1.292   .     A
C703   C705    1.402   .     S
C704   C706    1.456   .     S
C704   C720    1.407   .     A
C704   C712    1.404   .     A
C705   C815    1.336   .     S
C705   H904    1.088   .     S
C706   O749    1.303   .     A
C707   C708    1.402   .     S
C708   O750    1.292   .     A
C708   O805    1.283   .     S
C709   C711    1.446   .     S
C709   O752    1.302   .     A
C709   O807    1.293   .     S
C710   C726    1.388   .     A
C711   C726    1.396   .     A
C711   C725    1.392   .     A
C712   C1199   1.391   .     S
C713   H740    1.082   .     S
C713   C715    1.393   .     A
C714   C720    1.397   .     A
C714   C1201   1.412   .     S
C714   C1207   1.407   .     S
C715   H739    1.080   .     S
C716   N744    1.418   .     S
C716   H728    1.067   .     S
C716   O754    1.219   .     D
C717   C723    1.486   .     S
C717   O746    1.219   .     D
C717   H729    1.086   .     S
C718   H734    1.112   .     S
C718   H733    1.103   .     S
C718   C725    1.534   .     S
C718   C719    1.529   .     S
C719   H730    1.111   .     S
C720   C724    1.408   .     A
C721   C725    1.412   .     A
C722   C723    1.418   .     A
C722   C1196   1.410   .     S
C722   C1207   1.431   .     S
C723   C724    1.395   .     A
C724   H741    1.083   .     S
C726   H781    1.084   .     S
H731   C1205   1.110   .     S
H732   C1205   1.109   .     S
H735   C869    1.088   .     S
H736   N743    1.029   .     S
H737   C1196   1.078   .     S
H738   C766    1.083   .     S
N743   N744    1.284   .     D
N743   Zn756   2.031   .     S
N744   Zn755   2.031   .     S
O745   Zn755   1.956   .     S
O745   C757    1.282   .     S
O747   Zn756   1.976   .     S
O748   Zn755   1.939   .     S
O748   C760    1.297   .     S
O749   Zn756   1.894   .     S
O750   Zn755   1.976   .     S
O751   Zn756   1.956   .     S
O752   Zn755   1.894   .     S
O753   Zn756   1.939   .     S
C757   O801    1.292   .     A
C757   C759    1.402   .     S
C758   C760    1.456   .     S
C758   C774    1.407   .     A
C758   C766    1.404   .     A
C759   C869    1.336   .     S
C759   H958    1.088   .     S
C760   O803    1.303   .     A
C761   C762    1.402   .     S
C761   C489    1.336   1_655 S
C762   O804    1.292   .     A
C762   O697    1.283   1_655 S
C763   C765    1.446   .     S
C763   O806    1.302   .     A
C763   O699    1.293   1_655 S
C764   C780    1.388   .     A
C765   C780    1.396   .     A
C765   C779    1.392   .     A
C766   C1253   1.391   .     S
C767   H794    1.082   .     S
C767   C769    1.393   .     A
C768   C774    1.397   .     A
C768   C1255   1.412   .     S
C768   C1261   1.407   .     S
C769   H793    1.080   .     S
C770   N798    1.418   .     S
C770   H782    1.067   .     S
C770   O808    1.219   .     D
C771   C777    1.486   .     S
C771   O800    1.219   .     D
C771   H783    1.086   .     S
C772   H788    1.112   .     S
C772   H787    1.103   .     S
C772   C779    1.534   .     S
C772   C773    1.529   .     S
C773   H784    1.111   .     S
C774   C778    1.408   .     A
C775   C779    1.412   .     A
C776   C777    1.418   .     A
C776   C1250   1.410   .     S
C776   C1261   1.431   .     S
C777   C778    1.395   .     A
C778   H795    1.083   .     S
C780   H673    1.084   1_655 S
H785   C1259   1.110   .     S
H786   C1259   1.109   .     S
H789   C923    1.088   .     S
H790   N797    1.029   .     S
H791   C1250   1.078   .     S
H792   C658    1.083   1_655 S
N797   N798    1.284   .     D
N797   Zn810   2.031   .     S
N798   Zn809   2.031   .     S
O799   Zn809   1.956   .     S
O799   C649    1.282   1_655 S
O801   Zn810   1.976   .     S
O802   Zn809   1.939   .     S
O802   C652    1.297   1_655 S
O803   Zn810   1.894   .     S
O804   Zn809   1.976   .     S
O805   Zn810   1.956   .     S
O806   Zn809   1.894   .     S
O807   Zn810   1.939   .     S
C811   O855    1.292   .     A
C811   C813    1.402   .     S
C811   O961    1.282   1_455 S
C812   C814    1.456   .     S
C812   C828    1.407   .     A
C812   C820    1.404   .     A
C813   C599    1.336   1_465 S
C813   H526    1.088   1_565 S
C814   O857    1.303   .     A
C814   O964    1.297   1_455 S
C815   C816    1.402   .     S
C816   O858    1.292   .     A
C816   O913    1.283   .     S
C817   C819    1.446   .     S
C817   O860    1.302   .     A
C817   O915    1.293   .     S
C818   C834    1.388   .     A
C819   C834    1.396   .     A
C819   C833    1.392   .     A
C820   C1307   1.391   .     S
C820   H954    1.083   1_455 S
C821   H848    1.082   .     S
C821   C823    1.393   .     A
C822   C828    1.397   .     A
C822   C1309   1.412   .     S
C822   C1315   1.407   .     S
C823   H847    1.080   .     S
C824   N852    1.418   .     S
C824   H836    1.067   .     S
C824   O862    1.219   .     D
C825   C831    1.486   .     S
C825   O854    1.219   .     D
C825   H837    1.086   .     S
C826   H842    1.112   .     S
C826   H841    1.103   .     S
C826   C833    1.534   .     S
C826   C827    1.529   .     S
C827   H838    1.111   .     S
C828   C832    1.408   .     A
C829   C833    1.412   .     A
C830   C831    1.418   .     A
C830   C1304   1.410   .     S
C830   C1315   1.431   .     S
C831   C832    1.395   .     A
C832   H849    1.083   .     S
C834   H889    1.084   .     S
H835   C942    1.084   1_455 S
H839   C1313   1.110   .     S
H840   C1313   1.109   .     S
H843   C491    1.088   1_565 S
H844   N851    1.029   .     S
H845   C1304   1.078   .     S
H846   C874    1.083   .     S
N851   N852    1.284   .     D
N851   Zn864   2.031   .     S
N852   Zn863   2.031   .     S
O853   Zn863   1.956   .     S
O853   C865    1.282   .     S
O855   Zn864   1.976   .     S
O856   Zn863   1.939   .     S
O856   C868    1.297   .     S
O857   Zn864   1.894   .     S
O858   Zn863   1.976   .     S
O859   Zn864   1.956   .     S
O859   C924    1.283   1_455 S
O860   Zn863   1.894   .     S
O861   Zn864   1.939   .     S
O861   C925    1.293   1_455 S
C865   O909    1.292   .     A
C865   C867    1.402   .     S
C866   C868    1.456   .     S
C866   C882    1.407   .     A
C866   C874    1.404   .     A
C867   C491    1.336   1_565 S
C867   H580    1.088   1_565 S
C868   O911    1.303   .     A
C869   C870    1.402   .     S
C870   O912    1.292   .     A
C870   O967    1.283   .     S
C871   C873    1.446   .     S
C871   O914    1.302   .     A
C871   O969    1.293   .     S
C872   C888    1.388   .     A
C873   C888    1.396   .     A
C873   C887    1.392   .     A
C874   C1361   1.391   .     S
C875   H902    1.082   .     S
C875   C877    1.393   .     A
C876   C882    1.397   .     A
C876   C1363   1.412   .     S
C876   C1369   1.407   .     S
C877   H901    1.080   .     S
C878   N906    1.418   .     S
C878   H890    1.067   .     S
C878   O916    1.219   .     D
C879   C885    1.486   .     S
C879   O908    1.219   .     D
C879   H891    1.086   .     S
C880   H896    1.112   .     S
C880   H895    1.103   .     S
C880   C887    1.534   .     S
C880   C881    1.529   .     S
C881   H892    1.111   .     S
C882   C886    1.408   .     A
C883   C887    1.412   .     A
C884   C885    1.418   .     A
C884   C1358   1.410   .     S
C884   C1369   1.431   .     S
C885   C886    1.395   .     A
C886   H903    1.083   .     S
C888   H943    1.084   .     S
H893   C1367   1.110   .     S
H894   C1367   1.109   .     S
H897   C545    1.088   1_565 S
H898   N905    1.029   .     S
H899   C1358   1.078   .     S
H900   C928    1.083   .     S
N905   N906    1.284   .     D
N905   Zn918   2.031   .     S
N906   Zn917   2.031   .     S
O907   Zn917   1.956   .     S
O907   C919    1.282   .     S
O909   Zn918   1.976   .     S
O910   Zn917   1.939   .     S
O910   C922    1.297   .     S
O911   Zn918   1.894   .     S
O912   Zn917   1.976   .     S
O913   Zn918   1.956   .     S
O914   Zn917   1.894   .     S
O915   Zn918   1.939   .     S
C919   O963    1.292   .     A
C919   C921    1.402   .     S
C920   C922    1.456   .     S
C920   C936    1.407   .     A
C920   C928    1.404   .     A
C921   C545    1.336   1_565 S
C921   H634    1.088   1_565 S
C922   O965    1.303   .     A
C923   C924    1.402   .     S
C923   C651    1.336   1_655 S
C924   O966    1.292   .     A
C924   O859    1.283   1_655 S
C925   C927    1.446   .     S
C925   O968    1.302   .     A
C925   O861    1.293   1_655 S
C926   C942    1.388   .     A
C927   C942    1.396   .     A
C927   C941    1.392   .     A
C928   C1415   1.391   .     S
C929   H956    1.082   .     S
C929   C931    1.393   .     A
C930   C936    1.397   .     A
C930   C1417   1.412   .     S
C930   C1423   1.407   .     S
C931   H955    1.080   .     S
C932   N960    1.418   .     S
C932   H944    1.067   .     S
C932   O970    1.219   .     D
C933   C939    1.486   .     S
C933   O962    1.219   .     D
C933   H945    1.086   .     S
C934   H950    1.112   .     S
C934   H949    1.103   .     S
C934   C941    1.534   .     S
C934   C935    1.529   .     S
C935   H946    1.111   .     S
C936   C940    1.408   .     A
C937   C941    1.412   .     A
C938   C939    1.418   .     A
C938   C1412   1.410   .     S
C938   C1423   1.431   .     S
C939   C940    1.395   .     A
C940   H957    1.083   .     S
C942   H835    1.084   1_655 S
H947   C1421   1.110   .     S
H948   C1421   1.109   .     S
H951   C599    1.088   1_565 S
H952   N959    1.029   .     S
H953   C1412   1.078   .     S
H954   C820    1.083   1_655 S
N959   N960    1.284   .     D
N959   Zn972   2.031   .     S
N960   Zn971   2.031   .     S
O961   Zn971   1.956   .     S
O961   C811    1.282   1_655 S
O963   Zn972   1.976   .     S
O964   Zn971   1.939   .     S
O964   C814    1.297   1_655 S
O965   Zn972   1.894   .     S
O966   Zn971   1.976   .     S
O967   Zn972   1.956   .     S
O968   Zn971   1.894   .     S
O969   Zn972   1.939   .     S
C973   O1017   1.292   .     A
C973   C975    1.402   .     S
C973   O1123   1.282   1_455 S
C974   C976    1.456   .     S
C974   C990    1.407   .     A
C974   C982    1.404   .     A
C975   C1247   1.336   1_455 S
C975   H1174   1.088   .     S
C976   O1019   1.303   .     A
C976   O1126   1.297   1_455 S
C977   C978    1.402   .     S
C977   C1353   1.336   1_545 S
C977   H1329   1.088   1_545 S
C978   O1020   1.292   .     A
C978   O1075   1.283   .     S
C979   C981    1.446   .     S
C979   O1022   1.302   .     A
C979   O1077   1.293   .     S
C980   C996    1.388   .     A
C981   C996    1.396   .     A
C981   C995    1.392   .     A
C982   C11     1.391   1_556 S
C982   H1116   1.083   1_455 S
C983   H1010   1.082   .     S
C983   C985    1.393   .     A
C984   C990    1.397   .     A
C984   C13     1.412   1_556 S
C984   C19     1.407   1_556 S
C985   H1009   1.080   .     S
C986   N1014   1.418   .     S
C986   H998    1.067   .     S
C986   O1024   1.219   .     D
C987   C993    1.486   .     S
C987   O1016   1.219   .     D
C987   H999    1.086   .     S
C988   H1004   1.112   .     S
C988   H1003   1.103   .     S
C988   C995    1.534   .     S
C988   C989    1.529   .     S
C989   H1000   1.111   .     S
C990   C994    1.408   .     A
C991   C995    1.412   .     A
C992   C993    1.418   .     A
C992   C8      1.410   1_556 S
C992   C19     1.431   1_556 S
C993   C994    1.395   .     A
C994   H1011   1.083   .     S
C996   H1051   1.084   .     S
H997   C1104   1.084   1_455 S
H1001  C17     1.110   1_556 S
H1002  C17     1.109   1_556 S
H1005  C1139   1.088   .     S
H1006  N1013   1.029   .     S
H1007  C8      1.078   1_556 S
H1008  C1036   1.083   .     S
H1012  C1299   1.088   1_545 S
N1013  N1014   1.284   .     D
N1013  Zn1026  2.031   .     S
N1014  Zn1025  2.031   .     S
O1015  Zn1025  1.956   .     S
O1015  C1027   1.282   .     S
O1017  Zn1026  1.976   .     S
O1018  Zn1025  1.939   .     S
O1018  C1030   1.297   .     S
O1019  Zn1026  1.894   .     S
O1020  Zn1025  1.976   .     S
O1021  Zn1026  1.956   .     S
O1021  C1086   1.283   1_455 S
O1022  Zn1025  1.894   .     S
O1023  Zn1026  1.939   .     S
O1023  C1087   1.293   1_455 S
C1027  O1071   1.292   .     A
C1027  C1029   1.402   .     S
C1028  C1030   1.456   .     S
C1028  C1044   1.407   .     A
C1028  C1036   1.404   .     A
C1029  C1139   1.336   .     S
C1029  H1228   1.088   .     S
C1030  O1073   1.303   .     A
C1031  C1032   1.402   .     S
C1031  C1407   1.336   1_545 S
C1031  H1383   1.088   1_545 S
C1032  O1074   1.292   .     A
C1032  O1129   1.283   .     S
C1033  C1035   1.446   .     S
C1033  O1076   1.302   .     A
C1033  O1131   1.293   .     S
C1034  C1050   1.388   .     A
C1035  C1050   1.396   .     A
C1035  C1049   1.392   .     A
C1036  C65     1.391   1_556 S
C1037  H1064   1.082   .     S
C1037  C1039   1.393   .     A
C1038  C1044   1.397   .     A
C1038  C67     1.412   1_556 S
C1038  C73     1.407   1_556 S
C1039  H1063   1.080   .     S
C1040  N1068   1.418   .     S
C1040  H1052   1.067   .     S
C1040  O1078   1.219   .     D
C1041  C1047   1.486   .     S
C1041  O1070   1.219   .     D
C1041  H1053   1.086   .     S
C1042  H1058   1.112   .     S
C1042  H1057   1.103   .     S
C1042  C1049   1.534   .     S
C1042  C1043   1.529   .     S
C1043  H1054   1.111   .     S
C1044  C1048   1.408   .     A
C1045  C1049   1.412   .     A
C1046  C1047   1.418   .     A
C1046  C62     1.410   1_556 S
C1046  C73     1.431   1_556 S
C1047  C1048   1.395   .     A
C1048  H1065   1.083   .     S
C1050  H1105   1.084   .     S
H1055  C71     1.110   1_556 S
H1056  C71     1.109   1_556 S
H1059  C1193   1.088   .     S
H1060  N1067   1.029   .     S
H1061  C62     1.078   1_556 S
H1062  C1090   1.083   .     S
H1066  C1353   1.088   1_545 S
N1067  N1068   1.284   .     D
N1067  Zn1080  2.031   .     S
N1068  Zn1079  2.031   .     S
O1069  Zn1079  1.956   .     S
O1069  C1081   1.282   .     S
O1071  Zn1080  1.976   .     S
O1072  Zn1079  1.939   .     S
O1072  C1084   1.297   .     S
O1073  Zn1080  1.894   .     S
O1074  Zn1079  1.976   .     S
O1075  Zn1080  1.956   .     S
O1076  Zn1079  1.894   .     S
O1077  Zn1080  1.939   .     S
C1081  O1125   1.292   .     A
C1081  C1083   1.402   .     S
C1082  C1084   1.456   .     S
C1082  C1098   1.407   .     A
C1082  C1090   1.404   .     A
C1083  C1193   1.336   .     S
C1083  H1282   1.088   .     S
C1084  O1127   1.303   .     A
C1085  C1086   1.402   .     S
C1085  C1299   1.336   1_645 S
C1085  H1437   1.088   1_545 S
C1086  O1128   1.292   .     A
C1086  O1021   1.283   1_655 S
C1087  C1089   1.446   .     S
C1087  O1130   1.302   .     A
C1087  O1023   1.293   1_655 S
C1088  C1104   1.388   .     A
C1089  C1104   1.396   .     A
C1089  C1103   1.392   .     A
C1090  C119    1.391   1_556 S
C1091  H1118   1.082   .     S
C1091  C1093   1.393   .     A
C1092  C1098   1.397   .     A
C1092  C121    1.412   1_556 S
C1092  C127    1.407   1_556 S
C1093  H1117   1.080   .     S
C1094  N1122   1.418   .     S
C1094  H1106   1.067   .     S
C1094  O1132   1.219   .     D
C1095  C1101   1.486   .     S
C1095  O1124   1.219   .     D
C1095  H1107   1.086   .     S
C1096  H1112   1.112   .     S
C1096  H1111   1.103   .     S
C1096  C1103   1.534   .     S
C1096  C1097   1.529   .     S
C1097  H1108   1.111   .     S
C1098  C1102   1.408   .     A
C1099  C1103   1.412   .     A
C1100  C1101   1.418   .     A
C1100  C116    1.410   1_556 S
C1100  C127    1.431   1_556 S
C1101  C1102   1.395   .     A
C1102  H1119   1.083   .     S
C1104  H997    1.084   1_655 S
H1109  C125    1.110   1_556 S
H1110  C125    1.109   1_556 S
H1113  C1247   1.088   .     S
H1114  N1121   1.029   .     S
H1115  C116    1.078   1_556 S
H1116  C982    1.083   1_655 S
H1120  C1407   1.088   1_545 S
N1121  N1122   1.284   .     D
N1121  Zn1134  2.031   .     S
N1122  Zn1133  2.031   .     S
O1123  Zn1133  1.956   .     S
O1123  C973    1.282   1_655 S
O1125  Zn1134  1.976   .     S
O1126  Zn1133  1.939   .     S
O1126  C976    1.297   1_655 S
O1127  Zn1134  1.894   .     S
O1128  Zn1133  1.976   .     S
O1129  Zn1134  1.956   .     S
O1130  Zn1133  1.894   .     S
O1131  Zn1134  1.939   .     S
C1135  O1179   1.292   .     A
C1135  C1137   1.402   .     S
C1135  O1285   1.282   1_455 S
C1136  C1138   1.456   .     S
C1136  C1152   1.407   .     A
C1136  C1144   1.404   .     A
C1137  C1409   1.336   1_455 S
C1137  H1336   1.088   .     S
C1138  O1181   1.303   .     A
C1138  O1288   1.297   1_455 S
C1139  C1140   1.402   .     S
C1140  O1182   1.292   .     A
C1140  O1237   1.283   .     S
C1141  C1143   1.446   .     S
C1141  O1184   1.302   .     A
C1141  O1239   1.293   .     S
C1142  C1158   1.388   .     A
C1143  C1158   1.396   .     A
C1143  C1157   1.392   .     A
C1144  C173    1.391   1_556 S
C1144  H1278   1.083   1_455 S
C1145  H1172   1.082   .     S
C1145  C1147   1.393   .     A
C1146  C1152   1.397   .     A
C1146  C175    1.412   1_556 S
C1146  C181    1.407   1_556 S
C1147  H1171   1.080   .     S
C1148  N1176   1.418   .     S
C1148  H1160   1.067   .     S
C1148  O1186   1.219   .     D
C1149  C1155   1.486   .     S
C1149  O1178   1.219   .     D
C1149  H1161   1.086   .     S
C1150  H1166   1.112   .     S
C1150  H1165   1.103   .     S
C1150  C1157   1.534   .     S
C1150  C1151   1.529   .     S
C1151  H1162   1.111   .     S
C1152  C1156   1.408   .     A
C1153  C1157   1.412   .     A
C1154  C1155   1.418   .     A
C1154  C170    1.410   1_556 S
C1154  C181    1.431   1_556 S
C1155  C1156   1.395   .     A
C1156  H1173   1.083   .     S
C1158  H1213   1.084   .     S
H1159  C1266   1.084   1_455 S
H1163  C179    1.110   1_556 S
H1164  C179    1.109   1_556 S
H1167  C1301   1.088   .     S
H1168  N1175   1.029   .     S
H1169  C170    1.078   1_556 S
H1170  C1198   1.083   .     S
N1175  N1176   1.284   .     D
N1175  Zn1188  2.031   .     S
N1176  Zn1187  2.031   .     S
O1177  Zn1187  1.956   .     S
O1177  C1189   1.282   .     S
O1179  Zn1188  1.976   .     S
O1180  Zn1187  1.939   .     S
O1180  C1192   1.297   .     S
O1181  Zn1188  1.894   .     S
O1182  Zn1187  1.976   .     S
O1183  Zn1188  1.956   .     S
O1183  C1248   1.283   1_455 S
O1184  Zn1187  1.894   .     S
O1185  Zn1188  1.939   .     S
O1185  C1249   1.293   1_455 S
C1189  O1233   1.292   .     A
C1189  C1191   1.402   .     S
C1190  C1192   1.456   .     S
C1190  C1206   1.407   .     A
C1190  C1198   1.404   .     A
C1191  C1301   1.336   .     S
C1191  H1390   1.088   .     S
C1192  O1235   1.303   .     A
C1193  C1194   1.402   .     S
C1194  O1236   1.292   .     A
C1194  O1291   1.283   .     S
C1195  C1197   1.446   .     S
C1195  O1238   1.302   .     A
C1195  O1293   1.293   .     S
C1196  C1212   1.388   .     A
C1197  C1212   1.396   .     A
C1197  C1211   1.392   .     A
C1198  C227    1.391   1_556 S
C1199  H1226   1.082   .     S
C1199  C1201   1.393   .     A
C1200  C1206   1.397   .     A
C1200  C229    1.412   1_556 S
C1200  C235    1.407   1_556 S
C1201  H1225   1.080   .     S
C1202  N1230   1.418   .     S
C1202  H1214   1.067   .     S
C1202  O1240   1.219   .     D
C1203  C1209   1.486   .     S
C1203  O1232   1.219   .     D
C1203  H1215   1.086   .     S
C1204  H1220   1.112   .     S
C1204  H1219   1.103   .     S
C1204  C1211   1.534   .     S
C1204  C1205   1.529   .     S
C1205  H1216   1.111   .     S
C1206  C1210   1.408   .     A
C1207  C1211   1.412   .     A
C1208  C1209   1.418   .     A
C1208  C224    1.410   1_556 S
C1208  C235    1.431   1_556 S
C1209  C1210   1.395   .     A
C1210  H1227   1.083   .     S
C1212  H1267   1.084   .     S
H1217  C233    1.110   1_556 S
H1218  C233    1.109   1_556 S
H1221  C1355   1.088   .     S
H1222  N1229   1.029   .     S
H1223  C224    1.078   1_556 S
H1224  C1252   1.083   .     S
N1229  N1230   1.284   .     D
N1229  Zn1242  2.031   .     S
N1230  Zn1241  2.031   .     S
O1231  Zn1241  1.956   .     S
O1231  C1243   1.282   .     S
O1233  Zn1242  1.976   .     S
O1234  Zn1241  1.939   .     S
O1234  C1246   1.297   .     S
O1235  Zn1242  1.894   .     S
O1236  Zn1241  1.976   .     S
O1237  Zn1242  1.956   .     S
O1238  Zn1241  1.894   .     S
O1239  Zn1242  1.939   .     S
C1243  O1287   1.292   .     A
C1243  C1245   1.402   .     S
C1244  C1246   1.456   .     S
C1244  C1260   1.407   .     A
C1244  C1252   1.404   .     A
C1245  C1355   1.336   .     S
C1245  H1444   1.088   .     S
C1246  O1289   1.303   .     A
C1247  C1248   1.402   .     S
C1247  C975    1.336   1_655 S
C1248  O1290   1.292   .     A
C1248  O1183   1.283   1_655 S
C1249  C1251   1.446   .     S
C1249  O1292   1.302   .     A
C1249  O1185   1.293   1_655 S
C1250  C1266   1.388   .     A
C1251  C1266   1.396   .     A
C1251  C1265   1.392   .     A
C1252  C281    1.391   1_556 S
C1253  H1280   1.082   .     S
C1253  C1255   1.393   .     A
C1254  C1260   1.397   .     A
C1254  C283    1.412   1_556 S
C1254  C289    1.407   1_556 S
C1255  H1279   1.080   .     S
C1256  N1284   1.418   .     S
C1256  H1268   1.067   .     S
C1256  O1294   1.219   .     D
C1257  C1263   1.486   .     S
C1257  O1286   1.219   .     D
C1257  H1269   1.086   .     S
C1258  H1274   1.112   .     S
C1258  H1273   1.103   .     S
C1258  C1265   1.534   .     S
C1258  C1259   1.529   .     S
C1259  H1270   1.111   .     S
C1260  C1264   1.408   .     A
C1261  C1265   1.412   .     A
C1262  C1263   1.418   .     A
C1262  C278    1.410   1_556 S
C1262  C289    1.431   1_556 S
C1263  C1264   1.395   .     A
C1264  H1281   1.083   .     S
C1266  H1159   1.084   1_655 S
H1271  C287    1.110   1_556 S
H1272  C287    1.109   1_556 S
H1275  C1409   1.088   .     S
H1276  N1283   1.029   .     S
H1277  C278    1.078   1_556 S
H1278  C1144   1.083   1_655 S
N1283  N1284   1.284   .     D
N1283  Zn1296  2.031   .     S
N1284  Zn1295  2.031   .     S
O1285  Zn1295  1.956   .     S
O1285  C1135   1.282   1_655 S
O1287  Zn1296  1.976   .     S
O1288  Zn1295  1.939   .     S
O1288  C1138   1.297   1_655 S
O1289  Zn1296  1.894   .     S
O1290  Zn1295  1.976   .     S
O1291  Zn1296  1.956   .     S
O1292  Zn1295  1.894   .     S
O1293  Zn1296  1.939   .     S
C1297  O1341   1.292   .     A
C1297  C1299   1.402   .     S
C1297  O1447   1.282   1_455 S
C1298  C1300   1.456   .     S
C1298  C1314   1.407   .     A
C1298  C1306   1.404   .     A
C1299  C1085   1.336   1_465 S
C1299  H1012   1.088   1_565 S
C1300  O1343   1.303   .     A
C1300  O1450   1.297   1_455 S
C1301  C1302   1.402   .     S
C1302  O1344   1.292   .     A
C1302  O1399   1.283   .     S
C1303  C1305   1.446   .     S
C1303  O1346   1.302   .     A
C1303  O1401   1.293   .     S
C1304  C1320   1.388   .     A
C1305  C1320   1.396   .     A
C1305  C1319   1.392   .     A
C1306  C335    1.391   1_556 S
C1306  H1440   1.083   1_455 S
C1307  H1334   1.082   .     S
C1307  C1309   1.393   .     A
C1308  C1314   1.397   .     A
C1308  C337    1.412   1_556 S
C1308  C343    1.407   1_556 S
C1309  H1333   1.080   .     S
C1310  N1338   1.418   .     S
C1310  H1322   1.067   .     S
C1310  O1348   1.219   .     D
C1311  C1317   1.486   .     S
C1311  O1340   1.219   .     D
C1311  H1323   1.086   .     S
C1312  H1328   1.112   .     S
C1312  H1327   1.103   .     S
C1312  C1319   1.534   .     S
C1312  C1313   1.529   .     S
C1313  H1324   1.111   .     S
C1314  C1318   1.408   .     A
C1315  C1319   1.412   .     A
C1316  C1317   1.418   .     A
C1316  C332    1.410   1_556 S
C1316  C343    1.431   1_556 S
C1317  C1318   1.395   .     A
C1318  H1335   1.083   .     S
C1320  H1375   1.084   .     S
H1321  C1428   1.084   1_455 S
H1325  C341    1.110   1_556 S
H1326  C341    1.109   1_556 S
H1329  C977    1.088   1_565 S
H1330  N1337   1.029   .     S
H1331  C332    1.078   1_556 S
H1332  C1360   1.083   .     S
N1337  N1338   1.284   .     D
N1337  Zn1350  2.031   .     S
N1338  Zn1349  2.031   .     S
O1339  Zn1349  1.956   .     S
O1339  C1351   1.282   .     S
O1341  Zn1350  1.976   .     S
O1342  Zn1349  1.939   .     S
O1342  C1354   1.297   .     S
O1343  Zn1350  1.894   .     S
O1344  Zn1349  1.976   .     S
O1345  Zn1350  1.956   .     S
O1345  C1410   1.283   1_455 S
O1346  Zn1349  1.894   .     S
O1347  Zn1350  1.939   .     S
O1347  C1411   1.293   1_455 S
C1351  O1395   1.292   .     A
C1351  C1353   1.402   .     S
C1352  C1354   1.456   .     S
C1352  C1368   1.407   .     A
C1352  C1360   1.404   .     A
C1353  C977    1.336   1_565 S
C1353  H1066   1.088   1_565 S
C1354  O1397   1.303   .     A
C1355  C1356   1.402   .     S
C1356  O1398   1.292   .     A
C1356  O1453   1.283   .     S
C1357  C1359   1.446   .     S
C1357  O1400   1.302   .     A
C1357  O1455   1.293   .     S
C1358  C1374   1.388   .     A
C1359  C1374   1.396   .     A
C1359  C1373   1.392   .     A
C1360  C389    1.391   1_556 S
C1361  H1388   1.082   .     S
C1361  C1363   1.393   .     A
C1362  C1368   1.397   .     A
C1362  C391    1.412   1_556 S
C1362  C397    1.407   1_556 S
C1363  H1387   1.080   .     S
C1364  N1392   1.418   .     S
C1364  H1376   1.067   .     S
C1364  O1402   1.219   .     D
C1365  C1371   1.486   .     S
C1365  O1394   1.219   .     D
C1365  H1377   1.086   .     S
C1366  H1382   1.112   .     S
C1366  H1381   1.103   .     S
C1366  C1373   1.534   .     S
C1366  C1367   1.529   .     S
C1367  H1378   1.111   .     S
C1368  C1372   1.408   .     A
C1369  C1373   1.412   .     A
C1370  C1371   1.418   .     A
C1370  C386    1.410   1_556 S
C1370  C397    1.431   1_556 S
C1371  C1372   1.395   .     A
C1372  H1389   1.083   .     S
C1374  H1429   1.084   .     S
H1379  C395    1.110   1_556 S
H1380  C395    1.109   1_556 S
H1383  C1031   1.088   1_565 S
H1384  N1391   1.029   .     S
H1385  C386    1.078   1_556 S
H1386  C1414   1.083   .     S
N1391  N1392   1.284   .     D
N1391  Zn1404  2.031   .     S
N1392  Zn1403  2.031   .     S
O1393  Zn1403  1.956   .     S
O1393  C1405   1.282   .     S
O1395  Zn1404  1.976   .     S
O1396  Zn1403  1.939   .     S
O1396  C1408   1.297   .     S
O1397  Zn1404  1.894   .     S
O1398  Zn1403  1.976   .     S
O1399  Zn1404  1.956   .     S
O1400  Zn1403  1.894   .     S
O1401  Zn1404  1.939   .     S
C1405  O1449   1.292   .     A
C1405  C1407   1.402   .     S
C1406  C1408   1.456   .     S
C1406  C1422   1.407   .     A
C1406  C1414   1.404   .     A
C1407  C1031   1.336   1_565 S
C1407  H1120   1.088   1_565 S
C1408  O1451   1.303   .     A
C1409  C1410   1.402   .     S
C1409  C1137   1.336   1_655 S
C1410  O1452   1.292   .     A
C1410  O1345   1.283   1_655 S
C1411  C1413   1.446   .     S
C1411  O1454   1.302   .     A
C1411  O1347   1.293   1_655 S
C1412  C1428   1.388   .     A
C1413  C1428   1.396   .     A
C1413  C1427   1.392   .     A
C1414  C443    1.391   1_556 S
C1415  H1442   1.082   .     S
C1415  C1417   1.393   .     A
C1416  C1422   1.397   .     A
C1416  C445    1.412   1_556 S
C1416  C451    1.407   1_556 S
C1417  H1441   1.080   .     S
C1418  N1446   1.418   .     S
C1418  H1430   1.067   .     S
C1418  O1456   1.219   .     D
C1419  C1425   1.486   .     S
C1419  O1448   1.219   .     D
C1419  H1431   1.086   .     S
C1420  H1436   1.112   .     S
C1420  H1435   1.103   .     S
C1420  C1427   1.534   .     S
C1420  C1421   1.529   .     S
C1421  H1432   1.111   .     S
C1422  C1426   1.408   .     A
C1423  C1427   1.412   .     A
C1424  C1425   1.418   .     A
C1424  C440    1.410   1_556 S
C1424  C451    1.431   1_556 S
C1425  C1426   1.395   .     A
C1426  H1443   1.083   .     S
C1428  H1321   1.084   1_655 S
H1433  C449    1.110   1_556 S
H1434  C449    1.109   1_556 S
H1437  C1085   1.088   1_565 S
H1438  N1445   1.029   .     S
H1439  C440    1.078   1_556 S
H1440  C1306   1.083   1_655 S
N1445  N1446   1.284   .     D
N1445  Zn1458  2.031   .     S
N1446  Zn1457  2.031   .     S
O1447  Zn1457  1.956   .     S
O1447  C1297   1.282   1_655 S
O1449  Zn1458  1.976   .     S
O1450  Zn1457  1.939   .     S
O1450  C1300   1.297   1_655 S
O1451  Zn1458  1.894   .     S
O1452  Zn1457  1.976   .     S
O1453  Zn1458  1.956   .     S
O1454  Zn1457  1.894   .     S
O1455  Zn1458  1.939   .     S
