data_str_m1_o10_o16_pcu_sym.249
_audit_creation_date              2020-01-03
_audit_creation_method            'Materials Studio'
_symmetry_space_group_name_H-M    'P1'
_symmetry_Int_Tables_number       1
_symmetry_cell_setting            triclinic
loop_
_symmetry_equiv_pos_as_xyz
  x,y,z
_cell_length_a                    32.6591
_cell_length_b                    32.7137
_cell_length_c                    30.7917
_cell_angle_alpha                 96.6718
_cell_angle_beta                  74.7632
_cell_angle_gamma                 98.9353
loop_
_atom_site_label
_atom_site_type_symbol
_atom_site_fract_x
_atom_site_fract_y
_atom_site_fract_z
_atom_site_U_iso_or_equiv
_atom_site_adp_type
_atom_site_occupancy
C1     C     0.05290   0.15924   0.25966   0.00000  Uiso   1.00
C2     C     0.16750   0.15853   0.05649   0.00000  Uiso   1.00
C3     C     0.23482   0.13593   0.05720   0.00000  Uiso   1.00
C4     C     0.28084   0.17454   0.24065   0.00000  Uiso   1.00
C5     C     0.14397   0.19718   0.42020   0.00000  Uiso   1.00
C6     C     0.32638   0.18130   0.24125   0.00000  Uiso   1.00
C7     C     0.00811   0.15430   0.26120   0.00000  Uiso   1.00
C8     C     0.18217   0.32309   0.23966   0.00000  Uiso   1.00
C9     C     0.15081   0.01211   0.26305   0.00000  Uiso   1.00
C10    C     0.15649   0.05596   0.25956   0.00000  Uiso   1.00
C11    C     0.17673   0.27796   0.24053   0.00000  Uiso   1.00
C12    C     0.10266   0.22664   0.49203   0.00000  Uiso   1.00
C13    C     0.18480   0.14883   0.12903   0.00000  Uiso   1.00
C14    C     0.14921   0.18555   0.37107   0.00000  Uiso   1.00
C15    C     0.25205   0.14361   0.01194   0.00000  Uiso   1.00
C16    C     0.19350   0.14382   0.07985   0.00000  Uiso   1.00
C17    C     0.10636   0.21376   0.44629   0.00000  Uiso   1.00
C18    C     0.25314   0.01135   0.23267   0.00000  Uiso   1.00
C19    C     0.28554   0.12725   0.39257   0.00000  Uiso   1.00
C20    C     0.32359   0.16051   0.00568   0.00000  Uiso   1.00
C21    C     0.10300   0.16534   0.11181   0.00000  Uiso   1.00
C22    C     0.01926   0.22606   0.18397   0.00000  Uiso   1.00
C23    C     0.13223   0.21706   0.01355   0.00000  Uiso   1.00
C24    C     0.16364   0.19180   0.49008   0.00000  Uiso   1.00
C25    C     0.17520   0.19065   0.44258   0.00000  Uiso   1.00
C26    C     0.18654   0.17138   0.01237   0.00000  Uiso   1.00
C27    C     0.22774   0.16106   0.48869   0.00000  Uiso   1.00
C28    C     0.24382   0.16954   0.44278   0.00000  Uiso   1.00
C29    C     0.21821   0.18579   0.42044   0.00000  Uiso   1.00
Cl30   Cl    0.31468   0.10401   0.27405   0.00000  Uiso   1.00
Cl31   Cl    0.09929   0.32515   0.29404   0.00000  Uiso   1.00
Cl32   Cl    0.06382   0.22044   0.42301   0.00000  Uiso   1.00
Cl33   Cl    0.13788   0.24681   0.06388   0.00000  Uiso   1.00
Cl34   Cl    0.06106   0.25520   0.02270   0.00000  Uiso   1.00
Cl35   Cl    0.24494   0.21054   0.37055   0.00000  Uiso   1.00
H36    H     0.25428   0.12419   0.07533   0.00000  Uiso   1.00
H37    H     0.32233   0.15687   0.04146   0.00000  Uiso   1.00
H38    H     0.12355   0.18992   0.12732   0.00000  Uiso   1.00
H39    H     0.08986   0.13984   0.13436   0.00000  Uiso   1.00
H40    H     0.07529   0.17950   0.10883   0.00000  Uiso   1.00
H41    H     0.32879   0.24744   0.18587   0.00000  Uiso   1.00
H42    H     0.01316   0.19751   0.16185   0.00000  Uiso   1.00
H43    H     0.05118   0.24221   0.16781   0.00000  Uiso   1.00
H44    H     0.26197   0.31332   0.23330   0.00000  Uiso   1.00
H45    H     0.24561   0.02692   0.26745   0.00000  Uiso   1.00
H46    H     0.28154   0.03000   0.21243   0.00000  Uiso   1.00
H47    H     0.26788   0.12780   0.36634   0.00000  Uiso   1.00
H48    H     0.27162   0.10011   0.41284   0.00000  Uiso   1.00
H49    H     0.31911   0.12310   0.37504   0.00000  Uiso   1.00
H50    H     0.32079   0.19320   0.00132   0.00000  Uiso   1.00
H51    H     0.02216   0.15355   0.48524   0.00000  Uiso   1.00
O52    O     0.16667   0.16667   0.25000   0.00000  Uiso   1.00
O53    O     0.15451   0.12637   0.15459   0.00000  Uiso   1.00
O54    O     0.12940   0.20391   0.34968   0.00000  Uiso   1.00
O55    O     0.20824   0.17759   0.14606   0.00000  Uiso   1.00
O56    O     0.17451   0.15880   0.34968   0.00000  Uiso   1.00
O57    O     0.21896   0.00946   0.21215   0.00000  Uiso   1.00
O58    O     0.28565   0.16475   0.42030   0.00000  Uiso   1.00
O59    O     0.29203   0.13247   0.49029   0.00000  Uiso   1.00
O60    O     0.12303   0.14884   0.06837   0.00000  Uiso   1.00
O61    O     0.01949   0.21779   0.22787   0.00000  Uiso   1.00
O62    O     0.17930   0.08019   0.28214   0.00000  Uiso   1.00
O63    O     0.14632   0.26085   0.27014   0.00000  Uiso   1.00
O64    O     0.07412   0.13291   0.23413   0.00000  Uiso   1.00
O65    O     0.26693   0.19272   0.21361   0.00000  Uiso   1.00
O66    O     0.07071   0.18878   0.28213   0.00000  Uiso   1.00
O67    O     0.25491   0.15226   0.27014   0.00000  Uiso   1.00
O68    O     0.13760   0.06944   0.23413   0.00000  Uiso   1.00
O69    O     0.20345   0.25620   0.21361   0.00000  Uiso   1.00
Zn70   Zn    0.19338   0.13994   0.28734   0.00000  Uiso   1.00
Zn71   Zn    0.13379   0.12458   0.21876   0.00000  Uiso   1.00
Zn72   Zn    0.21056   0.19775   0.20657   0.00000  Uiso   1.00
Zn73   Zn    0.12893   0.20439   0.28734   0.00000  Uiso   1.00
C74    C     0.38624   0.15924   0.25966   0.00000  Uiso   1.00
C75    C     0.50083   0.15853   0.05649   0.00000  Uiso   1.00
C76    C     0.56815   0.13593   0.05720   0.00000  Uiso   1.00
C77    C     0.61417   0.17454   0.24065   0.00000  Uiso   1.00
C78    C     0.47730   0.19718   0.42020   0.00000  Uiso   1.00
C79    C     0.65971   0.18130   0.24125   0.00000  Uiso   1.00
C80    C     0.34144   0.15430   0.26120   0.00000  Uiso   1.00
C81    C     0.51550   0.32309   0.23966   0.00000  Uiso   1.00
C82    C     0.48414   0.01211   0.26305   0.00000  Uiso   1.00
C83    C     0.48982   0.05596   0.25956   0.00000  Uiso   1.00
C84    C     0.51007   0.27796   0.24053   0.00000  Uiso   1.00
C85    C     0.43599   0.22664   0.49203   0.00000  Uiso   1.00
C86    C     0.51813   0.14883   0.12903   0.00000  Uiso   1.00
C87    C     0.48255   0.18555   0.37107   0.00000  Uiso   1.00
C88    C     0.58539   0.14361   0.01194   0.00000  Uiso   1.00
C89    C     0.52683   0.14382   0.07985   0.00000  Uiso   1.00
C90    C     0.43969   0.21376   0.44629   0.00000  Uiso   1.00
C91    C     0.58647   0.01135   0.23267   0.00000  Uiso   1.00
C92    C     0.61887   0.12725   0.39257   0.00000  Uiso   1.00
C93    C     0.65692   0.16051   0.00568   0.00000  Uiso   1.00
C94    C     0.43633   0.16534   0.11181   0.00000  Uiso   1.00
C95    C     0.35259   0.22606   0.18397   0.00000  Uiso   1.00
C96    C     0.46556   0.21706   0.01355   0.00000  Uiso   1.00
C97    C     0.49697   0.19180   0.49008   0.00000  Uiso   1.00
C98    C     0.50853   0.19065   0.44258   0.00000  Uiso   1.00
C99    C     0.51987   0.17138   0.01237   0.00000  Uiso   1.00
C100   C     0.56108   0.16106   0.48869   0.00000  Uiso   1.00
C101   C     0.57715   0.16954   0.44278   0.00000  Uiso   1.00
C102   C     0.55155   0.18579   0.42044   0.00000  Uiso   1.00
Cl103  Cl    0.64801   0.10401   0.27405   0.00000  Uiso   1.00
Cl104  Cl    0.43262   0.32515   0.29404   0.00000  Uiso   1.00
Cl105  Cl    0.39715   0.22044   0.42301   0.00000  Uiso   1.00
Cl106  Cl    0.47122   0.24681   0.06388   0.00000  Uiso   1.00
Cl107  Cl    0.39439   0.25520   0.02270   0.00000  Uiso   1.00
Cl108  Cl    0.57827   0.21054   0.37055   0.00000  Uiso   1.00
H109   H     0.58762   0.12419   0.07533   0.00000  Uiso   1.00
H110   H     0.65566   0.15687   0.04146   0.00000  Uiso   1.00
H111   H     0.45688   0.18992   0.12732   0.00000  Uiso   1.00
H112   H     0.42320   0.13984   0.13436   0.00000  Uiso   1.00
H113   H     0.40862   0.17950   0.10883   0.00000  Uiso   1.00
H114   H     0.66212   0.24744   0.18587   0.00000  Uiso   1.00
H115   H     0.34649   0.19751   0.16185   0.00000  Uiso   1.00
H116   H     0.38451   0.24221   0.16781   0.00000  Uiso   1.00
H117   H     0.59531   0.31332   0.23330   0.00000  Uiso   1.00
H118   H     0.57894   0.02692   0.26745   0.00000  Uiso   1.00
H119   H     0.61487   0.03000   0.21243   0.00000  Uiso   1.00
H120   H     0.60122   0.12780   0.36634   0.00000  Uiso   1.00
H121   H     0.60495   0.10011   0.41284   0.00000  Uiso   1.00
H122   H     0.65245   0.12310   0.37504   0.00000  Uiso   1.00
H123   H     0.65413   0.19320   0.00132   0.00000  Uiso   1.00
H124   H     0.35550   0.15355   0.48524   0.00000  Uiso   1.00
O125   O     0.50000   0.16667   0.25000   0.00000  Uiso   1.00
O126   O     0.48784   0.12637   0.15459   0.00000  Uiso   1.00
O127   O     0.46274   0.20391   0.34968   0.00000  Uiso   1.00
O128   O     0.54157   0.17759   0.14606   0.00000  Uiso   1.00
O129   O     0.50785   0.15880   0.34968   0.00000  Uiso   1.00
O130   O     0.55230   0.00946   0.21215   0.00000  Uiso   1.00
O131   O     0.61898   0.16475   0.42030   0.00000  Uiso   1.00
O132   O     0.62537   0.13247   0.49029   0.00000  Uiso   1.00
O133   O     0.45637   0.14884   0.06837   0.00000  Uiso   1.00
O134   O     0.35282   0.21779   0.22787   0.00000  Uiso   1.00
O135   O     0.51264   0.08019   0.28214   0.00000  Uiso   1.00
O136   O     0.47965   0.26085   0.27014   0.00000  Uiso   1.00
O137   O     0.40745   0.13291   0.23413   0.00000  Uiso   1.00
O138   O     0.60026   0.19272   0.21361   0.00000  Uiso   1.00
O139   O     0.40405   0.18878   0.28213   0.00000  Uiso   1.00
O140   O     0.58824   0.15226   0.27014   0.00000  Uiso   1.00
O141   O     0.47093   0.06944   0.23413   0.00000  Uiso   1.00
O142   O     0.53678   0.25620   0.21361   0.00000  Uiso   1.00
Zn143  Zn    0.52672   0.13994   0.28734   0.00000  Uiso   1.00
Zn144  Zn    0.46713   0.12458   0.21876   0.00000  Uiso   1.00
Zn145  Zn    0.54389   0.19775   0.20657   0.00000  Uiso   1.00
Zn146  Zn    0.46226   0.20439   0.28734   0.00000  Uiso   1.00
C147   C     0.71957   0.15924   0.25966   0.00000  Uiso   1.00
C148   C     0.83417   0.15853   0.05649   0.00000  Uiso   1.00
C149   C     0.90149   0.13593   0.05720   0.00000  Uiso   1.00
C150   C     0.94750   0.17454   0.24065   0.00000  Uiso   1.00
C151   C     0.81064   0.19718   0.42020   0.00000  Uiso   1.00
C152   C     0.99304   0.18130   0.24125   0.00000  Uiso   1.00
C153   C     0.67477   0.15430   0.26120   0.00000  Uiso   1.00
C154   C     0.84884   0.32309   0.23966   0.00000  Uiso   1.00
C155   C     0.81748   0.01211   0.26305   0.00000  Uiso   1.00
C156   C     0.82316   0.05596   0.25956   0.00000  Uiso   1.00
C157   C     0.84340   0.27796   0.24053   0.00000  Uiso   1.00
C158   C     0.76932   0.22664   0.49203   0.00000  Uiso   1.00
C159   C     0.85147   0.14883   0.12903   0.00000  Uiso   1.00
C160   C     0.81588   0.18555   0.37107   0.00000  Uiso   1.00
C161   C     0.91872   0.14361   0.01194   0.00000  Uiso   1.00
C162   C     0.86016   0.14382   0.07985   0.00000  Uiso   1.00
C163   C     0.77302   0.21376   0.44629   0.00000  Uiso   1.00
C164   C     0.91980   0.01135   0.23267   0.00000  Uiso   1.00
C165   C     0.95220   0.12725   0.39257   0.00000  Uiso   1.00
C166   C     0.99025   0.16051   0.00568   0.00000  Uiso   1.00
C167   C     0.76967   0.16534   0.11181   0.00000  Uiso   1.00
C168   C     0.68593   0.22606   0.18397   0.00000  Uiso   1.00
C169   C     0.79890   0.21706   0.01355   0.00000  Uiso   1.00
C170   C     0.83030   0.19180   0.49008   0.00000  Uiso   1.00
C171   C     0.84187   0.19065   0.44258   0.00000  Uiso   1.00
C172   C     0.85320   0.17138   0.01237   0.00000  Uiso   1.00
C173   C     0.89441   0.16106   0.48869   0.00000  Uiso   1.00
C174   C     0.91048   0.16954   0.44278   0.00000  Uiso   1.00
C175   C     0.88488   0.18579   0.42044   0.00000  Uiso   1.00
Cl176  Cl    0.98135   0.10401   0.27405   0.00000  Uiso   1.00
Cl177  Cl    0.76595   0.32515   0.29404   0.00000  Uiso   1.00
Cl178  Cl    0.73049   0.22044   0.42301   0.00000  Uiso   1.00
Cl179  Cl    0.80455   0.24681   0.06388   0.00000  Uiso   1.00
Cl180  Cl    0.72773   0.25520   0.02270   0.00000  Uiso   1.00
Cl181  Cl    0.91160   0.21054   0.37055   0.00000  Uiso   1.00
H182   H     0.92095   0.12419   0.07533   0.00000  Uiso   1.00
H183   H     0.98899   0.15687   0.04146   0.00000  Uiso   1.00
H184   H     0.79021   0.18992   0.12732   0.00000  Uiso   1.00
H185   H     0.75653   0.13984   0.13436   0.00000  Uiso   1.00
H186   H     0.74196   0.17950   0.10883   0.00000  Uiso   1.00
H187   H     0.99545   0.24744   0.18587   0.00000  Uiso   1.00
H188   H     0.67982   0.19751   0.16185   0.00000  Uiso   1.00
H189   H     0.71785   0.24221   0.16781   0.00000  Uiso   1.00
H190   H     0.92864   0.31332   0.23330   0.00000  Uiso   1.00
H191   H     0.91228   0.02692   0.26745   0.00000  Uiso   1.00
H192   H     0.94821   0.03000   0.21243   0.00000  Uiso   1.00
H193   H     0.93455   0.12780   0.36634   0.00000  Uiso   1.00
H194   H     0.93829   0.10011   0.41284   0.00000  Uiso   1.00
H195   H     0.98578   0.12310   0.37504   0.00000  Uiso   1.00
H196   H     0.98746   0.19320   0.00132   0.00000  Uiso   1.00
H197   H     0.68883   0.15355   0.48524   0.00000  Uiso   1.00
O198   O     0.83333   0.16667   0.25000   0.00000  Uiso   1.00
O199   O     0.82118   0.12637   0.15459   0.00000  Uiso   1.00
O200   O     0.79607   0.20391   0.34968   0.00000  Uiso   1.00
O201   O     0.87491   0.17759   0.14606   0.00000  Uiso   1.00
O202   O     0.84118   0.15880   0.34968   0.00000  Uiso   1.00
O203   O     0.88563   0.00946   0.21215   0.00000  Uiso   1.00
O204   O     0.95231   0.16475   0.42030   0.00000  Uiso   1.00
O205   O     0.95870   0.13247   0.49029   0.00000  Uiso   1.00
O206   O     0.78970   0.14884   0.06837   0.00000  Uiso   1.00
O207   O     0.68615   0.21779   0.22787   0.00000  Uiso   1.00
O208   O     0.84597   0.08019   0.28214   0.00000  Uiso   1.00
O209   O     0.81298   0.26085   0.27014   0.00000  Uiso   1.00
O210   O     0.74078   0.13291   0.23413   0.00000  Uiso   1.00
O211   O     0.93360   0.19272   0.21361   0.00000  Uiso   1.00
O212   O     0.73738   0.18878   0.28213   0.00000  Uiso   1.00
O213   O     0.92158   0.15226   0.27014   0.00000  Uiso   1.00
O214   O     0.80426   0.06944   0.23413   0.00000  Uiso   1.00
O215   O     0.87012   0.25620   0.21361   0.00000  Uiso   1.00
Zn216  Zn    0.86005   0.13994   0.28734   0.00000  Uiso   1.00
Zn217  Zn    0.80046   0.12458   0.21876   0.00000  Uiso   1.00
Zn218  Zn    0.87723   0.19775   0.20657   0.00000  Uiso   1.00
Zn219  Zn    0.79560   0.20439   0.28734   0.00000  Uiso   1.00
C220   C     0.05290   0.49257   0.25966   0.00000  Uiso   1.00
C221   C     0.16750   0.49187   0.05649   0.00000  Uiso   1.00
C222   C     0.23482   0.46927   0.05720   0.00000  Uiso   1.00
C223   C     0.28084   0.50787   0.24065   0.00000  Uiso   1.00
C224   C     0.14397   0.53052   0.42020   0.00000  Uiso   1.00
C225   C     0.32638   0.51463   0.24125   0.00000  Uiso   1.00
C226   C     0.00811   0.48763   0.26120   0.00000  Uiso   1.00
C227   C     0.18217   0.65642   0.23966   0.00000  Uiso   1.00
C228   C     0.15081   0.34544   0.26305   0.00000  Uiso   1.00
C229   C     0.15649   0.38929   0.25956   0.00000  Uiso   1.00
C230   C     0.17673   0.61129   0.24053   0.00000  Uiso   1.00
C231   C     0.10266   0.55997   0.49203   0.00000  Uiso   1.00
C232   C     0.18480   0.48216   0.12903   0.00000  Uiso   1.00
C233   C     0.14921   0.51888   0.37107   0.00000  Uiso   1.00
C234   C     0.25205   0.47694   0.01194   0.00000  Uiso   1.00
C235   C     0.19350   0.47715   0.07985   0.00000  Uiso   1.00
C236   C     0.10636   0.54709   0.44629   0.00000  Uiso   1.00
C237   C     0.25314   0.34468   0.23267   0.00000  Uiso   1.00
C238   C     0.28554   0.46059   0.39257   0.00000  Uiso   1.00
C239   C     0.32359   0.49384   0.00568   0.00000  Uiso   1.00
C240   C     0.10300   0.49867   0.11181   0.00000  Uiso   1.00
C241   C     0.01926   0.55939   0.18397   0.00000  Uiso   1.00
C242   C     0.13223   0.55039   0.01355   0.00000  Uiso   1.00
C243   C     0.16364   0.52513   0.49008   0.00000  Uiso   1.00
C244   C     0.17520   0.52398   0.44258   0.00000  Uiso   1.00
C245   C     0.18654   0.50471   0.01237   0.00000  Uiso   1.00
C246   C     0.22774   0.49440   0.48869   0.00000  Uiso   1.00
C247   C     0.24382   0.50288   0.44278   0.00000  Uiso   1.00
C248   C     0.21821   0.51912   0.42044   0.00000  Uiso   1.00
Cl249  Cl    0.31468   0.43735   0.27405   0.00000  Uiso   1.00
Cl250  Cl    0.09929   0.65848   0.29404   0.00000  Uiso   1.00
Cl251  Cl    0.06382   0.55378   0.42301   0.00000  Uiso   1.00
Cl252  Cl    0.13788   0.58014   0.06388   0.00000  Uiso   1.00
Cl253  Cl    0.06106   0.58853   0.02270   0.00000  Uiso   1.00
Cl254  Cl    0.24494   0.54387   0.37055   0.00000  Uiso   1.00
H255   H     0.25428   0.45752   0.07533   0.00000  Uiso   1.00
H256   H     0.32233   0.49020   0.04146   0.00000  Uiso   1.00
H257   H     0.12355   0.52326   0.12732   0.00000  Uiso   1.00
H258   H     0.08986   0.47318   0.13436   0.00000  Uiso   1.00
H259   H     0.07529   0.51283   0.10883   0.00000  Uiso   1.00
H260   H     0.32879   0.58077   0.18587   0.00000  Uiso   1.00
H261   H     0.01316   0.53084   0.16185   0.00000  Uiso   1.00
H262   H     0.05118   0.57554   0.16781   0.00000  Uiso   1.00
H263   H     0.26197   0.64665   0.23330   0.00000  Uiso   1.00
H264   H     0.24561   0.36025   0.26745   0.00000  Uiso   1.00
H265   H     0.28154   0.36334   0.21243   0.00000  Uiso   1.00
H266   H     0.26788   0.46113   0.36634   0.00000  Uiso   1.00
H267   H     0.27162   0.43344   0.41284   0.00000  Uiso   1.00
H268   H     0.31911   0.45643   0.37504   0.00000  Uiso   1.00
H269   H     0.32079   0.52653   0.00132   0.00000  Uiso   1.00
H270   H     0.02216   0.48688   0.48524   0.00000  Uiso   1.00
O271   O     0.16667   0.50000   0.25000   0.00000  Uiso   1.00
O272   O     0.15451   0.45970   0.15459   0.00000  Uiso   1.00
O273   O     0.12940   0.53724   0.34968   0.00000  Uiso   1.00
O274   O     0.20824   0.51092   0.14606   0.00000  Uiso   1.00
O275   O     0.17451   0.49213   0.34968   0.00000  Uiso   1.00
O276   O     0.21896   0.34279   0.21215   0.00000  Uiso   1.00
O277   O     0.28565   0.49808   0.42030   0.00000  Uiso   1.00
O278   O     0.29203   0.46580   0.49029   0.00000  Uiso   1.00
O279   O     0.12303   0.48217   0.06837   0.00000  Uiso   1.00
O280   O     0.01949   0.55113   0.22787   0.00000  Uiso   1.00
O281   O     0.17930   0.41352   0.28214   0.00000  Uiso   1.00
O282   O     0.14632   0.59418   0.27014   0.00000  Uiso   1.00
O283   O     0.07412   0.46625   0.23413   0.00000  Uiso   1.00
O284   O     0.26693   0.52605   0.21361   0.00000  Uiso   1.00
O285   O     0.07071   0.52211   0.28213   0.00000  Uiso   1.00
O286   O     0.25491   0.48559   0.27014   0.00000  Uiso   1.00
O287   O     0.13760   0.40277   0.23413   0.00000  Uiso   1.00
O288   O     0.20345   0.58953   0.21361   0.00000  Uiso   1.00
Zn289  Zn    0.19338   0.47327   0.28734   0.00000  Uiso   1.00
Zn290  Zn    0.13379   0.45791   0.21876   0.00000  Uiso   1.00
Zn291  Zn    0.21056   0.53109   0.20657   0.00000  Uiso   1.00
Zn292  Zn    0.12893   0.53773   0.28734   0.00000  Uiso   1.00
C293   C     0.38624   0.49257   0.25966   0.00000  Uiso   1.00
C294   C     0.50083   0.49187   0.05649   0.00000  Uiso   1.00
C295   C     0.56815   0.46927   0.05720   0.00000  Uiso   1.00
C296   C     0.61417   0.50787   0.24065   0.00000  Uiso   1.00
C297   C     0.47730   0.53052   0.42020   0.00000  Uiso   1.00
C298   C     0.65971   0.51463   0.24125   0.00000  Uiso   1.00
C299   C     0.34144   0.48763   0.26120   0.00000  Uiso   1.00
C300   C     0.51550   0.65642   0.23966   0.00000  Uiso   1.00
C301   C     0.48414   0.34544   0.26305   0.00000  Uiso   1.00
C302   C     0.48982   0.38929   0.25956   0.00000  Uiso   1.00
C303   C     0.51007   0.61129   0.24053   0.00000  Uiso   1.00
C304   C     0.43599   0.55997   0.49203   0.00000  Uiso   1.00
C305   C     0.51813   0.48216   0.12903   0.00000  Uiso   1.00
C306   C     0.48255   0.51888   0.37107   0.00000  Uiso   1.00
C307   C     0.58539   0.47694   0.01194   0.00000  Uiso   1.00
C308   C     0.52683   0.47715   0.07985   0.00000  Uiso   1.00
C309   C     0.43969   0.54709   0.44629   0.00000  Uiso   1.00
C310   C     0.58647   0.34468   0.23267   0.00000  Uiso   1.00
C311   C     0.61887   0.46059   0.39257   0.00000  Uiso   1.00
C312   C     0.65692   0.49384   0.00568   0.00000  Uiso   1.00
C313   C     0.43633   0.49867   0.11181   0.00000  Uiso   1.00
C314   C     0.35259   0.55939   0.18397   0.00000  Uiso   1.00
C315   C     0.46556   0.55039   0.01355   0.00000  Uiso   1.00
C316   C     0.49697   0.52513   0.49008   0.00000  Uiso   1.00
C317   C     0.50853   0.52398   0.44258   0.00000  Uiso   1.00
C318   C     0.51987   0.50471   0.01237   0.00000  Uiso   1.00
C319   C     0.56108   0.49440   0.48869   0.00000  Uiso   1.00
C320   C     0.57715   0.50288   0.44278   0.00000  Uiso   1.00
C321   C     0.55155   0.51912   0.42044   0.00000  Uiso   1.00
Cl322  Cl    0.64801   0.43735   0.27405   0.00000  Uiso   1.00
Cl323  Cl    0.43262   0.65848   0.29404   0.00000  Uiso   1.00
Cl324  Cl    0.39715   0.55378   0.42301   0.00000  Uiso   1.00
Cl325  Cl    0.47122   0.58014   0.06388   0.00000  Uiso   1.00
Cl326  Cl    0.39439   0.58853   0.02270   0.00000  Uiso   1.00
Cl327  Cl    0.57827   0.54387   0.37055   0.00000  Uiso   1.00
H328   H     0.58762   0.45752   0.07533   0.00000  Uiso   1.00
H329   H     0.65566   0.49020   0.04146   0.00000  Uiso   1.00
H330   H     0.45688   0.52326   0.12732   0.00000  Uiso   1.00
H331   H     0.42320   0.47318   0.13436   0.00000  Uiso   1.00
H332   H     0.40862   0.51283   0.10883   0.00000  Uiso   1.00
H333   H     0.66212   0.58077   0.18587   0.00000  Uiso   1.00
H334   H     0.34649   0.53084   0.16185   0.00000  Uiso   1.00
H335   H     0.38451   0.57554   0.16781   0.00000  Uiso   1.00
H336   H     0.59531   0.64665   0.23330   0.00000  Uiso   1.00
H337   H     0.57894   0.36025   0.26745   0.00000  Uiso   1.00
H338   H     0.61487   0.36334   0.21243   0.00000  Uiso   1.00
H339   H     0.60122   0.46113   0.36634   0.00000  Uiso   1.00
H340   H     0.60495   0.43344   0.41284   0.00000  Uiso   1.00
H341   H     0.65245   0.45643   0.37504   0.00000  Uiso   1.00
H342   H     0.65413   0.52653   0.00132   0.00000  Uiso   1.00
H343   H     0.35550   0.48688   0.48524   0.00000  Uiso   1.00
O344   O     0.50000   0.50000   0.25000   0.00000  Uiso   1.00
O345   O     0.48784   0.45970   0.15459   0.00000  Uiso   1.00
O346   O     0.46274   0.53724   0.34968   0.00000  Uiso   1.00
O347   O     0.54157   0.51092   0.14606   0.00000  Uiso   1.00
O348   O     0.50785   0.49213   0.34968   0.00000  Uiso   1.00
O349   O     0.55230   0.34279   0.21215   0.00000  Uiso   1.00
O350   O     0.61898   0.49808   0.42030   0.00000  Uiso   1.00
O351   O     0.62537   0.46580   0.49029   0.00000  Uiso   1.00
O352   O     0.45637   0.48217   0.06837   0.00000  Uiso   1.00
O353   O     0.35282   0.55113   0.22787   0.00000  Uiso   1.00
O354   O     0.51264   0.41352   0.28214   0.00000  Uiso   1.00
O355   O     0.47965   0.59418   0.27014   0.00000  Uiso   1.00
O356   O     0.40745   0.46625   0.23413   0.00000  Uiso   1.00
O357   O     0.60026   0.52605   0.21361   0.00000  Uiso   1.00
O358   O     0.40405   0.52211   0.28213   0.00000  Uiso   1.00
O359   O     0.58824   0.48559   0.27014   0.00000  Uiso   1.00
O360   O     0.47093   0.40277   0.23413   0.00000  Uiso   1.00
O361   O     0.53678   0.58953   0.21361   0.00000  Uiso   1.00
Zn362  Zn    0.52672   0.47327   0.28734   0.00000  Uiso   1.00
Zn363  Zn    0.46713   0.45791   0.21876   0.00000  Uiso   1.00
Zn364  Zn    0.54389   0.53109   0.20657   0.00000  Uiso   1.00
Zn365  Zn    0.46226   0.53773   0.28734   0.00000  Uiso   1.00
C366   C     0.71957   0.49257   0.25966   0.00000  Uiso   1.00
C367   C     0.83417   0.49187   0.05649   0.00000  Uiso   1.00
C368   C     0.90149   0.46927   0.05720   0.00000  Uiso   1.00
C369   C     0.94750   0.50787   0.24065   0.00000  Uiso   1.00
C370   C     0.81064   0.53052   0.42020   0.00000  Uiso   1.00
C371   C     0.99304   0.51463   0.24125   0.00000  Uiso   1.00
C372   C     0.67477   0.48763   0.26120   0.00000  Uiso   1.00
C373   C     0.84884   0.65642   0.23966   0.00000  Uiso   1.00
C374   C     0.81748   0.34544   0.26305   0.00000  Uiso   1.00
C375   C     0.82316   0.38929   0.25956   0.00000  Uiso   1.00
C376   C     0.84340   0.61129   0.24053   0.00000  Uiso   1.00
C377   C     0.76932   0.55997   0.49203   0.00000  Uiso   1.00
C378   C     0.85147   0.48216   0.12903   0.00000  Uiso   1.00
C379   C     0.81588   0.51888   0.37107   0.00000  Uiso   1.00
C380   C     0.91872   0.47694   0.01194   0.00000  Uiso   1.00
C381   C     0.86016   0.47715   0.07985   0.00000  Uiso   1.00
C382   C     0.77302   0.54709   0.44629   0.00000  Uiso   1.00
C383   C     0.91980   0.34468   0.23267   0.00000  Uiso   1.00
C384   C     0.95220   0.46059   0.39257   0.00000  Uiso   1.00
C385   C     0.99025   0.49384   0.00568   0.00000  Uiso   1.00
C386   C     0.76967   0.49867   0.11181   0.00000  Uiso   1.00
C387   C     0.68593   0.55939   0.18397   0.00000  Uiso   1.00
C388   C     0.79890   0.55039   0.01355   0.00000  Uiso   1.00
C389   C     0.83030   0.52513   0.49008   0.00000  Uiso   1.00
C390   C     0.84187   0.52398   0.44258   0.00000  Uiso   1.00
C391   C     0.85320   0.50471   0.01237   0.00000  Uiso   1.00
C392   C     0.89441   0.49440   0.48869   0.00000  Uiso   1.00
C393   C     0.91048   0.50288   0.44278   0.00000  Uiso   1.00
C394   C     0.88488   0.51912   0.42044   0.00000  Uiso   1.00
Cl395  Cl    0.98135   0.43735   0.27405   0.00000  Uiso   1.00
Cl396  Cl    0.76595   0.65848   0.29404   0.00000  Uiso   1.00
Cl397  Cl    0.73049   0.55378   0.42301   0.00000  Uiso   1.00
Cl398  Cl    0.80455   0.58014   0.06388   0.00000  Uiso   1.00
Cl399  Cl    0.72773   0.58853   0.02270   0.00000  Uiso   1.00
Cl400  Cl    0.91160   0.54387   0.37055   0.00000  Uiso   1.00
H401   H     0.92095   0.45752   0.07533   0.00000  Uiso   1.00
H402   H     0.98899   0.49020   0.04146   0.00000  Uiso   1.00
H403   H     0.79021   0.52326   0.12732   0.00000  Uiso   1.00
H404   H     0.75653   0.47318   0.13436   0.00000  Uiso   1.00
H405   H     0.74196   0.51283   0.10883   0.00000  Uiso   1.00
H406   H     0.99545   0.58077   0.18587   0.00000  Uiso   1.00
H407   H     0.67982   0.53084   0.16185   0.00000  Uiso   1.00
H408   H     0.71785   0.57554   0.16781   0.00000  Uiso   1.00
H409   H     0.92864   0.64665   0.23330   0.00000  Uiso   1.00
H410   H     0.91228   0.36025   0.26745   0.00000  Uiso   1.00
H411   H     0.94821   0.36334   0.21243   0.00000  Uiso   1.00
H412   H     0.93455   0.46113   0.36634   0.00000  Uiso   1.00
H413   H     0.93829   0.43344   0.41284   0.00000  Uiso   1.00
H414   H     0.98578   0.45643   0.37504   0.00000  Uiso   1.00
H415   H     0.98746   0.52653   0.00132   0.00000  Uiso   1.00
H416   H     0.68883   0.48688   0.48524   0.00000  Uiso   1.00
O417   O     0.83333   0.50000   0.25000   0.00000  Uiso   1.00
O418   O     0.82118   0.45970   0.15459   0.00000  Uiso   1.00
O419   O     0.79607   0.53724   0.34968   0.00000  Uiso   1.00
O420   O     0.87491   0.51092   0.14606   0.00000  Uiso   1.00
O421   O     0.84118   0.49213   0.34968   0.00000  Uiso   1.00
O422   O     0.88563   0.34279   0.21215   0.00000  Uiso   1.00
O423   O     0.95231   0.49808   0.42030   0.00000  Uiso   1.00
O424   O     0.95870   0.46580   0.49029   0.00000  Uiso   1.00
O425   O     0.78970   0.48217   0.06837   0.00000  Uiso   1.00
O426   O     0.68615   0.55113   0.22787   0.00000  Uiso   1.00
O427   O     0.84597   0.41352   0.28214   0.00000  Uiso   1.00
O428   O     0.81298   0.59418   0.27014   0.00000  Uiso   1.00
O429   O     0.74078   0.46625   0.23413   0.00000  Uiso   1.00
O430   O     0.93360   0.52605   0.21361   0.00000  Uiso   1.00
O431   O     0.73738   0.52211   0.28213   0.00000  Uiso   1.00
O432   O     0.92158   0.48559   0.27014   0.00000  Uiso   1.00
O433   O     0.80426   0.40277   0.23413   0.00000  Uiso   1.00
O434   O     0.87012   0.58953   0.21361   0.00000  Uiso   1.00
Zn435  Zn    0.86005   0.47327   0.28734   0.00000  Uiso   1.00
Zn436  Zn    0.80046   0.45791   0.21876   0.00000  Uiso   1.00
Zn437  Zn    0.87723   0.53109   0.20657   0.00000  Uiso   1.00
Zn438  Zn    0.79560   0.53773   0.28734   0.00000  Uiso   1.00
C439   C     0.05290   0.82590   0.25966   0.00000  Uiso   1.00
C440   C     0.16750   0.82520   0.05649   0.00000  Uiso   1.00
C441   C     0.23482   0.80260   0.05720   0.00000  Uiso   1.00
C442   C     0.28084   0.84120   0.24065   0.00000  Uiso   1.00
C443   C     0.14397   0.86385   0.42020   0.00000  Uiso   1.00
C444   C     0.32638   0.84797   0.24125   0.00000  Uiso   1.00
C445   C     0.00811   0.82096   0.26120   0.00000  Uiso   1.00
C446   C     0.18217   0.98976   0.23966   0.00000  Uiso   1.00
C447   C     0.15081   0.67878   0.26305   0.00000  Uiso   1.00
C448   C     0.15649   0.72263   0.25956   0.00000  Uiso   1.00
C449   C     0.17673   0.94463   0.24053   0.00000  Uiso   1.00
C450   C     0.10266   0.89330   0.49203   0.00000  Uiso   1.00
C451   C     0.18480   0.81550   0.12903   0.00000  Uiso   1.00
C452   C     0.14921   0.85221   0.37107   0.00000  Uiso   1.00
C453   C     0.25205   0.81028   0.01194   0.00000  Uiso   1.00
C454   C     0.19350   0.81049   0.07985   0.00000  Uiso   1.00
C455   C     0.10636   0.88042   0.44629   0.00000  Uiso   1.00
C456   C     0.25314   0.67801   0.23267   0.00000  Uiso   1.00
C457   C     0.28554   0.79392   0.39257   0.00000  Uiso   1.00
C458   C     0.32359   0.82717   0.00568   0.00000  Uiso   1.00
C459   C     0.10300   0.83201   0.11181   0.00000  Uiso   1.00
C460   C     0.01926   0.89273   0.18397   0.00000  Uiso   1.00
C461   C     0.13223   0.88373   0.01355   0.00000  Uiso   1.00
C462   C     0.16364   0.85847   0.49008   0.00000  Uiso   1.00
C463   C     0.17520   0.85731   0.44258   0.00000  Uiso   1.00
C464   C     0.18654   0.83804   0.01237   0.00000  Uiso   1.00
C465   C     0.22774   0.82773   0.48869   0.00000  Uiso   1.00
C466   C     0.24382   0.83621   0.44278   0.00000  Uiso   1.00
C467   C     0.21821   0.85245   0.42044   0.00000  Uiso   1.00
Cl468  Cl    0.31468   0.77068   0.27405   0.00000  Uiso   1.00
Cl469  Cl    0.09929   0.99182   0.29404   0.00000  Uiso   1.00
Cl470  Cl    0.06382   0.88711   0.42301   0.00000  Uiso   1.00
Cl471  Cl    0.13788   0.91347   0.06388   0.00000  Uiso   1.00
Cl472  Cl    0.06106   0.92186   0.02270   0.00000  Uiso   1.00
Cl473  Cl    0.24494   0.87721   0.37055   0.00000  Uiso   1.00
H474   H     0.25428   0.79086   0.07533   0.00000  Uiso   1.00
H475   H     0.32233   0.82353   0.04146   0.00000  Uiso   1.00
H476   H     0.12355   0.85659   0.12732   0.00000  Uiso   1.00
H477   H     0.08986   0.80651   0.13436   0.00000  Uiso   1.00
H478   H     0.07529   0.84616   0.10883   0.00000  Uiso   1.00
H479   H     0.32879   0.91411   0.18587   0.00000  Uiso   1.00
H480   H     0.01316   0.86418   0.16185   0.00000  Uiso   1.00
H481   H     0.05118   0.90888   0.16781   0.00000  Uiso   1.00
H482   H     0.26197   0.97999   0.23330   0.00000  Uiso   1.00
H483   H     0.24561   0.69358   0.26745   0.00000  Uiso   1.00
H484   H     0.28154   0.69667   0.21243   0.00000  Uiso   1.00
H485   H     0.26788   0.79447   0.36634   0.00000  Uiso   1.00
H486   H     0.27162   0.76677   0.41284   0.00000  Uiso   1.00
H487   H     0.31911   0.78976   0.37504   0.00000  Uiso   1.00
H488   H     0.32079   0.85986   0.00132   0.00000  Uiso   1.00
H489   H     0.02216   0.82022   0.48524   0.00000  Uiso   1.00
O490   O     0.16667   0.83333   0.25000   0.00000  Uiso   1.00
O491   O     0.15451   0.79304   0.15459   0.00000  Uiso   1.00
O492   O     0.12940   0.87058   0.34968   0.00000  Uiso   1.00
O493   O     0.20824   0.84425   0.14606   0.00000  Uiso   1.00
O494   O     0.17451   0.82546   0.34968   0.00000  Uiso   1.00
O495   O     0.21896   0.67612   0.21215   0.00000  Uiso   1.00
O496   O     0.28565   0.83142   0.42030   0.00000  Uiso   1.00
O497   O     0.29203   0.79913   0.49029   0.00000  Uiso   1.00
O498   O     0.12303   0.81550   0.06837   0.00000  Uiso   1.00
O499   O     0.01949   0.88446   0.22787   0.00000  Uiso   1.00
O500   O     0.17930   0.74686   0.28214   0.00000  Uiso   1.00
O501   O     0.14632   0.92751   0.27014   0.00000  Uiso   1.00
O502   O     0.07412   0.79958   0.23413   0.00000  Uiso   1.00
O503   O     0.26693   0.85939   0.21361   0.00000  Uiso   1.00
O504   O     0.07071   0.85544   0.28213   0.00000  Uiso   1.00
O505   O     0.25491   0.81892   0.27014   0.00000  Uiso   1.00
O506   O     0.13760   0.73610   0.23413   0.00000  Uiso   1.00
O507   O     0.20345   0.92286   0.21361   0.00000  Uiso   1.00
Zn508  Zn    0.19338   0.80661   0.28734   0.00000  Uiso   1.00
Zn509  Zn    0.13379   0.79124   0.21876   0.00000  Uiso   1.00
Zn510  Zn    0.21056   0.86442   0.20657   0.00000  Uiso   1.00
Zn511  Zn    0.12893   0.87106   0.28734   0.00000  Uiso   1.00
C512   C     0.38624   0.82590   0.25966   0.00000  Uiso   1.00
C513   C     0.50083   0.82520   0.05649   0.00000  Uiso   1.00
C514   C     0.56815   0.80260   0.05720   0.00000  Uiso   1.00
C515   C     0.61417   0.84120   0.24065   0.00000  Uiso   1.00
C516   C     0.47730   0.86385   0.42020   0.00000  Uiso   1.00
C517   C     0.65971   0.84797   0.24125   0.00000  Uiso   1.00
C518   C     0.34144   0.82096   0.26120   0.00000  Uiso   1.00
C519   C     0.51550   0.98976   0.23966   0.00000  Uiso   1.00
C520   C     0.48414   0.67878   0.26305   0.00000  Uiso   1.00
C521   C     0.48982   0.72263   0.25956   0.00000  Uiso   1.00
C522   C     0.51007   0.94463   0.24053   0.00000  Uiso   1.00
C523   C     0.43599   0.89330   0.49203   0.00000  Uiso   1.00
C524   C     0.51813   0.81550   0.12903   0.00000  Uiso   1.00
C525   C     0.48255   0.85221   0.37107   0.00000  Uiso   1.00
C526   C     0.58539   0.81028   0.01194   0.00000  Uiso   1.00
C527   C     0.52683   0.81049   0.07985   0.00000  Uiso   1.00
C528   C     0.43969   0.88042   0.44629   0.00000  Uiso   1.00
C529   C     0.58647   0.67801   0.23267   0.00000  Uiso   1.00
C530   C     0.61887   0.79392   0.39257   0.00000  Uiso   1.00
C531   C     0.65692   0.82717   0.00568   0.00000  Uiso   1.00
C532   C     0.43633   0.83201   0.11181   0.00000  Uiso   1.00
C533   C     0.35259   0.89273   0.18397   0.00000  Uiso   1.00
C534   C     0.46556   0.88373   0.01355   0.00000  Uiso   1.00
C535   C     0.49697   0.85847   0.49008   0.00000  Uiso   1.00
C536   C     0.50853   0.85731   0.44258   0.00000  Uiso   1.00
C537   C     0.51987   0.83804   0.01237   0.00000  Uiso   1.00
C538   C     0.56108   0.82773   0.48869   0.00000  Uiso   1.00
C539   C     0.57715   0.83621   0.44278   0.00000  Uiso   1.00
C540   C     0.55155   0.85245   0.42044   0.00000  Uiso   1.00
Cl541  Cl    0.64801   0.77068   0.27405   0.00000  Uiso   1.00
Cl542  Cl    0.43262   0.99182   0.29404   0.00000  Uiso   1.00
Cl543  Cl    0.39715   0.88711   0.42301   0.00000  Uiso   1.00
Cl544  Cl    0.47122   0.91347   0.06388   0.00000  Uiso   1.00
Cl545  Cl    0.39439   0.92186   0.02270   0.00000  Uiso   1.00
Cl546  Cl    0.57827   0.87721   0.37055   0.00000  Uiso   1.00
H547   H     0.58762   0.79086   0.07533   0.00000  Uiso   1.00
H548   H     0.65566   0.82353   0.04146   0.00000  Uiso   1.00
H549   H     0.45688   0.85659   0.12732   0.00000  Uiso   1.00
H550   H     0.42320   0.80651   0.13436   0.00000  Uiso   1.00
H551   H     0.40862   0.84616   0.10883   0.00000  Uiso   1.00
H552   H     0.66212   0.91411   0.18587   0.00000  Uiso   1.00
H553   H     0.34649   0.86418   0.16185   0.00000  Uiso   1.00
H554   H     0.38451   0.90888   0.16781   0.00000  Uiso   1.00
H555   H     0.59531   0.97999   0.23330   0.00000  Uiso   1.00
H556   H     0.57894   0.69358   0.26745   0.00000  Uiso   1.00
H557   H     0.61487   0.69667   0.21243   0.00000  Uiso   1.00
H558   H     0.60122   0.79447   0.36634   0.00000  Uiso   1.00
H559   H     0.60495   0.76677   0.41284   0.00000  Uiso   1.00
H560   H     0.65245   0.78976   0.37504   0.00000  Uiso   1.00
H561   H     0.65413   0.85986   0.00132   0.00000  Uiso   1.00
H562   H     0.35550   0.82022   0.48524   0.00000  Uiso   1.00
O563   O     0.50000   0.83333   0.25000   0.00000  Uiso   1.00
O564   O     0.48784   0.79304   0.15459   0.00000  Uiso   1.00
O565   O     0.46274   0.87058   0.34968   0.00000  Uiso   1.00
O566   O     0.54157   0.84425   0.14606   0.00000  Uiso   1.00
O567   O     0.50785   0.82546   0.34968   0.00000  Uiso   1.00
O568   O     0.55230   0.67612   0.21215   0.00000  Uiso   1.00
O569   O     0.61898   0.83142   0.42030   0.00000  Uiso   1.00
O570   O     0.62537   0.79913   0.49029   0.00000  Uiso   1.00
O571   O     0.45637   0.81550   0.06837   0.00000  Uiso   1.00
O572   O     0.35282   0.88446   0.22787   0.00000  Uiso   1.00
O573   O     0.51264   0.74686   0.28214   0.00000  Uiso   1.00
O574   O     0.47965   0.92751   0.27014   0.00000  Uiso   1.00
O575   O     0.40745   0.79958   0.23413   0.00000  Uiso   1.00
O576   O     0.60026   0.85939   0.21361   0.00000  Uiso   1.00
O577   O     0.40405   0.85544   0.28213   0.00000  Uiso   1.00
O578   O     0.58824   0.81892   0.27014   0.00000  Uiso   1.00
O579   O     0.47093   0.73610   0.23413   0.00000  Uiso   1.00
O580   O     0.53678   0.92286   0.21361   0.00000  Uiso   1.00
Zn581  Zn    0.52672   0.80661   0.28734   0.00000  Uiso   1.00
Zn582  Zn    0.46713   0.79124   0.21876   0.00000  Uiso   1.00
Zn583  Zn    0.54389   0.86442   0.20657   0.00000  Uiso   1.00
Zn584  Zn    0.46226   0.87106   0.28734   0.00000  Uiso   1.00
C585   C     0.71957   0.82590   0.25966   0.00000  Uiso   1.00
C586   C     0.83417   0.82520   0.05649   0.00000  Uiso   1.00
C587   C     0.90149   0.80260   0.05720   0.00000  Uiso   1.00
C588   C     0.94750   0.84120   0.24065   0.00000  Uiso   1.00
C589   C     0.81064   0.86385   0.42020   0.00000  Uiso   1.00
C590   C     0.99304   0.84797   0.24125   0.00000  Uiso   1.00
C591   C     0.67477   0.82096   0.26120   0.00000  Uiso   1.00
C592   C     0.84884   0.98976   0.23966   0.00000  Uiso   1.00
C593   C     0.81748   0.67878   0.26305   0.00000  Uiso   1.00
C594   C     0.82316   0.72263   0.25956   0.00000  Uiso   1.00
C595   C     0.84340   0.94463   0.24053   0.00000  Uiso   1.00
C596   C     0.76932   0.89330   0.49203   0.00000  Uiso   1.00
C597   C     0.85147   0.81550   0.12903   0.00000  Uiso   1.00
C598   C     0.81588   0.85221   0.37107   0.00000  Uiso   1.00
C599   C     0.91872   0.81028   0.01194   0.00000  Uiso   1.00
C600   C     0.86016   0.81049   0.07985   0.00000  Uiso   1.00
C601   C     0.77302   0.88042   0.44629   0.00000  Uiso   1.00
C602   C     0.91980   0.67801   0.23267   0.00000  Uiso   1.00
C603   C     0.95220   0.79392   0.39257   0.00000  Uiso   1.00
C604   C     0.99025   0.82717   0.00568   0.00000  Uiso   1.00
C605   C     0.76967   0.83201   0.11181   0.00000  Uiso   1.00
C606   C     0.68593   0.89273   0.18397   0.00000  Uiso   1.00
C607   C     0.79890   0.88373   0.01355   0.00000  Uiso   1.00
C608   C     0.83030   0.85847   0.49008   0.00000  Uiso   1.00
C609   C     0.84187   0.85731   0.44258   0.00000  Uiso   1.00
C610   C     0.85320   0.83804   0.01237   0.00000  Uiso   1.00
C611   C     0.89441   0.82773   0.48869   0.00000  Uiso   1.00
C612   C     0.91048   0.83621   0.44278   0.00000  Uiso   1.00
C613   C     0.88488   0.85245   0.42044   0.00000  Uiso   1.00
Cl614  Cl    0.98135   0.77068   0.27405   0.00000  Uiso   1.00
Cl615  Cl    0.76595   0.99182   0.29404   0.00000  Uiso   1.00
Cl616  Cl    0.73049   0.88711   0.42301   0.00000  Uiso   1.00
Cl617  Cl    0.80455   0.91347   0.06388   0.00000  Uiso   1.00
Cl618  Cl    0.72773   0.92186   0.02270   0.00000  Uiso   1.00
Cl619  Cl    0.91160   0.87721   0.37055   0.00000  Uiso   1.00
H620   H     0.92095   0.79086   0.07533   0.00000  Uiso   1.00
H621   H     0.98899   0.82353   0.04146   0.00000  Uiso   1.00
H622   H     0.79021   0.85659   0.12732   0.00000  Uiso   1.00
H623   H     0.75653   0.80651   0.13436   0.00000  Uiso   1.00
H624   H     0.74196   0.84616   0.10883   0.00000  Uiso   1.00
H625   H     0.99545   0.91411   0.18587   0.00000  Uiso   1.00
H626   H     0.67982   0.86418   0.16185   0.00000  Uiso   1.00
H627   H     0.71785   0.90888   0.16781   0.00000  Uiso   1.00
H628   H     0.92864   0.97999   0.23330   0.00000  Uiso   1.00
H629   H     0.91228   0.69358   0.26745   0.00000  Uiso   1.00
H630   H     0.94821   0.69667   0.21243   0.00000  Uiso   1.00
H631   H     0.93455   0.79447   0.36634   0.00000  Uiso   1.00
H632   H     0.93829   0.76677   0.41284   0.00000  Uiso   1.00
H633   H     0.98578   0.78976   0.37504   0.00000  Uiso   1.00
H634   H     0.98746   0.85986   0.00132   0.00000  Uiso   1.00
H635   H     0.68883   0.82022   0.48524   0.00000  Uiso   1.00
O636   O     0.83333   0.83333   0.25000   0.00000  Uiso   1.00
O637   O     0.82118   0.79304   0.15459   0.00000  Uiso   1.00
O638   O     0.79607   0.87058   0.34968   0.00000  Uiso   1.00
O639   O     0.87491   0.84425   0.14606   0.00000  Uiso   1.00
O640   O     0.84118   0.82546   0.34968   0.00000  Uiso   1.00
O641   O     0.88563   0.67612   0.21215   0.00000  Uiso   1.00
O642   O     0.95231   0.83142   0.42030   0.00000  Uiso   1.00
O643   O     0.95870   0.79913   0.49029   0.00000  Uiso   1.00
O644   O     0.78970   0.81550   0.06837   0.00000  Uiso   1.00
O645   O     0.68615   0.88446   0.22787   0.00000  Uiso   1.00
O646   O     0.84597   0.74686   0.28214   0.00000  Uiso   1.00
O647   O     0.81298   0.92751   0.27014   0.00000  Uiso   1.00
O648   O     0.74078   0.79958   0.23413   0.00000  Uiso   1.00
O649   O     0.93360   0.85939   0.21361   0.00000  Uiso   1.00
O650   O     0.73738   0.85544   0.28213   0.00000  Uiso   1.00
O651   O     0.92158   0.81892   0.27014   0.00000  Uiso   1.00
O652   O     0.80426   0.73610   0.23413   0.00000  Uiso   1.00
O653   O     0.87012   0.92286   0.21361   0.00000  Uiso   1.00
Zn654  Zn    0.86005   0.80661   0.28734   0.00000  Uiso   1.00
Zn655  Zn    0.80046   0.79124   0.21876   0.00000  Uiso   1.00
Zn656  Zn    0.87723   0.86442   0.20657   0.00000  Uiso   1.00
Zn657  Zn    0.79560   0.87106   0.28734   0.00000  Uiso   1.00
C658   C     0.05290   0.15924   0.75966   0.00000  Uiso   1.00
C659   C     0.16750   0.15853   0.55649   0.00000  Uiso   1.00
C660   C     0.23482   0.13593   0.55720   0.00000  Uiso   1.00
C661   C     0.28084   0.17454   0.74065   0.00000  Uiso   1.00
C662   C     0.14397   0.19718   0.92020   0.00000  Uiso   1.00
C663   C     0.32638   0.18130   0.74125   0.00000  Uiso   1.00
C664   C     0.00811   0.15430   0.76120   0.00000  Uiso   1.00
C665   C     0.18217   0.32309   0.73966   0.00000  Uiso   1.00
C666   C     0.15081   0.01211   0.76305   0.00000  Uiso   1.00
C667   C     0.15649   0.05596   0.75956   0.00000  Uiso   1.00
C668   C     0.17673   0.27796   0.74053   0.00000  Uiso   1.00
C669   C     0.10266   0.22664   0.99203   0.00000  Uiso   1.00
C670   C     0.18480   0.14883   0.62903   0.00000  Uiso   1.00
C671   C     0.14921   0.18555   0.87107   0.00000  Uiso   1.00
C672   C     0.25205   0.14361   0.51194   0.00000  Uiso   1.00
C673   C     0.19350   0.14382   0.57985   0.00000  Uiso   1.00
C674   C     0.10636   0.21376   0.94629   0.00000  Uiso   1.00
C675   C     0.25314   0.01135   0.73267   0.00000  Uiso   1.00
C676   C     0.28554   0.12725   0.89257   0.00000  Uiso   1.00
C677   C     0.32359   0.16051   0.50568   0.00000  Uiso   1.00
C678   C     0.10300   0.16534   0.61181   0.00000  Uiso   1.00
C679   C     0.01926   0.22606   0.68397   0.00000  Uiso   1.00
C680   C     0.13223   0.21706   0.51355   0.00000  Uiso   1.00
C681   C     0.16364   0.19180   0.99008   0.00000  Uiso   1.00
C682   C     0.17520   0.19065   0.94258   0.00000  Uiso   1.00
C683   C     0.18654   0.17138   0.51237   0.00000  Uiso   1.00
C684   C     0.22774   0.16106   0.98869   0.00000  Uiso   1.00
C685   C     0.24382   0.16954   0.94278   0.00000  Uiso   1.00
C686   C     0.21821   0.18579   0.92044   0.00000  Uiso   1.00
Cl687  Cl    0.31468   0.10401   0.77405   0.00000  Uiso   1.00
Cl688  Cl    0.09929   0.32515   0.79404   0.00000  Uiso   1.00
Cl689  Cl    0.06382   0.22044   0.92301   0.00000  Uiso   1.00
Cl690  Cl    0.13788   0.24681   0.56388   0.00000  Uiso   1.00
Cl691  Cl    0.06106   0.25520   0.52270   0.00000  Uiso   1.00
Cl692  Cl    0.24494   0.21054   0.87055   0.00000  Uiso   1.00
H693   H     0.25428   0.12419   0.57533   0.00000  Uiso   1.00
H694   H     0.32233   0.15687   0.54146   0.00000  Uiso   1.00
H695   H     0.12355   0.18992   0.62732   0.00000  Uiso   1.00
H696   H     0.08986   0.13984   0.63436   0.00000  Uiso   1.00
H697   H     0.07529   0.17950   0.60883   0.00000  Uiso   1.00
H698   H     0.32879   0.24744   0.68587   0.00000  Uiso   1.00
H699   H     0.01316   0.19751   0.66185   0.00000  Uiso   1.00
H700   H     0.05118   0.24221   0.66781   0.00000  Uiso   1.00
H701   H     0.26197   0.31332   0.73330   0.00000  Uiso   1.00
H702   H     0.24561   0.02692   0.76745   0.00000  Uiso   1.00
H703   H     0.28154   0.03000   0.71243   0.00000  Uiso   1.00
H704   H     0.26788   0.12780   0.86634   0.00000  Uiso   1.00
H705   H     0.27162   0.10011   0.91284   0.00000  Uiso   1.00
H706   H     0.31911   0.12310   0.87504   0.00000  Uiso   1.00
H707   H     0.32079   0.19320   0.50132   0.00000  Uiso   1.00
H708   H     0.02216   0.15355   0.98524   0.00000  Uiso   1.00
O709   O     0.16667   0.16667   0.75000   0.00000  Uiso   1.00
O710   O     0.15451   0.12637   0.65459   0.00000  Uiso   1.00
O711   O     0.12940   0.20391   0.84968   0.00000  Uiso   1.00
O712   O     0.20824   0.17759   0.64606   0.00000  Uiso   1.00
O713   O     0.17451   0.15880   0.84968   0.00000  Uiso   1.00
O714   O     0.21896   0.00946   0.71215   0.00000  Uiso   1.00
O715   O     0.28565   0.16475   0.92030   0.00000  Uiso   1.00
O716   O     0.29203   0.13247   0.99029   0.00000  Uiso   1.00
O717   O     0.12303   0.14884   0.56837   0.00000  Uiso   1.00
O718   O     0.01949   0.21779   0.72787   0.00000  Uiso   1.00
O719   O     0.17930   0.08019   0.78214   0.00000  Uiso   1.00
O720   O     0.14632   0.26085   0.77014   0.00000  Uiso   1.00
O721   O     0.07412   0.13291   0.73413   0.00000  Uiso   1.00
O722   O     0.26693   0.19272   0.71361   0.00000  Uiso   1.00
O723   O     0.07071   0.18878   0.78213   0.00000  Uiso   1.00
O724   O     0.25491   0.15226   0.77014   0.00000  Uiso   1.00
O725   O     0.13760   0.06944   0.73413   0.00000  Uiso   1.00
O726   O     0.20345   0.25620   0.71361   0.00000  Uiso   1.00
Zn727  Zn    0.19338   0.13994   0.78734   0.00000  Uiso   1.00
Zn728  Zn    0.13379   0.12458   0.71876   0.00000  Uiso   1.00
Zn729  Zn    0.21056   0.19775   0.70657   0.00000  Uiso   1.00
Zn730  Zn    0.12893   0.20439   0.78734   0.00000  Uiso   1.00
C731   C     0.38624   0.15924   0.75966   0.00000  Uiso   1.00
C732   C     0.50083   0.15853   0.55649   0.00000  Uiso   1.00
C733   C     0.56815   0.13593   0.55720   0.00000  Uiso   1.00
C734   C     0.61417   0.17454   0.74065   0.00000  Uiso   1.00
C735   C     0.47730   0.19718   0.92020   0.00000  Uiso   1.00
C736   C     0.65971   0.18130   0.74125   0.00000  Uiso   1.00
C737   C     0.34144   0.15430   0.76120   0.00000  Uiso   1.00
C738   C     0.51550   0.32309   0.73966   0.00000  Uiso   1.00
C739   C     0.48414   0.01211   0.76305   0.00000  Uiso   1.00
C740   C     0.48982   0.05596   0.75956   0.00000  Uiso   1.00
C741   C     0.51007   0.27796   0.74053   0.00000  Uiso   1.00
C742   C     0.43599   0.22664   0.99203   0.00000  Uiso   1.00
C743   C     0.51813   0.14883   0.62903   0.00000  Uiso   1.00
C744   C     0.48255   0.18555   0.87107   0.00000  Uiso   1.00
C745   C     0.58539   0.14361   0.51194   0.00000  Uiso   1.00
C746   C     0.52683   0.14382   0.57985   0.00000  Uiso   1.00
C747   C     0.43969   0.21376   0.94629   0.00000  Uiso   1.00
C748   C     0.58647   0.01135   0.73267   0.00000  Uiso   1.00
C749   C     0.61887   0.12725   0.89257   0.00000  Uiso   1.00
C750   C     0.65692   0.16051   0.50568   0.00000  Uiso   1.00
C751   C     0.43633   0.16534   0.61181   0.00000  Uiso   1.00
C752   C     0.35259   0.22606   0.68397   0.00000  Uiso   1.00
C753   C     0.46556   0.21706   0.51355   0.00000  Uiso   1.00
C754   C     0.49697   0.19180   0.99008   0.00000  Uiso   1.00
C755   C     0.50853   0.19065   0.94258   0.00000  Uiso   1.00
C756   C     0.51987   0.17138   0.51237   0.00000  Uiso   1.00
C757   C     0.56108   0.16106   0.98869   0.00000  Uiso   1.00
C758   C     0.57715   0.16954   0.94278   0.00000  Uiso   1.00
C759   C     0.55155   0.18579   0.92044   0.00000  Uiso   1.00
Cl760  Cl    0.64801   0.10401   0.77405   0.00000  Uiso   1.00
Cl761  Cl    0.43262   0.32515   0.79404   0.00000  Uiso   1.00
Cl762  Cl    0.39715   0.22044   0.92301   0.00000  Uiso   1.00
Cl763  Cl    0.47122   0.24681   0.56388   0.00000  Uiso   1.00
Cl764  Cl    0.39439   0.25520   0.52270   0.00000  Uiso   1.00
Cl765  Cl    0.57827   0.21054   0.87055   0.00000  Uiso   1.00
H766   H     0.58762   0.12419   0.57533   0.00000  Uiso   1.00
H767   H     0.65566   0.15687   0.54146   0.00000  Uiso   1.00
H768   H     0.45688   0.18992   0.62732   0.00000  Uiso   1.00
H769   H     0.42320   0.13984   0.63436   0.00000  Uiso   1.00
H770   H     0.40862   0.17950   0.60883   0.00000  Uiso   1.00
H771   H     0.66212   0.24744   0.68587   0.00000  Uiso   1.00
H772   H     0.34649   0.19751   0.66185   0.00000  Uiso   1.00
H773   H     0.38451   0.24221   0.66781   0.00000  Uiso   1.00
H774   H     0.59531   0.31332   0.73330   0.00000  Uiso   1.00
H775   H     0.57894   0.02692   0.76745   0.00000  Uiso   1.00
H776   H     0.61487   0.03000   0.71243   0.00000  Uiso   1.00
H777   H     0.60122   0.12780   0.86634   0.00000  Uiso   1.00
H778   H     0.60495   0.10011   0.91284   0.00000  Uiso   1.00
H779   H     0.65245   0.12310   0.87504   0.00000  Uiso   1.00
H780   H     0.65413   0.19320   0.50132   0.00000  Uiso   1.00
H781   H     0.35550   0.15355   0.98524   0.00000  Uiso   1.00
O782   O     0.50000   0.16667   0.75000   0.00000  Uiso   1.00
O783   O     0.48784   0.12637   0.65459   0.00000  Uiso   1.00
O784   O     0.46274   0.20391   0.84968   0.00000  Uiso   1.00
O785   O     0.54157   0.17759   0.64606   0.00000  Uiso   1.00
O786   O     0.50785   0.15880   0.84968   0.00000  Uiso   1.00
O787   O     0.55230   0.00946   0.71215   0.00000  Uiso   1.00
O788   O     0.61898   0.16475   0.92030   0.00000  Uiso   1.00
O789   O     0.62537   0.13247   0.99029   0.00000  Uiso   1.00
O790   O     0.45637   0.14884   0.56837   0.00000  Uiso   1.00
O791   O     0.35282   0.21779   0.72787   0.00000  Uiso   1.00
O792   O     0.51264   0.08019   0.78214   0.00000  Uiso   1.00
O793   O     0.47965   0.26085   0.77014   0.00000  Uiso   1.00
O794   O     0.40745   0.13291   0.73413   0.00000  Uiso   1.00
O795   O     0.60026   0.19272   0.71361   0.00000  Uiso   1.00
O796   O     0.40405   0.18878   0.78213   0.00000  Uiso   1.00
O797   O     0.58824   0.15226   0.77014   0.00000  Uiso   1.00
O798   O     0.47093   0.06944   0.73413   0.00000  Uiso   1.00
O799   O     0.53678   0.25620   0.71361   0.00000  Uiso   1.00
Zn800  Zn    0.52672   0.13994   0.78734   0.00000  Uiso   1.00
Zn801  Zn    0.46713   0.12458   0.71876   0.00000  Uiso   1.00
Zn802  Zn    0.54389   0.19775   0.70657   0.00000  Uiso   1.00
Zn803  Zn    0.46226   0.20439   0.78734   0.00000  Uiso   1.00
C804   C     0.71957   0.15924   0.75966   0.00000  Uiso   1.00
C805   C     0.83417   0.15853   0.55649   0.00000  Uiso   1.00
C806   C     0.90149   0.13593   0.55720   0.00000  Uiso   1.00
C807   C     0.94750   0.17454   0.74065   0.00000  Uiso   1.00
C808   C     0.81064   0.19718   0.92020   0.00000  Uiso   1.00
C809   C     0.99304   0.18130   0.74125   0.00000  Uiso   1.00
C810   C     0.67477   0.15430   0.76120   0.00000  Uiso   1.00
C811   C     0.84884   0.32309   0.73966   0.00000  Uiso   1.00
C812   C     0.81748   0.01211   0.76305   0.00000  Uiso   1.00
C813   C     0.82316   0.05596   0.75956   0.00000  Uiso   1.00
C814   C     0.84340   0.27796   0.74053   0.00000  Uiso   1.00
C815   C     0.76932   0.22664   0.99203   0.00000  Uiso   1.00
C816   C     0.85147   0.14883   0.62903   0.00000  Uiso   1.00
C817   C     0.81588   0.18555   0.87107   0.00000  Uiso   1.00
C818   C     0.91872   0.14361   0.51194   0.00000  Uiso   1.00
C819   C     0.86016   0.14382   0.57985   0.00000  Uiso   1.00
C820   C     0.77302   0.21376   0.94629   0.00000  Uiso   1.00
C821   C     0.91980   0.01135   0.73267   0.00000  Uiso   1.00
C822   C     0.95220   0.12725   0.89257   0.00000  Uiso   1.00
C823   C     0.99025   0.16051   0.50568   0.00000  Uiso   1.00
C824   C     0.76967   0.16534   0.61181   0.00000  Uiso   1.00
C825   C     0.68593   0.22606   0.68397   0.00000  Uiso   1.00
C826   C     0.79890   0.21706   0.51355   0.00000  Uiso   1.00
C827   C     0.83030   0.19180   0.99008   0.00000  Uiso   1.00
C828   C     0.84187   0.19065   0.94258   0.00000  Uiso   1.00
C829   C     0.85320   0.17138   0.51237   0.00000  Uiso   1.00
C830   C     0.89441   0.16106   0.98869   0.00000  Uiso   1.00
C831   C     0.91048   0.16954   0.94278   0.00000  Uiso   1.00
C832   C     0.88488   0.18579   0.92044   0.00000  Uiso   1.00
Cl833  Cl    0.98135   0.10401   0.77405   0.00000  Uiso   1.00
Cl834  Cl    0.76595   0.32515   0.79404   0.00000  Uiso   1.00
Cl835  Cl    0.73049   0.22044   0.92301   0.00000  Uiso   1.00
Cl836  Cl    0.80455   0.24681   0.56388   0.00000  Uiso   1.00
Cl837  Cl    0.72773   0.25520   0.52270   0.00000  Uiso   1.00
Cl838  Cl    0.91160   0.21054   0.87055   0.00000  Uiso   1.00
H839   H     0.92095   0.12419   0.57533   0.00000  Uiso   1.00
H840   H     0.98899   0.15687   0.54146   0.00000  Uiso   1.00
H841   H     0.79021   0.18992   0.62732   0.00000  Uiso   1.00
H842   H     0.75653   0.13984   0.63436   0.00000  Uiso   1.00
H843   H     0.74196   0.17950   0.60883   0.00000  Uiso   1.00
H844   H     0.99545   0.24744   0.68587   0.00000  Uiso   1.00
H845   H     0.67982   0.19751   0.66185   0.00000  Uiso   1.00
H846   H     0.71785   0.24221   0.66781   0.00000  Uiso   1.00
H847   H     0.92864   0.31332   0.73330   0.00000  Uiso   1.00
H848   H     0.91228   0.02692   0.76745   0.00000  Uiso   1.00
H849   H     0.94821   0.03000   0.71243   0.00000  Uiso   1.00
H850   H     0.93455   0.12780   0.86634   0.00000  Uiso   1.00
H851   H     0.93829   0.10011   0.91284   0.00000  Uiso   1.00
H852   H     0.98578   0.12310   0.87504   0.00000  Uiso   1.00
H853   H     0.98746   0.19320   0.50132   0.00000  Uiso   1.00
H854   H     0.68883   0.15355   0.98524   0.00000  Uiso   1.00
O855   O     0.83333   0.16667   0.75000   0.00000  Uiso   1.00
O856   O     0.82118   0.12637   0.65459   0.00000  Uiso   1.00
O857   O     0.79607   0.20391   0.84968   0.00000  Uiso   1.00
O858   O     0.87491   0.17759   0.64606   0.00000  Uiso   1.00
O859   O     0.84118   0.15880   0.84968   0.00000  Uiso   1.00
O860   O     0.88563   0.00946   0.71215   0.00000  Uiso   1.00
O861   O     0.95231   0.16475   0.92030   0.00000  Uiso   1.00
O862   O     0.95870   0.13247   0.99029   0.00000  Uiso   1.00
O863   O     0.78970   0.14884   0.56837   0.00000  Uiso   1.00
O864   O     0.68615   0.21779   0.72787   0.00000  Uiso   1.00
O865   O     0.84597   0.08019   0.78214   0.00000  Uiso   1.00
O866   O     0.81298   0.26085   0.77014   0.00000  Uiso   1.00
O867   O     0.74078   0.13291   0.73413   0.00000  Uiso   1.00
O868   O     0.93360   0.19272   0.71361   0.00000  Uiso   1.00
O869   O     0.73738   0.18878   0.78213   0.00000  Uiso   1.00
O870   O     0.92158   0.15226   0.77014   0.00000  Uiso   1.00
O871   O     0.80426   0.06944   0.73413   0.00000  Uiso   1.00
O872   O     0.87012   0.25620   0.71361   0.00000  Uiso   1.00
Zn873  Zn    0.86005   0.13994   0.78734   0.00000  Uiso   1.00
Zn874  Zn    0.80046   0.12458   0.71876   0.00000  Uiso   1.00
Zn875  Zn    0.87723   0.19775   0.70657   0.00000  Uiso   1.00
Zn876  Zn    0.79560   0.20439   0.78734   0.00000  Uiso   1.00
C877   C     0.05290   0.49257   0.75966   0.00000  Uiso   1.00
C878   C     0.16750   0.49187   0.55649   0.00000  Uiso   1.00
C879   C     0.23482   0.46927   0.55720   0.00000  Uiso   1.00
C880   C     0.28084   0.50787   0.74065   0.00000  Uiso   1.00
C881   C     0.14397   0.53052   0.92020   0.00000  Uiso   1.00
C882   C     0.32638   0.51463   0.74125   0.00000  Uiso   1.00
C883   C     0.00811   0.48763   0.76120   0.00000  Uiso   1.00
C884   C     0.18217   0.65642   0.73966   0.00000  Uiso   1.00
C885   C     0.15081   0.34544   0.76305   0.00000  Uiso   1.00
C886   C     0.15649   0.38929   0.75956   0.00000  Uiso   1.00
C887   C     0.17673   0.61129   0.74053   0.00000  Uiso   1.00
C888   C     0.10266   0.55997   0.99203   0.00000  Uiso   1.00
C889   C     0.18480   0.48216   0.62903   0.00000  Uiso   1.00
C890   C     0.14921   0.51888   0.87107   0.00000  Uiso   1.00
C891   C     0.25205   0.47694   0.51194   0.00000  Uiso   1.00
C892   C     0.19350   0.47715   0.57985   0.00000  Uiso   1.00
C893   C     0.10636   0.54709   0.94629   0.00000  Uiso   1.00
C894   C     0.25314   0.34468   0.73267   0.00000  Uiso   1.00
C895   C     0.28554   0.46059   0.89257   0.00000  Uiso   1.00
C896   C     0.32359   0.49384   0.50568   0.00000  Uiso   1.00
C897   C     0.10300   0.49867   0.61181   0.00000  Uiso   1.00
C898   C     0.01926   0.55939   0.68397   0.00000  Uiso   1.00
C899   C     0.13223   0.55039   0.51355   0.00000  Uiso   1.00
C900   C     0.16364   0.52513   0.99008   0.00000  Uiso   1.00
C901   C     0.17520   0.52398   0.94258   0.00000  Uiso   1.00
C902   C     0.18654   0.50471   0.51237   0.00000  Uiso   1.00
C903   C     0.22774   0.49440   0.98869   0.00000  Uiso   1.00
C904   C     0.24382   0.50288   0.94278   0.00000  Uiso   1.00
C905   C     0.21821   0.51912   0.92044   0.00000  Uiso   1.00
Cl906  Cl    0.31468   0.43735   0.77405   0.00000  Uiso   1.00
Cl907  Cl    0.09929   0.65848   0.79404   0.00000  Uiso   1.00
Cl908  Cl    0.06382   0.55378   0.92301   0.00000  Uiso   1.00
Cl909  Cl    0.13788   0.58014   0.56388   0.00000  Uiso   1.00
Cl910  Cl    0.06106   0.58853   0.52270   0.00000  Uiso   1.00
Cl911  Cl    0.24494   0.54387   0.87055   0.00000  Uiso   1.00
H912   H     0.25428   0.45752   0.57533   0.00000  Uiso   1.00
H913   H     0.32233   0.49020   0.54146   0.00000  Uiso   1.00
H914   H     0.12355   0.52326   0.62732   0.00000  Uiso   1.00
H915   H     0.08986   0.47318   0.63436   0.00000  Uiso   1.00
H916   H     0.07529   0.51283   0.60883   0.00000  Uiso   1.00
H917   H     0.32879   0.58077   0.68587   0.00000  Uiso   1.00
H918   H     0.01316   0.53084   0.66185   0.00000  Uiso   1.00
H919   H     0.05118   0.57554   0.66781   0.00000  Uiso   1.00
H920   H     0.26197   0.64665   0.73330   0.00000  Uiso   1.00
H921   H     0.24561   0.36025   0.76745   0.00000  Uiso   1.00
H922   H     0.28154   0.36334   0.71243   0.00000  Uiso   1.00
H923   H     0.26788   0.46113   0.86634   0.00000  Uiso   1.00
H924   H     0.27162   0.43344   0.91284   0.00000  Uiso   1.00
H925   H     0.31911   0.45643   0.87504   0.00000  Uiso   1.00
H926   H     0.32079   0.52653   0.50132   0.00000  Uiso   1.00
H927   H     0.02216   0.48688   0.98524   0.00000  Uiso   1.00
O928   O     0.16667   0.50000   0.75000   0.00000  Uiso   1.00
O929   O     0.15451   0.45970   0.65459   0.00000  Uiso   1.00
O930   O     0.12940   0.53724   0.84968   0.00000  Uiso   1.00
O931   O     0.20824   0.51092   0.64606   0.00000  Uiso   1.00
O932   O     0.17451   0.49213   0.84968   0.00000  Uiso   1.00
O933   O     0.21896   0.34279   0.71215   0.00000  Uiso   1.00
O934   O     0.28565   0.49808   0.92030   0.00000  Uiso   1.00
O935   O     0.29203   0.46580   0.99029   0.00000  Uiso   1.00
O936   O     0.12303   0.48217   0.56837   0.00000  Uiso   1.00
O937   O     0.01949   0.55113   0.72787   0.00000  Uiso   1.00
O938   O     0.17930   0.41352   0.78214   0.00000  Uiso   1.00
O939   O     0.14632   0.59418   0.77014   0.00000  Uiso   1.00
O940   O     0.07412   0.46625   0.73413   0.00000  Uiso   1.00
O941   O     0.26693   0.52605   0.71361   0.00000  Uiso   1.00
O942   O     0.07071   0.52211   0.78213   0.00000  Uiso   1.00
O943   O     0.25491   0.48559   0.77014   0.00000  Uiso   1.00
O944   O     0.13760   0.40277   0.73413   0.00000  Uiso   1.00
O945   O     0.20345   0.58953   0.71361   0.00000  Uiso   1.00
Zn946  Zn    0.19338   0.47327   0.78734   0.00000  Uiso   1.00
Zn947  Zn    0.13379   0.45791   0.71876   0.00000  Uiso   1.00
Zn948  Zn    0.21056   0.53109   0.70657   0.00000  Uiso   1.00
Zn949  Zn    0.12893   0.53773   0.78734   0.00000  Uiso   1.00
C950   C     0.38624   0.49257   0.75966   0.00000  Uiso   1.00
C951   C     0.50083   0.49187   0.55649   0.00000  Uiso   1.00
C952   C     0.56815   0.46927   0.55720   0.00000  Uiso   1.00
C953   C     0.61417   0.50787   0.74065   0.00000  Uiso   1.00
C954   C     0.47730   0.53052   0.92020   0.00000  Uiso   1.00
C955   C     0.65971   0.51463   0.74125   0.00000  Uiso   1.00
C956   C     0.34144   0.48763   0.76120   0.00000  Uiso   1.00
C957   C     0.51550   0.65642   0.73966   0.00000  Uiso   1.00
C958   C     0.48414   0.34544   0.76305   0.00000  Uiso   1.00
C959   C     0.48982   0.38929   0.75956   0.00000  Uiso   1.00
C960   C     0.51007   0.61129   0.74053   0.00000  Uiso   1.00
C961   C     0.43599   0.55997   0.99203   0.00000  Uiso   1.00
C962   C     0.51813   0.48216   0.62903   0.00000  Uiso   1.00
C963   C     0.48255   0.51888   0.87107   0.00000  Uiso   1.00
C964   C     0.58539   0.47694   0.51194   0.00000  Uiso   1.00
C965   C     0.52683   0.47715   0.57985   0.00000  Uiso   1.00
C966   C     0.43969   0.54709   0.94629   0.00000  Uiso   1.00
C967   C     0.58647   0.34468   0.73267   0.00000  Uiso   1.00
C968   C     0.61887   0.46059   0.89257   0.00000  Uiso   1.00
C969   C     0.65692   0.49384   0.50568   0.00000  Uiso   1.00
C970   C     0.43633   0.49867   0.61181   0.00000  Uiso   1.00
C971   C     0.35259   0.55939   0.68397   0.00000  Uiso   1.00
C972   C     0.46556   0.55039   0.51355   0.00000  Uiso   1.00
C973   C     0.49697   0.52513   0.99008   0.00000  Uiso   1.00
C974   C     0.50853   0.52398   0.94258   0.00000  Uiso   1.00
C975   C     0.51987   0.50471   0.51237   0.00000  Uiso   1.00
C976   C     0.56108   0.49440   0.98869   0.00000  Uiso   1.00
C977   C     0.57715   0.50288   0.94278   0.00000  Uiso   1.00
C978   C     0.55155   0.51912   0.92044   0.00000  Uiso   1.00
Cl979  Cl    0.64801   0.43735   0.77405   0.00000  Uiso   1.00
Cl980  Cl    0.43262   0.65848   0.79404   0.00000  Uiso   1.00
Cl981  Cl    0.39715   0.55378   0.92301   0.00000  Uiso   1.00
Cl982  Cl    0.47122   0.58014   0.56388   0.00000  Uiso   1.00
Cl983  Cl    0.39439   0.58853   0.52270   0.00000  Uiso   1.00
Cl984  Cl    0.57827   0.54387   0.87055   0.00000  Uiso   1.00
H985   H     0.58762   0.45752   0.57533   0.00000  Uiso   1.00
H986   H     0.65566   0.49020   0.54146   0.00000  Uiso   1.00
H987   H     0.45688   0.52326   0.62732   0.00000  Uiso   1.00
H988   H     0.42320   0.47318   0.63436   0.00000  Uiso   1.00
H989   H     0.40862   0.51283   0.60883   0.00000  Uiso   1.00
H990   H     0.66212   0.58077   0.68587   0.00000  Uiso   1.00
H991   H     0.34649   0.53084   0.66185   0.00000  Uiso   1.00
H992   H     0.38451   0.57554   0.66781   0.00000  Uiso   1.00
H993   H     0.59531   0.64665   0.73330   0.00000  Uiso   1.00
H994   H     0.57894   0.36025   0.76745   0.00000  Uiso   1.00
H995   H     0.61487   0.36334   0.71243   0.00000  Uiso   1.00
H996   H     0.60122   0.46113   0.86634   0.00000  Uiso   1.00
H997   H     0.60495   0.43344   0.91284   0.00000  Uiso   1.00
H998   H     0.65245   0.45643   0.87504   0.00000  Uiso   1.00
H999   H     0.65413   0.52653   0.50132   0.00000  Uiso   1.00
H1000  H     0.35550   0.48688   0.98524   0.00000  Uiso   1.00
O1001  O     0.50000   0.50000   0.75000   0.00000  Uiso   1.00
O1002  O     0.48784   0.45970   0.65459   0.00000  Uiso   1.00
O1003  O     0.46274   0.53724   0.84968   0.00000  Uiso   1.00
O1004  O     0.54157   0.51092   0.64606   0.00000  Uiso   1.00
O1005  O     0.50785   0.49213   0.84968   0.00000  Uiso   1.00
O1006  O     0.55230   0.34279   0.71215   0.00000  Uiso   1.00
O1007  O     0.61898   0.49808   0.92030   0.00000  Uiso   1.00
O1008  O     0.62537   0.46580   0.99029   0.00000  Uiso   1.00
O1009  O     0.45637   0.48217   0.56837   0.00000  Uiso   1.00
O1010  O     0.35282   0.55113   0.72787   0.00000  Uiso   1.00
O1011  O     0.51264   0.41352   0.78214   0.00000  Uiso   1.00
O1012  O     0.47965   0.59418   0.77014   0.00000  Uiso   1.00
O1013  O     0.40745   0.46625   0.73413   0.00000  Uiso   1.00
O1014  O     0.60026   0.52605   0.71361   0.00000  Uiso   1.00
O1015  O     0.40405   0.52211   0.78213   0.00000  Uiso   1.00
O1016  O     0.58824   0.48559   0.77014   0.00000  Uiso   1.00
O1017  O     0.47093   0.40277   0.73413   0.00000  Uiso   1.00
O1018  O     0.53678   0.58953   0.71361   0.00000  Uiso   1.00
Zn1019 Zn    0.52672   0.47327   0.78734   0.00000  Uiso   1.00
Zn1020 Zn    0.46713   0.45791   0.71876   0.00000  Uiso   1.00
Zn1021 Zn    0.54389   0.53109   0.70657   0.00000  Uiso   1.00
Zn1022 Zn    0.46226   0.53773   0.78734   0.00000  Uiso   1.00
C1023  C     0.71957   0.49257   0.75966   0.00000  Uiso   1.00
C1024  C     0.83417   0.49187   0.55649   0.00000  Uiso   1.00
C1025  C     0.90149   0.46927   0.55720   0.00000  Uiso   1.00
C1026  C     0.94750   0.50787   0.74065   0.00000  Uiso   1.00
C1027  C     0.81064   0.53052   0.92020   0.00000  Uiso   1.00
C1028  C     0.99304   0.51463   0.74125   0.00000  Uiso   1.00
C1029  C     0.67477   0.48763   0.76120   0.00000  Uiso   1.00
C1030  C     0.84884   0.65642   0.73966   0.00000  Uiso   1.00
C1031  C     0.81748   0.34544   0.76305   0.00000  Uiso   1.00
C1032  C     0.82316   0.38929   0.75956   0.00000  Uiso   1.00
C1033  C     0.84340   0.61129   0.74053   0.00000  Uiso   1.00
C1034  C     0.76932   0.55997   0.99203   0.00000  Uiso   1.00
C1035  C     0.85147   0.48216   0.62903   0.00000  Uiso   1.00
C1036  C     0.81588   0.51888   0.87107   0.00000  Uiso   1.00
C1037  C     0.91872   0.47694   0.51194   0.00000  Uiso   1.00
C1038  C     0.86016   0.47715   0.57985   0.00000  Uiso   1.00
C1039  C     0.77302   0.54709   0.94629   0.00000  Uiso   1.00
C1040  C     0.91980   0.34468   0.73267   0.00000  Uiso   1.00
C1041  C     0.95220   0.46059   0.89257   0.00000  Uiso   1.00
C1042  C     0.99025   0.49384   0.50568   0.00000  Uiso   1.00
C1043  C     0.76967   0.49867   0.61181   0.00000  Uiso   1.00
C1044  C     0.68593   0.55939   0.68397   0.00000  Uiso   1.00
C1045  C     0.79890   0.55039   0.51355   0.00000  Uiso   1.00
C1046  C     0.83030   0.52513   0.99008   0.00000  Uiso   1.00
C1047  C     0.84187   0.52398   0.94258   0.00000  Uiso   1.00
C1048  C     0.85320   0.50471   0.51237   0.00000  Uiso   1.00
C1049  C     0.89441   0.49440   0.98869   0.00000  Uiso   1.00
C1050  C     0.91048   0.50288   0.94278   0.00000  Uiso   1.00
C1051  C     0.88488   0.51912   0.92044   0.00000  Uiso   1.00
Cl1052 Cl    0.98135   0.43735   0.77405   0.00000  Uiso   1.00
Cl1053 Cl    0.76595   0.65848   0.79404   0.00000  Uiso   1.00
Cl1054 Cl    0.73049   0.55378   0.92301   0.00000  Uiso   1.00
Cl1055 Cl    0.80455   0.58014   0.56388   0.00000  Uiso   1.00
Cl1056 Cl    0.72773   0.58853   0.52270   0.00000  Uiso   1.00
Cl1057 Cl    0.91160   0.54387   0.87055   0.00000  Uiso   1.00
H1058  H     0.92095   0.45752   0.57533   0.00000  Uiso   1.00
H1059  H     0.98899   0.49020   0.54146   0.00000  Uiso   1.00
H1060  H     0.79021   0.52326   0.62732   0.00000  Uiso   1.00
H1061  H     0.75653   0.47318   0.63436   0.00000  Uiso   1.00
H1062  H     0.74196   0.51283   0.60883   0.00000  Uiso   1.00
H1063  H     0.99545   0.58077   0.68587   0.00000  Uiso   1.00
H1064  H     0.67982   0.53084   0.66185   0.00000  Uiso   1.00
H1065  H     0.71785   0.57554   0.66781   0.00000  Uiso   1.00
H1066  H     0.92864   0.64665   0.73330   0.00000  Uiso   1.00
H1067  H     0.91228   0.36025   0.76745   0.00000  Uiso   1.00
H1068  H     0.94821   0.36334   0.71243   0.00000  Uiso   1.00
H1069  H     0.93455   0.46113   0.86634   0.00000  Uiso   1.00
H1070  H     0.93829   0.43344   0.91284   0.00000  Uiso   1.00
H1071  H     0.98578   0.45643   0.87504   0.00000  Uiso   1.00
H1072  H     0.98746   0.52653   0.50132   0.00000  Uiso   1.00
H1073  H     0.68883   0.48688   0.98524   0.00000  Uiso   1.00
O1074  O     0.83333   0.50000   0.75000   0.00000  Uiso   1.00
O1075  O     0.82118   0.45970   0.65459   0.00000  Uiso   1.00
O1076  O     0.79607   0.53724   0.84968   0.00000  Uiso   1.00
O1077  O     0.87491   0.51092   0.64606   0.00000  Uiso   1.00
O1078  O     0.84118   0.49213   0.84968   0.00000  Uiso   1.00
O1079  O     0.88563   0.34279   0.71215   0.00000  Uiso   1.00
O1080  O     0.95231   0.49808   0.92030   0.00000  Uiso   1.00
O1081  O     0.95870   0.46580   0.99029   0.00000  Uiso   1.00
O1082  O     0.78970   0.48217   0.56837   0.00000  Uiso   1.00
O1083  O     0.68615   0.55113   0.72787   0.00000  Uiso   1.00
O1084  O     0.84597   0.41352   0.78214   0.00000  Uiso   1.00
O1085  O     0.81298   0.59418   0.77014   0.00000  Uiso   1.00
O1086  O     0.74078   0.46625   0.73413   0.00000  Uiso   1.00
O1087  O     0.93360   0.52605   0.71361   0.00000  Uiso   1.00
O1088  O     0.73738   0.52211   0.78213   0.00000  Uiso   1.00
O1089  O     0.92158   0.48559   0.77014   0.00000  Uiso   1.00
O1090  O     0.80426   0.40277   0.73413   0.00000  Uiso   1.00
O1091  O     0.87012   0.58953   0.71361   0.00000  Uiso   1.00
Zn1092 Zn    0.86005   0.47327   0.78734   0.00000  Uiso   1.00
Zn1093 Zn    0.80046   0.45791   0.71876   0.00000  Uiso   1.00
Zn1094 Zn    0.87723   0.53109   0.70657   0.00000  Uiso   1.00
Zn1095 Zn    0.79560   0.53773   0.78734   0.00000  Uiso   1.00
C1096  C     0.05290   0.82590   0.75966   0.00000  Uiso   1.00
C1097  C     0.16750   0.82520   0.55649   0.00000  Uiso   1.00
C1098  C     0.23482   0.80260   0.55720   0.00000  Uiso   1.00
C1099  C     0.28084   0.84120   0.74065   0.00000  Uiso   1.00
C1100  C     0.14397   0.86385   0.92020   0.00000  Uiso   1.00
C1101  C     0.32638   0.84797   0.74125   0.00000  Uiso   1.00
C1102  C     0.00811   0.82096   0.76120   0.00000  Uiso   1.00
C1103  C     0.18217   0.98976   0.73966   0.00000  Uiso   1.00
C1104  C     0.15081   0.67878   0.76305   0.00000  Uiso   1.00
C1105  C     0.15649   0.72263   0.75956   0.00000  Uiso   1.00
C1106  C     0.17673   0.94463   0.74053   0.00000  Uiso   1.00
C1107  C     0.10266   0.89330   0.99203   0.00000  Uiso   1.00
C1108  C     0.18480   0.81550   0.62903   0.00000  Uiso   1.00
C1109  C     0.14921   0.85221   0.87107   0.00000  Uiso   1.00
C1110  C     0.25205   0.81028   0.51194   0.00000  Uiso   1.00
C1111  C     0.19350   0.81049   0.57985   0.00000  Uiso   1.00
C1112  C     0.10636   0.88042   0.94629   0.00000  Uiso   1.00
C1113  C     0.25314   0.67801   0.73267   0.00000  Uiso   1.00
C1114  C     0.28554   0.79392   0.89257   0.00000  Uiso   1.00
C1115  C     0.32359   0.82717   0.50568   0.00000  Uiso   1.00
C1116  C     0.10300   0.83201   0.61181   0.00000  Uiso   1.00
C1117  C     0.01926   0.89273   0.68397   0.00000  Uiso   1.00
C1118  C     0.13223   0.88373   0.51355   0.00000  Uiso   1.00
C1119  C     0.16364   0.85847   0.99008   0.00000  Uiso   1.00
C1120  C     0.17520   0.85731   0.94258   0.00000  Uiso   1.00
C1121  C     0.18654   0.83804   0.51237   0.00000  Uiso   1.00
C1122  C     0.22774   0.82773   0.98869   0.00000  Uiso   1.00
C1123  C     0.24382   0.83621   0.94278   0.00000  Uiso   1.00
C1124  C     0.21821   0.85245   0.92044   0.00000  Uiso   1.00
Cl1125 Cl    0.31468   0.77068   0.77405   0.00000  Uiso   1.00
Cl1126 Cl    0.09929   0.99182   0.79404   0.00000  Uiso   1.00
Cl1127 Cl    0.06382   0.88711   0.92301   0.00000  Uiso   1.00
Cl1128 Cl    0.13788   0.91347   0.56388   0.00000  Uiso   1.00
Cl1129 Cl    0.06106   0.92186   0.52270   0.00000  Uiso   1.00
Cl1130 Cl    0.24494   0.87721   0.87055   0.00000  Uiso   1.00
H1131  H     0.25428   0.79086   0.57533   0.00000  Uiso   1.00
H1132  H     0.32233   0.82353   0.54146   0.00000  Uiso   1.00
H1133  H     0.12355   0.85659   0.62732   0.00000  Uiso   1.00
H1134  H     0.08986   0.80651   0.63436   0.00000  Uiso   1.00
H1135  H     0.07529   0.84616   0.60883   0.00000  Uiso   1.00
H1136  H     0.32879   0.91411   0.68587   0.00000  Uiso   1.00
H1137  H     0.01316   0.86418   0.66185   0.00000  Uiso   1.00
H1138  H     0.05118   0.90888   0.66781   0.00000  Uiso   1.00
H1139  H     0.26197   0.97999   0.73330   0.00000  Uiso   1.00
H1140  H     0.24561   0.69358   0.76745   0.00000  Uiso   1.00
H1141  H     0.28154   0.69667   0.71243   0.00000  Uiso   1.00
H1142  H     0.26788   0.79447   0.86634   0.00000  Uiso   1.00
H1143  H     0.27162   0.76677   0.91284   0.00000  Uiso   1.00
H1144  H     0.31911   0.78976   0.87504   0.00000  Uiso   1.00
H1145  H     0.32079   0.85986   0.50132   0.00000  Uiso   1.00
H1146  H     0.02216   0.82022   0.98524   0.00000  Uiso   1.00
O1147  O     0.16667   0.83333   0.75000   0.00000  Uiso   1.00
O1148  O     0.15451   0.79304   0.65459   0.00000  Uiso   1.00
O1149  O     0.12940   0.87058   0.84968   0.00000  Uiso   1.00
O1150  O     0.20824   0.84425   0.64606   0.00000  Uiso   1.00
O1151  O     0.17451   0.82546   0.84968   0.00000  Uiso   1.00
O1152  O     0.21896   0.67612   0.71215   0.00000  Uiso   1.00
O1153  O     0.28565   0.83142   0.92030   0.00000  Uiso   1.00
O1154  O     0.29203   0.79913   0.99029   0.00000  Uiso   1.00
O1155  O     0.12303   0.81550   0.56837   0.00000  Uiso   1.00
O1156  O     0.01949   0.88446   0.72787   0.00000  Uiso   1.00
O1157  O     0.17930   0.74686   0.78214   0.00000  Uiso   1.00
O1158  O     0.14632   0.92751   0.77014   0.00000  Uiso   1.00
O1159  O     0.07412   0.79958   0.73413   0.00000  Uiso   1.00
O1160  O     0.26693   0.85939   0.71361   0.00000  Uiso   1.00
O1161  O     0.07071   0.85544   0.78213   0.00000  Uiso   1.00
O1162  O     0.25491   0.81892   0.77014   0.00000  Uiso   1.00
O1163  O     0.13760   0.73610   0.73413   0.00000  Uiso   1.00
O1164  O     0.20345   0.92286   0.71361   0.00000  Uiso   1.00
Zn1165 Zn    0.19338   0.80661   0.78734   0.00000  Uiso   1.00
Zn1166 Zn    0.13379   0.79124   0.71876   0.00000  Uiso   1.00
Zn1167 Zn    0.21056   0.86442   0.70657   0.00000  Uiso   1.00
Zn1168 Zn    0.12893   0.87106   0.78734   0.00000  Uiso   1.00
C1169  C     0.38624   0.82590   0.75966   0.00000  Uiso   1.00
C1170  C     0.50083   0.82520   0.55649   0.00000  Uiso   1.00
C1171  C     0.56815   0.80260   0.55720   0.00000  Uiso   1.00
C1172  C     0.61417   0.84120   0.74065   0.00000  Uiso   1.00
C1173  C     0.47730   0.86385   0.92020   0.00000  Uiso   1.00
C1174  C     0.65971   0.84797   0.74125   0.00000  Uiso   1.00
C1175  C     0.34144   0.82096   0.76120   0.00000  Uiso   1.00
C1176  C     0.51550   0.98976   0.73966   0.00000  Uiso   1.00
C1177  C     0.48414   0.67878   0.76305   0.00000  Uiso   1.00
C1178  C     0.48982   0.72263   0.75956   0.00000  Uiso   1.00
C1179  C     0.51007   0.94463   0.74053   0.00000  Uiso   1.00
C1180  C     0.43599   0.89330   0.99203   0.00000  Uiso   1.00
C1181  C     0.51813   0.81550   0.62903   0.00000  Uiso   1.00
C1182  C     0.48255   0.85221   0.87107   0.00000  Uiso   1.00
C1183  C     0.58539   0.81028   0.51194   0.00000  Uiso   1.00
C1184  C     0.52683   0.81049   0.57985   0.00000  Uiso   1.00
C1185  C     0.43969   0.88042   0.94629   0.00000  Uiso   1.00
C1186  C     0.58647   0.67801   0.73267   0.00000  Uiso   1.00
C1187  C     0.61887   0.79392   0.89257   0.00000  Uiso   1.00
C1188  C     0.65692   0.82717   0.50568   0.00000  Uiso   1.00
C1189  C     0.43633   0.83201   0.61181   0.00000  Uiso   1.00
C1190  C     0.35259   0.89273   0.68397   0.00000  Uiso   1.00
C1191  C     0.46556   0.88373   0.51355   0.00000  Uiso   1.00
C1192  C     0.49697   0.85847   0.99008   0.00000  Uiso   1.00
C1193  C     0.50853   0.85731   0.94258   0.00000  Uiso   1.00
C1194  C     0.51987   0.83804   0.51237   0.00000  Uiso   1.00
C1195  C     0.56108   0.82773   0.98869   0.00000  Uiso   1.00
C1196  C     0.57715   0.83621   0.94278   0.00000  Uiso   1.00
C1197  C     0.55155   0.85245   0.92044   0.00000  Uiso   1.00
Cl1198 Cl    0.64801   0.77068   0.77405   0.00000  Uiso   1.00
Cl1199 Cl    0.43262   0.99182   0.79404   0.00000  Uiso   1.00
Cl1200 Cl    0.39715   0.88711   0.92301   0.00000  Uiso   1.00
Cl1201 Cl    0.47122   0.91347   0.56388   0.00000  Uiso   1.00
Cl1202 Cl    0.39439   0.92186   0.52270   0.00000  Uiso   1.00
Cl1203 Cl    0.57827   0.87721   0.87055   0.00000  Uiso   1.00
H1204  H     0.58762   0.79086   0.57533   0.00000  Uiso   1.00
H1205  H     0.65566   0.82353   0.54146   0.00000  Uiso   1.00
H1206  H     0.45688   0.85659   0.62732   0.00000  Uiso   1.00
H1207  H     0.42320   0.80651   0.63436   0.00000  Uiso   1.00
H1208  H     0.40862   0.84616   0.60883   0.00000  Uiso   1.00
H1209  H     0.66212   0.91411   0.68587   0.00000  Uiso   1.00
H1210  H     0.34649   0.86418   0.66185   0.00000  Uiso   1.00
H1211  H     0.38451   0.90888   0.66781   0.00000  Uiso   1.00
H1212  H     0.59531   0.97999   0.73330   0.00000  Uiso   1.00
H1213  H     0.57894   0.69358   0.76745   0.00000  Uiso   1.00
H1214  H     0.61487   0.69667   0.71243   0.00000  Uiso   1.00
H1215  H     0.60122   0.79447   0.86634   0.00000  Uiso   1.00
H1216  H     0.60495   0.76677   0.91284   0.00000  Uiso   1.00
H1217  H     0.65245   0.78976   0.87504   0.00000  Uiso   1.00
H1218  H     0.65413   0.85986   0.50132   0.00000  Uiso   1.00
H1219  H     0.35550   0.82022   0.98524   0.00000  Uiso   1.00
O1220  O     0.50000   0.83333   0.75000   0.00000  Uiso   1.00
O1221  O     0.48784   0.79304   0.65459   0.00000  Uiso   1.00
O1222  O     0.46274   0.87058   0.84968   0.00000  Uiso   1.00
O1223  O     0.54157   0.84425   0.64606   0.00000  Uiso   1.00
O1224  O     0.50785   0.82546   0.84968   0.00000  Uiso   1.00
O1225  O     0.55230   0.67612   0.71215   0.00000  Uiso   1.00
O1226  O     0.61898   0.83142   0.92030   0.00000  Uiso   1.00
O1227  O     0.62537   0.79913   0.99029   0.00000  Uiso   1.00
O1228  O     0.45637   0.81550   0.56837   0.00000  Uiso   1.00
O1229  O     0.35282   0.88446   0.72787   0.00000  Uiso   1.00
O1230  O     0.51264   0.74686   0.78214   0.00000  Uiso   1.00
O1231  O     0.47965   0.92751   0.77014   0.00000  Uiso   1.00
O1232  O     0.40745   0.79958   0.73413   0.00000  Uiso   1.00
O1233  O     0.60026   0.85939   0.71361   0.00000  Uiso   1.00
O1234  O     0.40405   0.85544   0.78213   0.00000  Uiso   1.00
O1235  O     0.58824   0.81892   0.77014   0.00000  Uiso   1.00
O1236  O     0.47093   0.73610   0.73413   0.00000  Uiso   1.00
O1237  O     0.53678   0.92286   0.71361   0.00000  Uiso   1.00
Zn1238 Zn    0.52672   0.80661   0.78734   0.00000  Uiso   1.00
Zn1239 Zn    0.46713   0.79124   0.71876   0.00000  Uiso   1.00
Zn1240 Zn    0.54389   0.86442   0.70657   0.00000  Uiso   1.00
Zn1241 Zn    0.46226   0.87106   0.78734   0.00000  Uiso   1.00
C1242  C     0.71957   0.82590   0.75966   0.00000  Uiso   1.00
C1243  C     0.83417   0.82520   0.55649   0.00000  Uiso   1.00
C1244  C     0.90149   0.80260   0.55720   0.00000  Uiso   1.00
C1245  C     0.94750   0.84120   0.74065   0.00000  Uiso   1.00
C1246  C     0.81064   0.86385   0.92020   0.00000  Uiso   1.00
C1247  C     0.99304   0.84797   0.74125   0.00000  Uiso   1.00
C1248  C     0.67477   0.82096   0.76120   0.00000  Uiso   1.00
C1249  C     0.84884   0.98976   0.73966   0.00000  Uiso   1.00
C1250  C     0.81748   0.67878   0.76305   0.00000  Uiso   1.00
C1251  C     0.82316   0.72263   0.75956   0.00000  Uiso   1.00
C1252  C     0.84340   0.94463   0.74053   0.00000  Uiso   1.00
C1253  C     0.76932   0.89330   0.99203   0.00000  Uiso   1.00
C1254  C     0.85147   0.81550   0.62903   0.00000  Uiso   1.00
C1255  C     0.81588   0.85221   0.87107   0.00000  Uiso   1.00
C1256  C     0.91872   0.81028   0.51194   0.00000  Uiso   1.00
C1257  C     0.86016   0.81049   0.57985   0.00000  Uiso   1.00
C1258  C     0.77302   0.88042   0.94629   0.00000  Uiso   1.00
C1259  C     0.91980   0.67801   0.73267   0.00000  Uiso   1.00
C1260  C     0.95220   0.79392   0.89257   0.00000  Uiso   1.00
C1261  C     0.99025   0.82717   0.50568   0.00000  Uiso   1.00
C1262  C     0.76967   0.83201   0.61181   0.00000  Uiso   1.00
C1263  C     0.68593   0.89273   0.68397   0.00000  Uiso   1.00
C1264  C     0.79890   0.88373   0.51355   0.00000  Uiso   1.00
C1265  C     0.83030   0.85847   0.99008   0.00000  Uiso   1.00
C1266  C     0.84187   0.85731   0.94258   0.00000  Uiso   1.00
C1267  C     0.85320   0.83804   0.51237   0.00000  Uiso   1.00
C1268  C     0.89441   0.82773   0.98869   0.00000  Uiso   1.00
C1269  C     0.91048   0.83621   0.94278   0.00000  Uiso   1.00
C1270  C     0.88488   0.85245   0.92044   0.00000  Uiso   1.00
Cl1271 Cl    0.98135   0.77068   0.77405   0.00000  Uiso   1.00
Cl1272 Cl    0.76595   0.99182   0.79404   0.00000  Uiso   1.00
Cl1273 Cl    0.73049   0.88711   0.92301   0.00000  Uiso   1.00
Cl1274 Cl    0.80455   0.91347   0.56388   0.00000  Uiso   1.00
Cl1275 Cl    0.72773   0.92186   0.52270   0.00000  Uiso   1.00
Cl1276 Cl    0.91160   0.87721   0.87055   0.00000  Uiso   1.00
H1277  H     0.92095   0.79086   0.57533   0.00000  Uiso   1.00
H1278  H     0.98899   0.82353   0.54146   0.00000  Uiso   1.00
H1279  H     0.79021   0.85659   0.62732   0.00000  Uiso   1.00
H1280  H     0.75653   0.80651   0.63436   0.00000  Uiso   1.00
H1281  H     0.74196   0.84616   0.60883   0.00000  Uiso   1.00
H1282  H     0.99545   0.91411   0.68587   0.00000  Uiso   1.00
H1283  H     0.67982   0.86418   0.66185   0.00000  Uiso   1.00
H1284  H     0.71785   0.90888   0.66781   0.00000  Uiso   1.00
H1285  H     0.92864   0.97999   0.73330   0.00000  Uiso   1.00
H1286  H     0.91228   0.69358   0.76745   0.00000  Uiso   1.00
H1287  H     0.94821   0.69667   0.71243   0.00000  Uiso   1.00
H1288  H     0.93455   0.79447   0.86634   0.00000  Uiso   1.00
H1289  H     0.93829   0.76677   0.91284   0.00000  Uiso   1.00
H1290  H     0.98578   0.78976   0.87504   0.00000  Uiso   1.00
H1291  H     0.98746   0.85986   0.50132   0.00000  Uiso   1.00
H1292  H     0.68883   0.82022   0.98524   0.00000  Uiso   1.00
O1293  O     0.83333   0.83333   0.75000   0.00000  Uiso   1.00
O1294  O     0.82118   0.79304   0.65459   0.00000  Uiso   1.00
O1295  O     0.79607   0.87058   0.84968   0.00000  Uiso   1.00
O1296  O     0.87491   0.84425   0.64606   0.00000  Uiso   1.00
O1297  O     0.84118   0.82546   0.84968   0.00000  Uiso   1.00
O1298  O     0.88563   0.67612   0.71215   0.00000  Uiso   1.00
O1299  O     0.95231   0.83142   0.92030   0.00000  Uiso   1.00
O1300  O     0.95870   0.79913   0.99029   0.00000  Uiso   1.00
O1301  O     0.78970   0.81550   0.56837   0.00000  Uiso   1.00
O1302  O     0.68615   0.88446   0.72787   0.00000  Uiso   1.00
O1303  O     0.84597   0.74686   0.78214   0.00000  Uiso   1.00
O1304  O     0.81298   0.92751   0.77014   0.00000  Uiso   1.00
O1305  O     0.74078   0.79958   0.73413   0.00000  Uiso   1.00
O1306  O     0.93360   0.85939   0.71361   0.00000  Uiso   1.00
O1307  O     0.73738   0.85544   0.78213   0.00000  Uiso   1.00
O1308  O     0.92158   0.81892   0.77014   0.00000  Uiso   1.00
O1309  O     0.80426   0.73610   0.73413   0.00000  Uiso   1.00
O1310  O     0.87012   0.92286   0.71361   0.00000  Uiso   1.00
Zn1311 Zn    0.86005   0.80661   0.78734   0.00000  Uiso   1.00
Zn1312 Zn    0.80046   0.79124   0.71876   0.00000  Uiso   1.00
Zn1313 Zn    0.87723   0.86442   0.70657   0.00000  Uiso   1.00
Zn1314 Zn    0.79560   0.87106   0.78734   0.00000  Uiso   1.00
loop_
_geom_bond_atom_site_label_1
_geom_bond_atom_site_label_2
_geom_bond_distance
_geom_bond_site_symmetry_2
_ccdc_geom_bond_type
C1     O66     1.278   .     A
C1     C7      1.435   .     S
C1     O64     1.257   .     A
C2     C16     1.413   .     A
C2     C26     1.420   .     A
C2     O60     1.396   .     S
C3     C15     1.395   .     A
C3     H36     1.084   .     S
C3     C16     1.395   .     A
C4     O67     1.277   .     A
C4     O65     1.285   .     A
C4     C6      1.474   .     S
C5     C14     1.488   .     S
C5     C25     1.426   .     A
C5     C17     1.427   .     A
C6     C80     1.349   .     S
C6     O134    1.396   .     S
C7     C152    1.349   1_455 S
C7     Cl176   1.775   1_455 S
C8     C11     1.462   .     S
C8     C228    1.351   .     S
C8     O276    1.389   .     S
C9     C10     1.431   .     S
C9     C446    1.351   1_545 S
C9     Cl469   1.772   1_545 S
C10    O68     1.268   .     A
C10    O62     1.276   .     A
C11    O69     1.277   .     A
C11    O63     1.265   .     A
C12    C17     1.402   .     A
C12    C680    1.396   .     S
C12    Cl691   1.768   .     S
C13    O53     1.280   .     A
C13    C16     1.460   .     S
C13    O55     1.272   .     A
C14    O56     1.299   .     A
C14    O54     1.284   .     A
C15    C684    1.415   1_554 S
C15    O716    1.384   1_554 S
C17    Cl32    1.774   .     S
C18    O57     1.410   .     S
C18    H46     1.109   .     S
C18    H45     1.114   .     S
C18    H482    1.112   1_545 S
C19    H49     1.109   .     S
C19    O58     1.411   .     S
C19    H47     1.112   .     S
C19    H48     1.113   .     S
C20    H37     1.111   .     S
C20    H50     1.114   .     S
C20    H781    1.109   1_554 S
C20    O716    1.411   1_554 S
C21    H39     1.108   .     S
C21    H40     1.107   .     S
C21    O60     1.411   .     S
C21    H38     1.112   .     S
C22    H43     1.109   .     S
C22    H42     1.114   .     S
C22    O61     1.411   .     S
C22    H187    1.110   1_455 S
C23    Cl33    1.768   .     S
C23    C669    1.396   1_554 S
C23    C681    1.411   1_554 S
C24    C25     1.409   .     A
C24    C680    1.411   .     S
C24    C683    1.417   .     S
C25    C29     1.416   .     A
C26    C681    1.417   1_554 S
C26    C684    1.423   1_554 S
C27    C28     1.417   .     A
C27    C672    1.415   .     S
C27    C683    1.423   .     S
C28    O58     1.384   .     S
C28    C29     1.407   .     A
C29    Cl35    1.773   .     S
Cl30   C80     1.775   .     S
Cl31   C228    1.772   .     S
Cl34   C669    1.768   1_554 S
H41    C95     1.110   .     S
H44    C237    1.112   .     S
H51    C823    1.109   1_455 S
O52    Zn72    1.932   .     S
O52    Zn70    1.961   .     S
O52    Zn73    1.940   .     S
O52    Zn71    1.937   .     S
O53    Zn71    1.918   .     S
O54    Zn73    1.926   .     S
O55    Zn72    1.920   .     S
O56    Zn70    1.915   .     S
O57    C446    1.389   1_545 S
O59    C677    1.411   .     S
O59    C672    1.384   .     S
O61    C152    1.396   1_455 S
O62    Zn70    1.935   .     S
O63    Zn73    1.938   .     S
O64    Zn71    1.936   .     S
O65    Zn72    1.943   .     S
O66    Zn73    1.934   .     S
O67    Zn70    1.929   .     S
O68    Zn71    1.947   .     S
O69    Zn72    1.942   .     S
C74    O139    1.278   .     A
C74    C80     1.435   .     S
C74    O137    1.257   .     A
C75    C89     1.413   .     A
C75    C99     1.420   .     A
C75    O133    1.396   .     S
C76    C88     1.395   .     A
C76    H109    1.084   .     S
C76    C89     1.395   .     A
C77    O140    1.277   .     A
C77    O138    1.285   .     A
C77    C79     1.474   .     S
C78    C87     1.488   .     S
C78    C98     1.426   .     A
C78    C90     1.427   .     A
C79    C153    1.349   .     S
C79    O207    1.396   .     S
C81    C84     1.462   .     S
C81    C301    1.351   .     S
C81    O349    1.389   .     S
C82    C83     1.431   .     S
C82    C519    1.351   1_545 S
C82    Cl542   1.772   1_545 S
C83    O141    1.268   .     A
C83    O135    1.276   .     A
C84    O142    1.277   .     A
C84    O136    1.265   .     A
C85    C90     1.402   .     A
C85    C753    1.396   .     S
C85    Cl764   1.768   .     S
C86    O126    1.280   .     A
C86    C89     1.460   .     S
C86    O128    1.272   .     A
C87    O129    1.299   .     A
C87    O127    1.284   .     A
C88    C757    1.415   1_554 S
C88    O789    1.384   1_554 S
C90    Cl105   1.774   .     S
C91    O130    1.410   .     S
C91    H119    1.109   .     S
C91    H118    1.114   .     S
C91    H555    1.112   1_545 S
C92    H122    1.109   .     S
C92    O131    1.411   .     S
C92    H120    1.112   .     S
C92    H121    1.113   .     S
C93    H110    1.111   .     S
C93    H123    1.114   .     S
C93    H854    1.109   1_554 S
C93    O789    1.411   1_554 S
C94    H112    1.108   .     S
C94    H113    1.107   .     S
C94    O133    1.411   .     S
C94    H111    1.112   .     S
C95    H116    1.109   .     S
C95    H115    1.114   .     S
C95    O134    1.411   .     S
C96    Cl106   1.768   .     S
C96    C742    1.396   1_554 S
C96    C754    1.411   1_554 S
C97    C98     1.409   .     A
C97    C753    1.411   .     S
C97    C756    1.417   .     S
C98    C102    1.416   .     A
C99    C754    1.417   1_554 S
C99    C757    1.423   1_554 S
C100   C101    1.417   .     A
C100   C745    1.415   .     S
C100   C756    1.423   .     S
C101   O131    1.384   .     S
C101   C102    1.407   .     A
C102   Cl108   1.773   .     S
Cl103  C153    1.775   .     S
Cl104  C301    1.772   .     S
Cl107  C742    1.768   1_554 S
H114   C168    1.110   .     S
H117   C310    1.112   .     S
H124   C677    1.109   .     S
O125   Zn145   1.932   .     S
O125   Zn143   1.961   .     S
O125   Zn146   1.940   .     S
O125   Zn144   1.937   .     S
O126   Zn144   1.918   .     S
O127   Zn146   1.926   .     S
O128   Zn145   1.920   .     S
O129   Zn143   1.915   .     S
O130   C519    1.389   1_545 S
O132   C750    1.411   .     S
O132   C745    1.384   .     S
O135   Zn143   1.935   .     S
O136   Zn146   1.938   .     S
O137   Zn144   1.936   .     S
O138   Zn145   1.943   .     S
O139   Zn146   1.934   .     S
O140   Zn143   1.929   .     S
O141   Zn144   1.947   .     S
O142   Zn145   1.942   .     S
C147   O212    1.278   .     A
C147   C153    1.435   .     S
C147   O210    1.257   .     A
C148   C162    1.413   .     A
C148   C172    1.420   .     A
C148   O206    1.396   .     S
C149   C161    1.395   .     A
C149   H182    1.084   .     S
C149   C162    1.395   .     A
C150   O213    1.277   .     A
C150   O211    1.285   .     A
C150   C152    1.474   .     S
C151   C160    1.488   .     S
C151   C171    1.426   .     A
C151   C163    1.427   .     A
C152   C7      1.349   1_655 S
C152   O61     1.396   1_655 S
C154   C157    1.462   .     S
C154   C374    1.351   .     S
C154   O422    1.389   .     S
C155   C156    1.431   .     S
C155   C592    1.351   1_545 S
C155   Cl615   1.772   1_545 S
C156   O214    1.268   .     A
C156   O208    1.276   .     A
C157   O215    1.277   .     A
C157   O209    1.265   .     A
C158   C163    1.402   .     A
C158   C826    1.396   .     S
C158   Cl837   1.768   .     S
C159   O199    1.280   .     A
C159   C162    1.460   .     S
C159   O201    1.272   .     A
C160   O202    1.299   .     A
C160   O200    1.284   .     A
C161   C830    1.415   1_554 S
C161   O862    1.384   1_554 S
C163   Cl178   1.774   .     S
C164   O203    1.410   .     S
C164   H192    1.109   .     S
C164   H191    1.114   .     S
C164   H628    1.112   1_545 S
C165   H195    1.109   .     S
C165   O204    1.411   .     S
C165   H193    1.112   .     S
C165   H194    1.113   .     S
C166   H183    1.111   .     S
C166   H196    1.114   .     S
C166   H708    1.109   1_654 S
C166   O862    1.411   1_554 S
C167   H185    1.108   .     S
C167   H186    1.107   .     S
C167   O206    1.411   .     S
C167   H184    1.112   .     S
C168   H189    1.109   .     S
C168   H188    1.114   .     S
C168   O207    1.411   .     S
C169   Cl179   1.768   .     S
C169   C815    1.396   1_554 S
C169   C827    1.411   1_554 S
C170   C171    1.409   .     A
C170   C826    1.411   .     S
C170   C829    1.417   .     S
C171   C175    1.416   .     A
C172   C827    1.417   1_554 S
C172   C830    1.423   1_554 S
C173   C174    1.417   .     A
C173   C818    1.415   .     S
C173   C829    1.423   .     S
C174   O204    1.384   .     S
C174   C175    1.407   .     A
C175   Cl181   1.773   .     S
Cl176  C7      1.775   1_655 S
Cl177  C374    1.772   .     S
Cl180  C815    1.768   1_554 S
H187   C22     1.110   1_655 S
H190   C383    1.112   .     S
H197   C750    1.109   .     S
O198   Zn218   1.932   .     S
O198   Zn216   1.961   .     S
O198   Zn219   1.940   .     S
O198   Zn217   1.937   .     S
O199   Zn217   1.918   .     S
O200   Zn219   1.926   .     S
O201   Zn218   1.920   .     S
O202   Zn216   1.915   .     S
O203   C592    1.389   1_545 S
O205   C823    1.411   .     S
O205   C818    1.384   .     S
O208   Zn216   1.935   .     S
O209   Zn219   1.938   .     S
O210   Zn217   1.936   .     S
O211   Zn218   1.943   .     S
O212   Zn219   1.934   .     S
O213   Zn216   1.929   .     S
O214   Zn217   1.947   .     S
O215   Zn218   1.942   .     S
C220   O285    1.278   .     A
C220   C226    1.435   .     S
C220   O283    1.257   .     A
C221   C235    1.413   .     A
C221   C245    1.420   .     A
C221   O279    1.396   .     S
C222   C234    1.395   .     A
C222   H255    1.084   .     S
C222   C235    1.395   .     A
C223   O286    1.277   .     A
C223   O284    1.285   .     A
C223   C225    1.474   .     S
C224   C233    1.488   .     S
C224   C244    1.426   .     A
C224   C236    1.427   .     A
C225   C299    1.349   .     S
C225   O353    1.396   .     S
C226   C371    1.349   1_455 S
C226   Cl395   1.775   1_455 S
C227   C230    1.462   .     S
C227   C447    1.351   .     S
C227   O495    1.389   .     S
C228   C229    1.431   .     S
C229   O287    1.268   .     A
C229   O281    1.276   .     A
C230   O288    1.277   .     A
C230   O282    1.265   .     A
C231   C236    1.402   .     A
C231   C899    1.396   .     S
C231   Cl910   1.768   .     S
C232   O272    1.280   .     A
C232   C235    1.460   .     S
C232   O274    1.272   .     A
C233   O275    1.299   .     A
C233   O273    1.284   .     A
C234   C903    1.415   1_554 S
C234   O935    1.384   1_554 S
C236   Cl251   1.774   .     S
C237   O276    1.410   .     S
C237   H265    1.109   .     S
C237   H264    1.114   .     S
C238   H268    1.109   .     S
C238   O277    1.411   .     S
C238   H266    1.112   .     S
C238   H267    1.113   .     S
C239   H256    1.111   .     S
C239   H269    1.114   .     S
C239   H1000   1.109   1_554 S
C239   O935    1.411   1_554 S
C240   H258    1.108   .     S
C240   H259    1.107   .     S
C240   O279    1.411   .     S
C240   H257    1.112   .     S
C241   H262    1.109   .     S
C241   H261    1.114   .     S
C241   O280    1.411   .     S
C241   H406    1.110   1_455 S
C242   Cl252   1.768   .     S
C242   C888    1.396   1_554 S
C242   C900    1.411   1_554 S
C243   C244    1.409   .     A
C243   C899    1.411   .     S
C243   C902    1.417   .     S
C244   C248    1.416   .     A
C245   C900    1.417   1_554 S
C245   C903    1.423   1_554 S
C246   C247    1.417   .     A
C246   C891    1.415   .     S
C246   C902    1.423   .     S
C247   O277    1.384   .     S
C247   C248    1.407   .     A
C248   Cl254   1.773   .     S
Cl249  C299    1.775   .     S
Cl250  C447    1.772   .     S
Cl253  C888    1.768   1_554 S
H260   C314    1.110   .     S
H263   C456    1.112   .     S
H270   C1042   1.109   1_455 S
O271   Zn291   1.932   .     S
O271   Zn289   1.961   .     S
O271   Zn292   1.940   .     S
O271   Zn290   1.937   .     S
O272   Zn290   1.918   .     S
O273   Zn292   1.926   .     S
O274   Zn291   1.920   .     S
O275   Zn289   1.915   .     S
O278   C896    1.411   .     S
O278   C891    1.384   .     S
O280   C371    1.396   1_455 S
O281   Zn289   1.935   .     S
O282   Zn292   1.938   .     S
O283   Zn290   1.936   .     S
O284   Zn291   1.943   .     S
O285   Zn292   1.934   .     S
O286   Zn289   1.929   .     S
O287   Zn290   1.947   .     S
O288   Zn291   1.942   .     S
C293   O358    1.278   .     A
C293   C299    1.435   .     S
C293   O356    1.257   .     A
C294   C308    1.413   .     A
C294   C318    1.420   .     A
C294   O352    1.396   .     S
C295   C307    1.395   .     A
C295   H328    1.084   .     S
C295   C308    1.395   .     A
C296   O359    1.277   .     A
C296   O357    1.285   .     A
C296   C298    1.474   .     S
C297   C306    1.488   .     S
C297   C317    1.426   .     A
C297   C309    1.427   .     A
C298   C372    1.349   .     S
C298   O426    1.396   .     S
C300   C303    1.462   .     S
C300   C520    1.351   .     S
C300   O568    1.389   .     S
C301   C302    1.431   .     S
C302   O360    1.268   .     A
C302   O354    1.276   .     A
C303   O361    1.277   .     A
C303   O355    1.265   .     A
C304   C309    1.402   .     A
C304   C972    1.396   .     S
C304   Cl983   1.768   .     S
C305   O345    1.280   .     A
C305   C308    1.460   .     S
C305   O347    1.272   .     A
C306   O348    1.299   .     A
C306   O346    1.284   .     A
C307   C976    1.415   1_554 S
C307   O1008   1.384   1_554 S
C309   Cl324   1.774   .     S
C310   O349    1.410   .     S
C310   H338    1.109   .     S
C310   H337    1.114   .     S
C311   H341    1.109   .     S
C311   O350    1.411   .     S
C311   H339    1.112   .     S
C311   H340    1.113   .     S
C312   H329    1.111   .     S
C312   H342    1.114   .     S
C312   H1073   1.109   1_554 S
C312   O1008   1.411   1_554 S
C313   H331    1.108   .     S
C313   H332    1.107   .     S
C313   O352    1.411   .     S
C313   H330    1.112   .     S
C314   H335    1.109   .     S
C314   H334    1.114   .     S
C314   O353    1.411   .     S
C315   Cl325   1.768   .     S
C315   C961    1.396   1_554 S
C315   C973    1.411   1_554 S
C316   C317    1.409   .     A
C316   C972    1.411   .     S
C316   C975    1.417   .     S
C317   C321    1.416   .     A
C318   C973    1.417   1_554 S
C318   C976    1.423   1_554 S
C319   C320    1.417   .     A
C319   C964    1.415   .     S
C319   C975    1.423   .     S
C320   O350    1.384   .     S
C320   C321    1.407   .     A
C321   Cl327   1.773   .     S
Cl322  C372    1.775   .     S
Cl323  C520    1.772   .     S
Cl326  C961    1.768   1_554 S
H333   C387    1.110   .     S
H336   C529    1.112   .     S
H343   C896    1.109   .     S
O344   Zn364   1.932   .     S
O344   Zn362   1.961   .     S
O344   Zn365   1.940   .     S
O344   Zn363   1.937   .     S
O345   Zn363   1.918   .     S
O346   Zn365   1.926   .     S
O347   Zn364   1.920   .     S
O348   Zn362   1.915   .     S
O351   C969    1.411   .     S
O351   C964    1.384   .     S
O354   Zn362   1.935   .     S
O355   Zn365   1.938   .     S
O356   Zn363   1.936   .     S
O357   Zn364   1.943   .     S
O358   Zn365   1.934   .     S
O359   Zn362   1.929   .     S
O360   Zn363   1.947   .     S
O361   Zn364   1.942   .     S
C366   O431    1.278   .     A
C366   C372    1.435   .     S
C366   O429    1.257   .     A
C367   C381    1.413   .     A
C367   C391    1.420   .     A
C367   O425    1.396   .     S
C368   C380    1.395   .     A
C368   H401    1.084   .     S
C368   C381    1.395   .     A
C369   O432    1.277   .     A
C369   O430    1.285   .     A
C369   C371    1.474   .     S
C370   C379    1.488   .     S
C370   C390    1.426   .     A
C370   C382    1.427   .     A
C371   C226    1.349   1_655 S
C371   O280    1.396   1_655 S
C373   C376    1.462   .     S
C373   C593    1.351   .     S
C373   O641    1.389   .     S
C374   C375    1.431   .     S
C375   O433    1.268   .     A
C375   O427    1.276   .     A
C376   O434    1.277   .     A
C376   O428    1.265   .     A
C377   C382    1.402   .     A
C377   C1045   1.396   .     S
C377   Cl1056  1.768   .     S
C378   O418    1.280   .     A
C378   C381    1.460   .     S
C378   O420    1.272   .     A
C379   O421    1.299   .     A
C379   O419    1.284   .     A
C380   C1049   1.415   1_554 S
C380   O1081   1.384   1_554 S
C382   Cl397   1.774   .     S
C383   O422    1.410   .     S
C383   H411    1.109   .     S
C383   H410    1.114   .     S
C384   H414    1.109   .     S
C384   O423    1.411   .     S
C384   H412    1.112   .     S
C384   H413    1.113   .     S
C385   H402    1.111   .     S
C385   H415    1.114   .     S
C385   H927    1.109   1_654 S
C385   O1081   1.411   1_554 S
C386   H404    1.108   .     S
C386   H405    1.107   .     S
C386   O425    1.411   .     S
C386   H403    1.112   .     S
C387   H408    1.109   .     S
C387   H407    1.114   .     S
C387   O426    1.411   .     S
C388   Cl398   1.768   .     S
C388   C1034   1.396   1_554 S
C388   C1046   1.411   1_554 S
C389   C390    1.409   .     A
C389   C1045   1.411   .     S
C389   C1048   1.417   .     S
C390   C394    1.416   .     A
C391   C1046   1.417   1_554 S
C391   C1049   1.423   1_554 S
C392   C393    1.417   .     A
C392   C1037   1.415   .     S
C392   C1048   1.423   .     S
C393   O423    1.384   .     S
C393   C394    1.407   .     A
C394   Cl400   1.773   .     S
Cl395  C226    1.775   1_655 S
Cl396  C593    1.772   .     S
Cl399  C1034   1.768   1_554 S
H406   C241    1.110   1_655 S
H409   C602    1.112   .     S
H416   C969    1.109   .     S
O417   Zn437   1.932   .     S
O417   Zn435   1.961   .     S
O417   Zn438   1.940   .     S
O417   Zn436   1.937   .     S
O418   Zn436   1.918   .     S
O419   Zn438   1.926   .     S
O420   Zn437   1.920   .     S
O421   Zn435   1.915   .     S
O424   C1042   1.411   .     S
O424   C1037   1.384   .     S
O427   Zn435   1.935   .     S
O428   Zn438   1.938   .     S
O429   Zn436   1.936   .     S
O430   Zn437   1.943   .     S
O431   Zn438   1.934   .     S
O432   Zn435   1.929   .     S
O433   Zn436   1.947   .     S
O434   Zn437   1.942   .     S
C439   O504    1.278   .     A
C439   C445    1.435   .     S
C439   O502    1.257   .     A
C440   C454    1.413   .     A
C440   C464    1.420   .     A
C440   O498    1.396   .     S
C441   C453    1.395   .     A
C441   H474    1.084   .     S
C441   C454    1.395   .     A
C442   O505    1.277   .     A
C442   O503    1.285   .     A
C442   C444    1.474   .     S
C443   C452    1.488   .     S
C443   C463    1.426   .     A
C443   C455    1.427   .     A
C444   C518    1.349   .     S
C444   O572    1.396   .     S
C445   C590    1.349   1_455 S
C445   Cl614   1.775   1_455 S
C446   C449    1.462   .     S
C446   C9      1.351   1_565 S
C446   O57     1.389   1_565 S
C447   C448    1.431   .     S
C448   O506    1.268   .     A
C448   O500    1.276   .     A
C449   O507    1.277   .     A
C449   O501    1.265   .     A
C450   C455    1.402   .     A
C450   C1118   1.396   .     S
C450   Cl1129  1.768   .     S
C451   O491    1.280   .     A
C451   C454    1.460   .     S
C451   O493    1.272   .     A
C452   O494    1.299   .     A
C452   O492    1.284   .     A
C453   C1122   1.415   1_554 S
C453   O1154   1.384   1_554 S
C455   Cl470   1.774   .     S
C456   O495    1.410   .     S
C456   H484    1.109   .     S
C456   H483    1.114   .     S
C457   H487    1.109   .     S
C457   O496    1.411   .     S
C457   H485    1.112   .     S
C457   H486    1.113   .     S
C458   H475    1.111   .     S
C458   H488    1.114   .     S
C458   H1219   1.109   1_554 S
C458   O1154   1.411   1_554 S
C459   H477    1.108   .     S
C459   H478    1.107   .     S
C459   O498    1.411   .     S
C459   H476    1.112   .     S
C460   H481    1.109   .     S
C460   H480    1.114   .     S
C460   O499    1.411   .     S
C460   H625    1.110   1_455 S
C461   Cl471   1.768   .     S
C461   C1107   1.396   1_554 S
C461   C1119   1.411   1_554 S
C462   C463    1.409   .     A
C462   C1118   1.411   .     S
C462   C1121   1.417   .     S
C463   C467    1.416   .     A
C464   C1119   1.417   1_554 S
C464   C1122   1.423   1_554 S
C465   C466    1.417   .     A
C465   C1110   1.415   .     S
C465   C1121   1.423   .     S
C466   O496    1.384   .     S
C466   C467    1.407   .     A
C467   Cl473   1.773   .     S
Cl468  C518    1.775   .     S
Cl469  C9      1.772   1_565 S
Cl472  C1107   1.768   1_554 S
H479   C533    1.110   .     S
H482   C18     1.112   1_565 S
H489   C1261   1.109   1_455 S
O490   Zn510   1.932   .     S
O490   Zn508   1.961   .     S
O490   Zn511   1.940   .     S
O490   Zn509   1.937   .     S
O491   Zn509   1.918   .     S
O492   Zn511   1.926   .     S
O493   Zn510   1.920   .     S
O494   Zn508   1.915   .     S
O497   C1115   1.411   .     S
O497   C1110   1.384   .     S
O499   C590    1.396   1_455 S
O500   Zn508   1.935   .     S
O501   Zn511   1.938   .     S
O502   Zn509   1.936   .     S
O503   Zn510   1.943   .     S
O504   Zn511   1.934   .     S
O505   Zn508   1.929   .     S
O506   Zn509   1.947   .     S
O507   Zn510   1.942   .     S
C512   O577    1.278   .     A
C512   C518    1.435   .     S
C512   O575    1.257   .     A
C513   C527    1.413   .     A
C513   C537    1.420   .     A
C513   O571    1.396   .     S
C514   C526    1.395   .     A
C514   H547    1.084   .     S
C514   C527    1.395   .     A
C515   O578    1.277   .     A
C515   O576    1.285   .     A
C515   C517    1.474   .     S
C516   C525    1.488   .     S
C516   C536    1.426   .     A
C516   C528    1.427   .     A
C517   C591    1.349   .     S
C517   O645    1.396   .     S
C519   C522    1.462   .     S
C519   C82     1.351   1_565 S
C519   O130    1.389   1_565 S
C520   C521    1.431   .     S
C521   O579    1.268   .     A
C521   O573    1.276   .     A
C522   O580    1.277   .     A
C522   O574    1.265   .     A
C523   C528    1.402   .     A
C523   C1191   1.396   .     S
C523   Cl1202  1.768   .     S
C524   O564    1.280   .     A
C524   C527    1.460   .     S
C524   O566    1.272   .     A
C525   O567    1.299   .     A
C525   O565    1.284   .     A
C526   C1195   1.415   1_554 S
C526   O1227   1.384   1_554 S
C528   Cl543   1.774   .     S
C529   O568    1.410   .     S
C529   H557    1.109   .     S
C529   H556    1.114   .     S
C530   H560    1.109   .     S
C530   O569    1.411   .     S
C530   H558    1.112   .     S
C530   H559    1.113   .     S
C531   H548    1.111   .     S
C531   H561    1.114   .     S
C531   H1292   1.109   1_554 S
C531   O1227   1.411   1_554 S
C532   H550    1.108   .     S
C532   H551    1.107   .     S
C532   O571    1.411   .     S
C532   H549    1.112   .     S
C533   H554    1.109   .     S
C533   H553    1.114   .     S
C533   O572    1.411   .     S
C534   Cl544   1.768   .     S
C534   C1180   1.396   1_554 S
C534   C1192   1.411   1_554 S
C535   C536    1.409   .     A
C535   C1191   1.411   .     S
C535   C1194   1.417   .     S
C536   C540    1.416   .     A
C537   C1192   1.417   1_554 S
C537   C1195   1.423   1_554 S
C538   C539    1.417   .     A
C538   C1183   1.415   .     S
C538   C1194   1.423   .     S
C539   O569    1.384   .     S
C539   C540    1.407   .     A
C540   Cl546   1.773   .     S
Cl541  C591    1.775   .     S
Cl542  C82     1.772   1_565 S
Cl545  C1180   1.768   1_554 S
H552   C606    1.110   .     S
H555   C91     1.112   1_565 S
H562   C1115   1.109   .     S
O563   Zn583   1.932   .     S
O563   Zn581   1.961   .     S
O563   Zn584   1.940   .     S
O563   Zn582   1.937   .     S
O564   Zn582   1.918   .     S
O565   Zn584   1.926   .     S
O566   Zn583   1.920   .     S
O567   Zn581   1.915   .     S
O570   C1188   1.411   .     S
O570   C1183   1.384   .     S
O573   Zn581   1.935   .     S
O574   Zn584   1.938   .     S
O575   Zn582   1.936   .     S
O576   Zn583   1.943   .     S
O577   Zn584   1.934   .     S
O578   Zn581   1.929   .     S
O579   Zn582   1.947   .     S
O580   Zn583   1.942   .     S
C585   O650    1.278   .     A
C585   C591    1.435   .     S
C585   O648    1.257   .     A
C586   C600    1.413   .     A
C586   C610    1.420   .     A
C586   O644    1.396   .     S
C587   C599    1.395   .     A
C587   H620    1.084   .     S
C587   C600    1.395   .     A
C588   O651    1.277   .     A
C588   O649    1.285   .     A
C588   C590    1.474   .     S
C589   C598    1.488   .     S
C589   C609    1.426   .     A
C589   C601    1.427   .     A
C590   C445    1.349   1_655 S
C590   O499    1.396   1_655 S
C592   C595    1.462   .     S
C592   C155    1.351   1_565 S
C592   O203    1.389   1_565 S
C593   C594    1.431   .     S
C594   O652    1.268   .     A
C594   O646    1.276   .     A
C595   O653    1.277   .     A
C595   O647    1.265   .     A
C596   C601    1.402   .     A
C596   C1264   1.396   .     S
C596   Cl1275  1.768   .     S
C597   O637    1.280   .     A
C597   C600    1.460   .     S
C597   O639    1.272   .     A
C598   O640    1.299   .     A
C598   O638    1.284   .     A
C599   C1268   1.415   1_554 S
C599   O1300   1.384   1_554 S
C601   Cl616   1.774   .     S
C602   O641    1.410   .     S
C602   H630    1.109   .     S
C602   H629    1.114   .     S
C603   H633    1.109   .     S
C603   O642    1.411   .     S
C603   H631    1.112   .     S
C603   H632    1.113   .     S
C604   H621    1.111   .     S
C604   H634    1.114   .     S
C604   H1146   1.109   1_654 S
C604   O1300   1.411   1_554 S
C605   H623    1.108   .     S
C605   H624    1.107   .     S
C605   O644    1.411   .     S
C605   H622    1.112   .     S
C606   H627    1.109   .     S
C606   H626    1.114   .     S
C606   O645    1.411   .     S
C607   Cl617   1.768   .     S
C607   C1253   1.396   1_554 S
C607   C1265   1.411   1_554 S
C608   C609    1.409   .     A
C608   C1264   1.411   .     S
C608   C1267   1.417   .     S
C609   C613    1.416   .     A
C610   C1265   1.417   1_554 S
C610   C1268   1.423   1_554 S
C611   C612    1.417   .     A
C611   C1256   1.415   .     S
C611   C1267   1.423   .     S
C612   O642    1.384   .     S
C612   C613    1.407   .     A
C613   Cl619   1.773   .     S
Cl614  C445    1.775   1_655 S
Cl615  C155    1.772   1_565 S
Cl618  C1253   1.768   1_554 S
H625   C460    1.110   1_655 S
H628   C164    1.112   1_565 S
H635   C1188   1.109   .     S
O636   Zn656   1.932   .     S
O636   Zn654   1.961   .     S
O636   Zn657   1.940   .     S
O636   Zn655   1.937   .     S
O637   Zn655   1.918   .     S
O638   Zn657   1.926   .     S
O639   Zn656   1.920   .     S
O640   Zn654   1.915   .     S
O643   C1261   1.411   .     S
O643   C1256   1.384   .     S
O646   Zn654   1.935   .     S
O647   Zn657   1.938   .     S
O648   Zn655   1.936   .     S
O649   Zn656   1.943   .     S
O650   Zn657   1.934   .     S
O651   Zn654   1.929   .     S
O652   Zn655   1.947   .     S
O653   Zn656   1.942   .     S
C658   O723    1.278   .     A
C658   C664    1.435   .     S
C658   O721    1.257   .     A
C659   C673    1.413   .     A
C659   C683    1.420   .     A
C659   O717    1.396   .     S
C660   C672    1.395   .     A
C660   H693    1.084   .     S
C660   C673    1.395   .     A
C661   O724    1.277   .     A
C661   O722    1.285   .     A
C661   C663    1.474   .     S
C662   C671    1.488   .     S
C662   C682    1.426   .     A
C662   C674    1.427   .     A
C663   C737    1.349   .     S
C663   O791    1.396   .     S
C664   C809    1.349   1_455 S
C664   Cl833   1.775   1_455 S
C665   C668    1.462   .     S
C665   C885    1.351   .     S
C665   O933    1.389   .     S
C666   C667    1.431   .     S
C666   C1103   1.351   1_545 S
C666   Cl1126  1.772   1_545 S
C667   O725    1.268   .     A
C667   O719    1.276   .     A
C668   O726    1.277   .     A
C668   O720    1.265   .     A
C669   C674    1.402   .     A
C669   C23     1.396   1_556 S
C669   Cl34    1.768   1_556 S
C670   O710    1.280   .     A
C670   C673    1.460   .     S
C670   O712    1.272   .     A
C671   O713    1.299   .     A
C671   O711    1.284   .     A
C674   Cl689   1.774   .     S
C675   O714    1.410   .     S
C675   H703    1.109   .     S
C675   H702    1.114   .     S
C675   H1139   1.112   1_545 S
C676   H706    1.109   .     S
C676   O715    1.411   .     S
C676   H704    1.112   .     S
C676   H705    1.113   .     S
C677   H694    1.111   .     S
C677   H707    1.114   .     S
C678   H696    1.108   .     S
C678   H697    1.107   .     S
C678   O717    1.411   .     S
C678   H695    1.112   .     S
C679   H700    1.109   .     S
C679   H699    1.114   .     S
C679   O718    1.411   .     S
C679   H844    1.110   1_455 S
C680   Cl690   1.768   .     S
C681   C682    1.409   .     A
C681   C23     1.411   1_556 S
C681   C26     1.417   1_556 S
C682   C686    1.416   .     A
C684   C685    1.417   .     A
C684   C15     1.415   1_556 S
C684   C26     1.423   1_556 S
C685   O715    1.384   .     S
C685   C686    1.407   .     A
C686   Cl692   1.773   .     S
Cl687  C737    1.775   .     S
Cl688  C885    1.772   .     S
H698   C752    1.110   .     S
H701   C894    1.112   .     S
H708   C166    1.109   1_456 S
O709   Zn729   1.932   .     S
O709   Zn727   1.961   .     S
O709   Zn730   1.940   .     S
O709   Zn728   1.937   .     S
O710   Zn728   1.918   .     S
O711   Zn730   1.926   .     S
O712   Zn729   1.920   .     S
O713   Zn727   1.915   .     S
O714   C1103   1.389   1_545 S
O716   C20     1.411   1_556 S
O716   C15     1.384   1_556 S
O718   C809    1.396   1_455 S
O719   Zn727   1.935   .     S
O720   Zn730   1.938   .     S
O721   Zn728   1.936   .     S
O722   Zn729   1.943   .     S
O723   Zn730   1.934   .     S
O724   Zn727   1.929   .     S
O725   Zn728   1.947   .     S
O726   Zn729   1.942   .     S
C731   O796    1.278   .     A
C731   C737    1.435   .     S
C731   O794    1.257   .     A
C732   C746    1.413   .     A
C732   C756    1.420   .     A
C732   O790    1.396   .     S
C733   C745    1.395   .     A
C733   H766    1.084   .     S
C733   C746    1.395   .     A
C734   O797    1.277   .     A
C734   O795    1.285   .     A
C734   C736    1.474   .     S
C735   C744    1.488   .     S
C735   C755    1.426   .     A
C735   C747    1.427   .     A
C736   C810    1.349   .     S
C736   O864    1.396   .     S
C738   C741    1.462   .     S
C738   C958    1.351   .     S
C738   O1006   1.389   .     S
C739   C740    1.431   .     S
C739   C1176   1.351   1_545 S
C739   Cl1199  1.772   1_545 S
C740   O798    1.268   .     A
C740   O792    1.276   .     A
C741   O799    1.277   .     A
C741   O793    1.265   .     A
C742   C747    1.402   .     A
C742   C96     1.396   1_556 S
C742   Cl107   1.768   1_556 S
C743   O783    1.280   .     A
C743   C746    1.460   .     S
C743   O785    1.272   .     A
C744   O786    1.299   .     A
C744   O784    1.284   .     A
C747   Cl762   1.774   .     S
C748   O787    1.410   .     S
C748   H776    1.109   .     S
C748   H775    1.114   .     S
C748   H1212   1.112   1_545 S
C749   H779    1.109   .     S
C749   O788    1.411   .     S
C749   H777    1.112   .     S
C749   H778    1.113   .     S
C750   H767    1.111   .     S
C750   H780    1.114   .     S
C751   H769    1.108   .     S
C751   H770    1.107   .     S
C751   O790    1.411   .     S
C751   H768    1.112   .     S
C752   H773    1.109   .     S
C752   H772    1.114   .     S
C752   O791    1.411   .     S
C753   Cl763   1.768   .     S
C754   C755    1.409   .     A
C754   C96     1.411   1_556 S
C754   C99     1.417   1_556 S
C755   C759    1.416   .     A
C757   C758    1.417   .     A
C757   C88     1.415   1_556 S
C757   C99     1.423   1_556 S
C758   O788    1.384   .     S
C758   C759    1.407   .     A
C759   Cl765   1.773   .     S
Cl760  C810    1.775   .     S
Cl761  C958    1.772   .     S
H771   C825    1.110   .     S
H774   C967    1.112   .     S
H781   C20     1.109   1_556 S
O782   Zn802   1.932   .     S
O782   Zn800   1.961   .     S
O782   Zn803   1.940   .     S
O782   Zn801   1.937   .     S
O783   Zn801   1.918   .     S
O784   Zn803   1.926   .     S
O785   Zn802   1.920   .     S
O786   Zn800   1.915   .     S
O787   C1176   1.389   1_545 S
O789   C93     1.411   1_556 S
O789   C88     1.384   1_556 S
O792   Zn800   1.935   .     S
O793   Zn803   1.938   .     S
O794   Zn801   1.936   .     S
O795   Zn802   1.943   .     S
O796   Zn803   1.934   .     S
O797   Zn800   1.929   .     S
O798   Zn801   1.947   .     S
O799   Zn802   1.942   .     S
C804   O869    1.278   .     A
C804   C810    1.435   .     S
C804   O867    1.257   .     A
C805   C819    1.413   .     A
C805   C829    1.420   .     A
C805   O863    1.396   .     S
C806   C818    1.395   .     A
C806   H839    1.084   .     S
C806   C819    1.395   .     A
C807   O870    1.277   .     A
C807   O868    1.285   .     A
C807   C809    1.474   .     S
C808   C817    1.488   .     S
C808   C828    1.426   .     A
C808   C820    1.427   .     A
C809   C664    1.349   1_655 S
C809   O718    1.396   1_655 S
C811   C814    1.462   .     S
C811   C1031   1.351   .     S
C811   O1079   1.389   .     S
C812   C813    1.431   .     S
C812   C1249   1.351   1_545 S
C812   Cl1272  1.772   1_545 S
C813   O871    1.268   .     A
C813   O865    1.276   .     A
C814   O872    1.277   .     A
C814   O866    1.265   .     A
C815   C820    1.402   .     A
C815   C169    1.396   1_556 S
C815   Cl180   1.768   1_556 S
C816   O856    1.280   .     A
C816   C819    1.460   .     S
C816   O858    1.272   .     A
C817   O859    1.299   .     A
C817   O857    1.284   .     A
C820   Cl835   1.774   .     S
C821   O860    1.410   .     S
C821   H849    1.109   .     S
C821   H848    1.114   .     S
C821   H1285   1.112   1_545 S
C822   H852    1.109   .     S
C822   O861    1.411   .     S
C822   H850    1.112   .     S
C822   H851    1.113   .     S
C823   H840    1.111   .     S
C823   H853    1.114   .     S
C823   H51     1.109   1_655 S
C824   H842    1.108   .     S
C824   H843    1.107   .     S
C824   O863    1.411   .     S
C824   H841    1.112   .     S
C825   H846    1.109   .     S
C825   H845    1.114   .     S
C825   O864    1.411   .     S
C826   Cl836   1.768   .     S
C827   C828    1.409   .     A
C827   C169    1.411   1_556 S
C827   C172    1.417   1_556 S
C828   C832    1.416   .     A
C830   C831    1.417   .     A
C830   C161    1.415   1_556 S
C830   C172    1.423   1_556 S
C831   O861    1.384   .     S
C831   C832    1.407   .     A
C832   Cl838   1.773   .     S
Cl833  C664    1.775   1_655 S
Cl834  C1031   1.772   .     S
H844   C679    1.110   1_655 S
H847   C1040   1.112   .     S
H854   C93     1.109   1_556 S
O855   Zn875   1.932   .     S
O855   Zn873   1.961   .     S
O855   Zn876   1.940   .     S
O855   Zn874   1.937   .     S
O856   Zn874   1.918   .     S
O857   Zn876   1.926   .     S
O858   Zn875   1.920   .     S
O859   Zn873   1.915   .     S
O860   C1249   1.389   1_545 S
O862   C166    1.411   1_556 S
O862   C161    1.384   1_556 S
O865   Zn873   1.935   .     S
O866   Zn876   1.938   .     S
O867   Zn874   1.936   .     S
O868   Zn875   1.943   .     S
O869   Zn876   1.934   .     S
O870   Zn873   1.929   .     S
O871   Zn874   1.947   .     S
O872   Zn875   1.942   .     S
C877   O942    1.278   .     A
C877   C883    1.435   .     S
C877   O940    1.257   .     A
C878   C892    1.413   .     A
C878   C902    1.420   .     A
C878   O936    1.396   .     S
C879   C891    1.395   .     A
C879   H912    1.084   .     S
C879   C892    1.395   .     A
C880   O943    1.277   .     A
C880   O941    1.285   .     A
C880   C882    1.474   .     S
C881   C890    1.488   .     S
C881   C901    1.426   .     A
C881   C893    1.427   .     A
C882   C956    1.349   .     S
C882   O1010   1.396   .     S
C883   C1028   1.349   1_455 S
C883   Cl1052  1.775   1_455 S
C884   C887    1.462   .     S
C884   C1104   1.351   .     S
C884   O1152   1.389   .     S
C885   C886    1.431   .     S
C886   O944    1.268   .     A
C886   O938    1.276   .     A
C887   O945    1.277   .     A
C887   O939    1.265   .     A
C888   C893    1.402   .     A
C888   C242    1.396   1_556 S
C888   Cl253   1.768   1_556 S
C889   O929    1.280   .     A
C889   C892    1.460   .     S
C889   O931    1.272   .     A
C890   O932    1.299   .     A
C890   O930    1.284   .     A
C893   Cl908   1.774   .     S
C894   O933    1.410   .     S
C894   H922    1.109   .     S
C894   H921    1.114   .     S
C895   H925    1.109   .     S
C895   O934    1.411   .     S
C895   H923    1.112   .     S
C895   H924    1.113   .     S
C896   H913    1.111   .     S
C896   H926    1.114   .     S
C897   H915    1.108   .     S
C897   H916    1.107   .     S
C897   O936    1.411   .     S
C897   H914    1.112   .     S
C898   H919    1.109   .     S
C898   H918    1.114   .     S
C898   O937    1.411   .     S
C898   H1063   1.110   1_455 S
C899   Cl909   1.768   .     S
C900   C901    1.409   .     A
C900   C242    1.411   1_556 S
C900   C245    1.417   1_556 S
C901   C905    1.416   .     A
C903   C904    1.417   .     A
C903   C234    1.415   1_556 S
C903   C245    1.423   1_556 S
C904   O934    1.384   .     S
C904   C905    1.407   .     A
C905   Cl911   1.773   .     S
Cl906  C956    1.775   .     S
Cl907  C1104   1.772   .     S
H917   C971    1.110   .     S
H920   C1113   1.112   .     S
H927   C385    1.109   1_456 S
O928   Zn948   1.932   .     S
O928   Zn946   1.961   .     S
O928   Zn949   1.940   .     S
O928   Zn947   1.937   .     S
O929   Zn947   1.918   .     S
O930   Zn949   1.926   .     S
O931   Zn948   1.920   .     S
O932   Zn946   1.915   .     S
O935   C239    1.411   1_556 S
O935   C234    1.384   1_556 S
O937   C1028   1.396   1_455 S
O938   Zn946   1.935   .     S
O939   Zn949   1.938   .     S
O940   Zn947   1.936   .     S
O941   Zn948   1.943   .     S
O942   Zn949   1.934   .     S
O943   Zn946   1.929   .     S
O944   Zn947   1.947   .     S
O945   Zn948   1.942   .     S
C950   O1015   1.278   .     A
C950   C956    1.435   .     S
C950   O1013   1.257   .     A
C951   C965    1.413   .     A
C951   C975    1.420   .     A
C951   O1009   1.396   .     S
C952   C964    1.395   .     A
C952   H985    1.084   .     S
C952   C965    1.395   .     A
C953   O1016   1.277   .     A
C953   O1014   1.285   .     A
C953   C955    1.474   .     S
C954   C963    1.488   .     S
C954   C974    1.426   .     A
C954   C966    1.427   .     A
C955   C1029   1.349   .     S
C955   O1083   1.396   .     S
C957   C960    1.462   .     S
C957   C1177   1.351   .     S
C957   O1225   1.389   .     S
C958   C959    1.431   .     S
C959   O1017   1.268   .     A
C959   O1011   1.276   .     A
C960   O1018   1.277   .     A
C960   O1012   1.265   .     A
C961   C966    1.402   .     A
C961   C315    1.396   1_556 S
C961   Cl326   1.768   1_556 S
C962   O1002   1.280   .     A
C962   C965    1.460   .     S
C962   O1004   1.272   .     A
C963   O1005   1.299   .     A
C963   O1003   1.284   .     A
C966   Cl981   1.774   .     S
C967   O1006   1.410   .     S
C967   H995    1.109   .     S
C967   H994    1.114   .     S
C968   H998    1.109   .     S
C968   O1007   1.411   .     S
C968   H996    1.112   .     S
C968   H997    1.113   .     S
C969   H986    1.111   .     S
C969   H999    1.114   .     S
C970   H988    1.108   .     S
C970   H989    1.107   .     S
C970   O1009   1.411   .     S
C970   H987    1.112   .     S
C971   H992    1.109   .     S
C971   H991    1.114   .     S
C971   O1010   1.411   .     S
C972   Cl982   1.768   .     S
C973   C974    1.409   .     A
C973   C315    1.411   1_556 S
C973   C318    1.417   1_556 S
C974   C978    1.416   .     A
C976   C977    1.417   .     A
C976   C307    1.415   1_556 S
C976   C318    1.423   1_556 S
C977   O1007   1.384   .     S
C977   C978    1.407   .     A
C978   Cl984   1.773   .     S
Cl979  C1029   1.775   .     S
Cl980  C1177   1.772   .     S
H990   C1044   1.110   .     S
H993   C1186   1.112   .     S
H1000  C239    1.109   1_556 S
O1001  Zn1021  1.932   .     S
O1001  Zn1019  1.961   .     S
O1001  Zn1022  1.940   .     S
O1001  Zn1020  1.937   .     S
O1002  Zn1020  1.918   .     S
O1003  Zn1022  1.926   .     S
O1004  Zn1021  1.920   .     S
O1005  Zn1019  1.915   .     S
O1008  C312    1.411   1_556 S
O1008  C307    1.384   1_556 S
O1011  Zn1019  1.935   .     S
O1012  Zn1022  1.938   .     S
O1013  Zn1020  1.936   .     S
O1014  Zn1021  1.943   .     S
O1015  Zn1022  1.934   .     S
O1016  Zn1019  1.929   .     S
O1017  Zn1020  1.947   .     S
O1018  Zn1021  1.942   .     S
C1023  O1088   1.278   .     A
C1023  C1029   1.435   .     S
C1023  O1086   1.257   .     A
C1024  C1038   1.413   .     A
C1024  C1048   1.420   .     A
C1024  O1082   1.396   .     S
C1025  C1037   1.395   .     A
C1025  H1058   1.084   .     S
C1025  C1038   1.395   .     A
C1026  O1089   1.277   .     A
C1026  O1087   1.285   .     A
C1026  C1028   1.474   .     S
C1027  C1036   1.488   .     S
C1027  C1047   1.426   .     A
C1027  C1039   1.427   .     A
C1028  C883    1.349   1_655 S
C1028  O937    1.396   1_655 S
C1030  C1033   1.462   .     S
C1030  C1250   1.351   .     S
C1030  O1298   1.389   .     S
C1031  C1032   1.431   .     S
C1032  O1090   1.268   .     A
C1032  O1084   1.276   .     A
C1033  O1091   1.277   .     A
C1033  O1085   1.265   .     A
C1034  C1039   1.402   .     A
C1034  C388    1.396   1_556 S
C1034  Cl399   1.768   1_556 S
C1035  O1075   1.280   .     A
C1035  C1038   1.460   .     S
C1035  O1077   1.272   .     A
C1036  O1078   1.299   .     A
C1036  O1076   1.284   .     A
C1039  Cl1054  1.774   .     S
C1040  O1079   1.410   .     S
C1040  H1068   1.109   .     S
C1040  H1067   1.114   .     S
C1041  H1071   1.109   .     S
C1041  O1080   1.411   .     S
C1041  H1069   1.112   .     S
C1041  H1070   1.113   .     S
C1042  H1059   1.111   .     S
C1042  H1072   1.114   .     S
C1042  H270    1.109   1_655 S
C1043  H1061   1.108   .     S
C1043  H1062   1.107   .     S
C1043  O1082   1.411   .     S
C1043  H1060   1.112   .     S
C1044  H1065   1.109   .     S
C1044  H1064   1.114   .     S
C1044  O1083   1.411   .     S
C1045  Cl1055  1.768   .     S
C1046  C1047   1.409   .     A
C1046  C388    1.411   1_556 S
C1046  C391    1.417   1_556 S
C1047  C1051   1.416   .     A
C1049  C1050   1.417   .     A
C1049  C380    1.415   1_556 S
C1049  C391    1.423   1_556 S
C1050  O1080   1.384   .     S
C1050  C1051   1.407   .     A
C1051  Cl1057  1.773   .     S
Cl1052 C883    1.775   1_655 S
Cl1053 C1250   1.772   .     S
H1063  C898    1.110   1_655 S
H1066  C1259   1.112   .     S
H1073  C312    1.109   1_556 S
O1074  Zn1094  1.932   .     S
O1074  Zn1092  1.961   .     S
O1074  Zn1095  1.940   .     S
O1074  Zn1093  1.937   .     S
O1075  Zn1093  1.918   .     S
O1076  Zn1095  1.926   .     S
O1077  Zn1094  1.920   .     S
O1078  Zn1092  1.915   .     S
O1081  C385    1.411   1_556 S
O1081  C380    1.384   1_556 S
O1084  Zn1092  1.935   .     S
O1085  Zn1095  1.938   .     S
O1086  Zn1093  1.936   .     S
O1087  Zn1094  1.943   .     S
O1088  Zn1095  1.934   .     S
O1089  Zn1092  1.929   .     S
O1090  Zn1093  1.947   .     S
O1091  Zn1094  1.942   .     S
C1096  O1161   1.278   .     A
C1096  C1102   1.435   .     S
C1096  O1159   1.257   .     A
C1097  C1111   1.413   .     A
C1097  C1121   1.420   .     A
C1097  O1155   1.396   .     S
C1098  C1110   1.395   .     A
C1098  H1131   1.084   .     S
C1098  C1111   1.395   .     A
C1099  O1162   1.277   .     A
C1099  O1160   1.285   .     A
C1099  C1101   1.474   .     S
C1100  C1109   1.488   .     S
C1100  C1120   1.426   .     A
C1100  C1112   1.427   .     A
C1101  C1175   1.349   .     S
C1101  O1229   1.396   .     S
C1102  C1247   1.349   1_455 S
C1102  Cl1271  1.775   1_455 S
C1103  C1106   1.462   .     S
C1103  C666    1.351   1_565 S
C1103  O714    1.389   1_565 S
C1104  C1105   1.431   .     S
C1105  O1163   1.268   .     A
C1105  O1157   1.276   .     A
C1106  O1164   1.277   .     A
C1106  O1158   1.265   .     A
C1107  C1112   1.402   .     A
C1107  C461    1.396   1_556 S
C1107  Cl472   1.768   1_556 S
C1108  O1148   1.280   .     A
C1108  C1111   1.460   .     S
C1108  O1150   1.272   .     A
C1109  O1151   1.299   .     A
C1109  O1149   1.284   .     A
C1112  Cl1127  1.774   .     S
C1113  O1152   1.410   .     S
C1113  H1141   1.109   .     S
C1113  H1140   1.114   .     S
C1114  H1144   1.109   .     S
C1114  O1153   1.411   .     S
C1114  H1142   1.112   .     S
C1114  H1143   1.113   .     S
C1115  H1132   1.111   .     S
C1115  H1145   1.114   .     S
C1116  H1134   1.108   .     S
C1116  H1135   1.107   .     S
C1116  O1155   1.411   .     S
C1116  H1133   1.112   .     S
C1117  H1138   1.109   .     S
C1117  H1137   1.114   .     S
C1117  O1156   1.411   .     S
C1117  H1282   1.110   1_455 S
C1118  Cl1128  1.768   .     S
C1119  C1120   1.409   .     A
C1119  C461    1.411   1_556 S
C1119  C464    1.417   1_556 S
C1120  C1124   1.416   .     A
C1122  C1123   1.417   .     A
C1122  C453    1.415   1_556 S
C1122  C464    1.423   1_556 S
C1123  O1153   1.384   .     S
C1123  C1124   1.407   .     A
C1124  Cl1130  1.773   .     S
Cl1125 C1175   1.775   .     S
Cl1126 C666    1.772   1_565 S
H1136  C1190   1.110   .     S
H1139  C675    1.112   1_565 S
H1146  C604    1.109   1_456 S
O1147  Zn1167  1.932   .     S
O1147  Zn1165  1.961   .     S
O1147  Zn1168  1.940   .     S
O1147  Zn1166  1.937   .     S
O1148  Zn1166  1.918   .     S
O1149  Zn1168  1.926   .     S
O1150  Zn1167  1.920   .     S
O1151  Zn1165  1.915   .     S
O1154  C458    1.411   1_556 S
O1154  C453    1.384   1_556 S
O1156  C1247   1.396   1_455 S
O1157  Zn1165  1.935   .     S
O1158  Zn1168  1.938   .     S
O1159  Zn1166  1.936   .     S
O1160  Zn1167  1.943   .     S
O1161  Zn1168  1.934   .     S
O1162  Zn1165  1.929   .     S
O1163  Zn1166  1.947   .     S
O1164  Zn1167  1.942   .     S
C1169  O1234   1.278   .     A
C1169  C1175   1.435   .     S
C1169  O1232   1.257   .     A
C1170  C1184   1.413   .     A
C1170  C1194   1.420   .     A
C1170  O1228   1.396   .     S
C1171  C1183   1.395   .     A
C1171  H1204   1.084   .     S
C1171  C1184   1.395   .     A
C1172  O1235   1.277   .     A
C1172  O1233   1.285   .     A
C1172  C1174   1.474   .     S
C1173  C1182   1.488   .     S
C1173  C1193   1.426   .     A
C1173  C1185   1.427   .     A
C1174  C1248   1.349   .     S
C1174  O1302   1.396   .     S
C1176  C1179   1.462   .     S
C1176  C739    1.351   1_565 S
C1176  O787    1.389   1_565 S
C1177  C1178   1.431   .     S
C1178  O1236   1.268   .     A
C1178  O1230   1.276   .     A
C1179  O1237   1.277   .     A
C1179  O1231   1.265   .     A
C1180  C1185   1.402   .     A
C1180  C534    1.396   1_556 S
C1180  Cl545   1.768   1_556 S
C1181  O1221   1.280   .     A
C1181  C1184   1.460   .     S
C1181  O1223   1.272   .     A
C1182  O1224   1.299   .     A
C1182  O1222   1.284   .     A
C1185  Cl1200  1.774   .     S
C1186  O1225   1.410   .     S
C1186  H1214   1.109   .     S
C1186  H1213   1.114   .     S
C1187  H1217   1.109   .     S
C1187  O1226   1.411   .     S
C1187  H1215   1.112   .     S
C1187  H1216   1.113   .     S
C1188  H1205   1.111   .     S
C1188  H1218   1.114   .     S
C1189  H1207   1.108   .     S
C1189  H1208   1.107   .     S
C1189  O1228   1.411   .     S
C1189  H1206   1.112   .     S
C1190  H1211   1.109   .     S
C1190  H1210   1.114   .     S
C1190  O1229   1.411   .     S
C1191  Cl1201  1.768   .     S
C1192  C1193   1.409   .     A
C1192  C534    1.411   1_556 S
C1192  C537    1.417   1_556 S
C1193  C1197   1.416   .     A
C1195  C1196   1.417   .     A
C1195  C526    1.415   1_556 S
C1195  C537    1.423   1_556 S
C1196  O1226   1.384   .     S
C1196  C1197   1.407   .     A
C1197  Cl1203  1.773   .     S
Cl1198 C1248   1.775   .     S
Cl1199 C739    1.772   1_565 S
H1209  C1263   1.110   .     S
H1212  C748    1.112   1_565 S
H1219  C458    1.109   1_556 S
O1220  Zn1240  1.932   .     S
O1220  Zn1238  1.961   .     S
O1220  Zn1241  1.940   .     S
O1220  Zn1239  1.937   .     S
O1221  Zn1239  1.918   .     S
O1222  Zn1241  1.926   .     S
O1223  Zn1240  1.920   .     S
O1224  Zn1238  1.915   .     S
O1227  C531    1.411   1_556 S
O1227  C526    1.384   1_556 S
O1230  Zn1238  1.935   .     S
O1231  Zn1241  1.938   .     S
O1232  Zn1239  1.936   .     S
O1233  Zn1240  1.943   .     S
O1234  Zn1241  1.934   .     S
O1235  Zn1238  1.929   .     S
O1236  Zn1239  1.947   .     S
O1237  Zn1240  1.942   .     S
C1242  O1307   1.278   .     A
C1242  C1248   1.435   .     S
C1242  O1305   1.257   .     A
C1243  C1257   1.413   .     A
C1243  C1267   1.420   .     A
C1243  O1301   1.396   .     S
C1244  C1256   1.395   .     A
C1244  H1277   1.084   .     S
C1244  C1257   1.395   .     A
C1245  O1308   1.277   .     A
C1245  O1306   1.285   .     A
C1245  C1247   1.474   .     S
C1246  C1255   1.488   .     S
C1246  C1266   1.426   .     A
C1246  C1258   1.427   .     A
C1247  C1102   1.349   1_655 S
C1247  O1156   1.396   1_655 S
C1249  C1252   1.462   .     S
C1249  C812    1.351   1_565 S
C1249  O860    1.389   1_565 S
C1250  C1251   1.431   .     S
C1251  O1309   1.268   .     A
C1251  O1303   1.276   .     A
C1252  O1310   1.277   .     A
C1252  O1304   1.265   .     A
C1253  C1258   1.402   .     A
C1253  C607    1.396   1_556 S
C1253  Cl618   1.768   1_556 S
C1254  O1294   1.280   .     A
C1254  C1257   1.460   .     S
C1254  O1296   1.272   .     A
C1255  O1297   1.299   .     A
C1255  O1295   1.284   .     A
C1258  Cl1273  1.774   .     S
C1259  O1298   1.410   .     S
C1259  H1287   1.109   .     S
C1259  H1286   1.114   .     S
C1260  H1290   1.109   .     S
C1260  O1299   1.411   .     S
C1260  H1288   1.112   .     S
C1260  H1289   1.113   .     S
C1261  H1278   1.111   .     S
C1261  H1291   1.114   .     S
C1261  H489    1.109   1_655 S
C1262  H1280   1.108   .     S
C1262  H1281   1.107   .     S
C1262  O1301   1.411   .     S
C1262  H1279   1.112   .     S
C1263  H1284   1.109   .     S
C1263  H1283   1.114   .     S
C1263  O1302   1.411   .     S
C1264  Cl1274  1.768   .     S
C1265  C1266   1.409   .     A
C1265  C607    1.411   1_556 S
C1265  C610    1.417   1_556 S
C1266  C1270   1.416   .     A
C1268  C1269   1.417   .     A
C1268  C599    1.415   1_556 S
C1268  C610    1.423   1_556 S
C1269  O1299   1.384   .     S
C1269  C1270   1.407   .     A
C1270  Cl1276  1.773   .     S
Cl1271 C1102   1.775   1_655 S
Cl1272 C812    1.772   1_565 S
H1282  C1117   1.110   1_655 S
H1285  C821    1.112   1_565 S
H1292  C531    1.109   1_556 S
O1293  Zn1313  1.932   .     S
O1293  Zn1311  1.961   .     S
O1293  Zn1314  1.940   .     S
O1293  Zn1312  1.937   .     S
O1294  Zn1312  1.918   .     S
O1295  Zn1314  1.926   .     S
O1296  Zn1313  1.920   .     S
O1297  Zn1311  1.915   .     S
O1300  C604    1.411   1_556 S
O1300  C599    1.384   1_556 S
O1303  Zn1311  1.935   .     S
O1304  Zn1314  1.938   .     S
O1305  Zn1312  1.936   .     S
O1306  Zn1313  1.943   .     S
O1307  Zn1314  1.934   .     S
O1308  Zn1311  1.929   .     S
O1309  Zn1312  1.947   .     S
O1310  Zn1313  1.942   .     S
