data_str_m3_o1_o10_pcu_sym.59
_audit_creation_date              2020-01-03
_audit_creation_method            'Materials Studio'
_symmetry_space_group_name_H-M    'P1'
_symmetry_Int_Tables_number       1
_symmetry_cell_setting            triclinic
loop_
_symmetry_equiv_pos_as_xyz
  x,y,z
_cell_length_a                    25.7710
_cell_length_b                    31.9228
_cell_length_c                    29.5795
_cell_angle_alpha                 89.8631
_cell_angle_beta                  98.6202
_cell_angle_gamma                 90.1276
loop_
_atom_site_label
_atom_site_type_symbol
_atom_site_fract_x
_atom_site_fract_y
_atom_site_fract_z
_atom_site_U_iso_or_equiv
_atom_site_adp_type
_atom_site_occupancy
C1     C     0.16516   0.08678   0.16651   0.00000  Uiso   1.00
C2     C     0.20361   0.02266   0.19640   0.00000  Uiso   1.00
C3     C     0.16909   0.29071   0.16675   0.00000  Uiso   1.00
C4     C     0.16425   0.04262   0.16658   0.00000  Uiso   1.00
C5     C     0.19955   0.19250   0.02817   0.00000  Uiso   1.00
C6     C     0.13378   0.14083   0.30516   0.00000  Uiso   1.00
C7     C     0.19953   0.19250   0.31358   0.00000  Uiso   1.00
C8     C     0.13380   0.14083   0.01975   0.00000  Uiso   1.00
C9     C     0.08242   0.04161   0.10682   0.00000  Uiso   1.00
C10    C     0.25092   0.29173   0.22651   0.00000  Uiso   1.00
C11    C     0.16817   0.24655   0.16683   0.00000  Uiso   1.00
C12    C     0.06705   0.16667   0.15470   0.00000  Uiso   1.00
C13    C     0.26628   0.16667   0.17863   0.00000  Uiso   1.00
C14    C     0.01201   0.16663   0.14827   0.00000  Uiso   1.00
C15    C     0.32133   0.16670   0.18506   0.00000  Uiso   1.00
C16    C     0.12639   0.02049   0.13665   0.00000  Uiso   1.00
C17    C     0.20695   0.31284   0.19668   0.00000  Uiso   1.00
C18    C     0.12973   0.31067   0.13693   0.00000  Uiso   1.00
H19    H     0.32472   0.16656   0.11336   0.00000  Uiso   1.00
H20    H     0.10751   0.12016   0.03450   0.00000  Uiso   1.00
H21    H     0.00861   0.16678   0.21997   0.00000  Uiso   1.00
H22    H     0.10083   0.29226   0.11492   0.00000  Uiso   1.00
H23    H     0.23250   0.04107   0.21841   0.00000  Uiso   1.00
H24    H     0.22588   0.21317   0.04966   0.00000  Uiso   1.00
H25    H     0.10746   0.12016   0.28367   0.00000  Uiso   1.00
H26    H     0.07520   0.07480   0.11032   0.00000  Uiso   1.00
H27    H     0.25813   0.25854   0.22302   0.00000  Uiso   1.00
H28    H     0.22583   0.21318   0.29883   0.00000  Uiso   1.00
N29    N     0.16665   0.16666   0.28573   0.00000  Uiso   1.00
N30    N     0.16668   0.16668   0.04760   0.00000  Uiso   1.00
O31    O     0.16666   0.10558   0.20487   0.00000  Uiso   1.00
O32    O     0.28013   0.31135   0.25528   0.00000  Uiso   1.00
O33    O     0.16667   0.22775   0.12846   0.00000  Uiso   1.00
O34    O     0.16666   0.10559   0.12843   0.00000  Uiso   1.00
O35    O     0.16667   0.22774   0.20490   0.00000  Uiso   1.00
O36    O     0.09058   0.16666   0.19595   0.00000  Uiso   1.00
O37    O     0.24275   0.16667   0.13739   0.00000  Uiso   1.00
O38    O     0.09058   0.16667   0.11950   0.00000  Uiso   1.00
O39    O     0.24275   0.16666   0.21383   0.00000  Uiso   1.00
O40    O     0.05320   0.02198   0.07805   0.00000  Uiso   1.00
Zn41   Zn    0.16667   0.16666   0.21771   0.00000  Uiso   1.00
Zn42   Zn    0.16667   0.16667   0.11563   0.00000  Uiso   1.00
C43    C     0.49850   0.08678   0.16651   0.00000  Uiso   1.00
C44    C     0.53694   0.02266   0.19640   0.00000  Uiso   1.00
C45    C     0.50242   0.29071   0.16675   0.00000  Uiso   1.00
C46    C     0.49758   0.04262   0.16658   0.00000  Uiso   1.00
C47    C     0.53289   0.19250   0.02817   0.00000  Uiso   1.00
C48    C     0.46711   0.14083   0.30516   0.00000  Uiso   1.00
C49    C     0.53287   0.19250   0.31358   0.00000  Uiso   1.00
C50    C     0.46713   0.14083   0.01975   0.00000  Uiso   1.00
C51    C     0.41575   0.04161   0.10682   0.00000  Uiso   1.00
C52    C     0.58425   0.29173   0.22651   0.00000  Uiso   1.00
C53    C     0.50150   0.24655   0.16683   0.00000  Uiso   1.00
C54    C     0.40038   0.16667   0.15470   0.00000  Uiso   1.00
C55    C     0.59962   0.16667   0.17863   0.00000  Uiso   1.00
C56    C     0.34534   0.16663   0.14827   0.00000  Uiso   1.00
C57    C     0.65466   0.16670   0.18506   0.00000  Uiso   1.00
C58    C     0.45972   0.02049   0.13665   0.00000  Uiso   1.00
C59    C     0.54028   0.31284   0.19668   0.00000  Uiso   1.00
C60    C     0.46306   0.31067   0.13693   0.00000  Uiso   1.00
H61    H     0.65806   0.16656   0.11336   0.00000  Uiso   1.00
H62    H     0.44084   0.12016   0.03450   0.00000  Uiso   1.00
H63    H     0.34194   0.16678   0.21997   0.00000  Uiso   1.00
H64    H     0.43417   0.29226   0.11492   0.00000  Uiso   1.00
H65    H     0.56583   0.04107   0.21841   0.00000  Uiso   1.00
H66    H     0.55921   0.21317   0.04966   0.00000  Uiso   1.00
H67    H     0.44079   0.12016   0.28367   0.00000  Uiso   1.00
H68    H     0.40854   0.07480   0.11032   0.00000  Uiso   1.00
H69    H     0.59146   0.25854   0.22302   0.00000  Uiso   1.00
H70    H     0.55916   0.21318   0.29883   0.00000  Uiso   1.00
N71    N     0.49999   0.16666   0.28573   0.00000  Uiso   1.00
N72    N     0.50001   0.16668   0.04760   0.00000  Uiso   1.00
O73    O     0.50000   0.10558   0.20487   0.00000  Uiso   1.00
O74    O     0.61347   0.31135   0.25528   0.00000  Uiso   1.00
O75    O     0.50000   0.22775   0.12846   0.00000  Uiso   1.00
O76    O     0.50000   0.10559   0.12843   0.00000  Uiso   1.00
O77    O     0.50000   0.22774   0.20490   0.00000  Uiso   1.00
O78    O     0.42392   0.16666   0.19595   0.00000  Uiso   1.00
O79    O     0.57608   0.16667   0.13739   0.00000  Uiso   1.00
O80    O     0.42392   0.16667   0.11950   0.00000  Uiso   1.00
O81    O     0.57608   0.16666   0.21383   0.00000  Uiso   1.00
O82    O     0.38654   0.02198   0.07805   0.00000  Uiso   1.00
Zn83   Zn    0.50000   0.16666   0.21771   0.00000  Uiso   1.00
Zn84   Zn    0.50000   0.16667   0.11563   0.00000  Uiso   1.00
C85    C     0.83183   0.08678   0.16651   0.00000  Uiso   1.00
C86    C     0.87027   0.02266   0.19640   0.00000  Uiso   1.00
C87    C     0.83575   0.29071   0.16675   0.00000  Uiso   1.00
C88    C     0.83091   0.04262   0.16658   0.00000  Uiso   1.00
C89    C     0.86622   0.19250   0.02817   0.00000  Uiso   1.00
C90    C     0.80045   0.14083   0.30516   0.00000  Uiso   1.00
C91    C     0.86620   0.19250   0.31358   0.00000  Uiso   1.00
C92    C     0.80047   0.14083   0.01975   0.00000  Uiso   1.00
C93    C     0.74908   0.04161   0.10682   0.00000  Uiso   1.00
C94    C     0.91758   0.29173   0.22651   0.00000  Uiso   1.00
C95    C     0.83484   0.24655   0.16683   0.00000  Uiso   1.00
C96    C     0.73371   0.16667   0.15470   0.00000  Uiso   1.00
C97    C     0.93295   0.16667   0.17863   0.00000  Uiso   1.00
C98    C     0.67867   0.16663   0.14827   0.00000  Uiso   1.00
C99    C     0.98799   0.16670   0.18506   0.00000  Uiso   1.00
C100   C     0.79305   0.02049   0.13665   0.00000  Uiso   1.00
C101   C     0.87361   0.31284   0.19668   0.00000  Uiso   1.00
C102   C     0.79639   0.31067   0.13693   0.00000  Uiso   1.00
H103   H     0.99139   0.16656   0.11336   0.00000  Uiso   1.00
H104   H     0.77417   0.12016   0.03450   0.00000  Uiso   1.00
H105   H     0.67527   0.16678   0.21997   0.00000  Uiso   1.00
H106   H     0.76750   0.29226   0.11492   0.00000  Uiso   1.00
H107   H     0.89917   0.04107   0.21841   0.00000  Uiso   1.00
H108   H     0.89254   0.21317   0.04966   0.00000  Uiso   1.00
H109   H     0.77412   0.12016   0.28367   0.00000  Uiso   1.00
H110   H     0.74187   0.07480   0.11032   0.00000  Uiso   1.00
H111   H     0.92480   0.25854   0.22302   0.00000  Uiso   1.00
H112   H     0.89249   0.21318   0.29883   0.00000  Uiso   1.00
N113   N     0.83332   0.16666   0.28573   0.00000  Uiso   1.00
N114   N     0.83335   0.16668   0.04760   0.00000  Uiso   1.00
O115   O     0.83333   0.10558   0.20487   0.00000  Uiso   1.00
O116   O     0.94680   0.31135   0.25528   0.00000  Uiso   1.00
O117   O     0.83334   0.22775   0.12846   0.00000  Uiso   1.00
O118   O     0.83333   0.10559   0.12843   0.00000  Uiso   1.00
O119   O     0.83334   0.22774   0.20490   0.00000  Uiso   1.00
O120   O     0.75725   0.16666   0.19595   0.00000  Uiso   1.00
O121   O     0.90942   0.16667   0.13739   0.00000  Uiso   1.00
O122   O     0.75725   0.16667   0.11950   0.00000  Uiso   1.00
O123   O     0.90942   0.16666   0.21383   0.00000  Uiso   1.00
O124   O     0.71987   0.02198   0.07805   0.00000  Uiso   1.00
Zn125  Zn    0.83333   0.16666   0.21771   0.00000  Uiso   1.00
Zn126  Zn    0.83333   0.16667   0.11563   0.00000  Uiso   1.00
C127   C     0.16516   0.42011   0.16651   0.00000  Uiso   1.00
C128   C     0.20361   0.35600   0.19640   0.00000  Uiso   1.00
C129   C     0.16909   0.62405   0.16675   0.00000  Uiso   1.00
C130   C     0.16425   0.37595   0.16658   0.00000  Uiso   1.00
C131   C     0.19955   0.52584   0.02817   0.00000  Uiso   1.00
C132   C     0.13378   0.47416   0.30516   0.00000  Uiso   1.00
C133   C     0.19953   0.52583   0.31358   0.00000  Uiso   1.00
C134   C     0.13380   0.47417   0.01975   0.00000  Uiso   1.00
C135   C     0.08242   0.37494   0.10682   0.00000  Uiso   1.00
C136   C     0.25092   0.62506   0.22651   0.00000  Uiso   1.00
C137   C     0.16817   0.57989   0.16683   0.00000  Uiso   1.00
C138   C     0.06705   0.50000   0.15470   0.00000  Uiso   1.00
C139   C     0.26628   0.50000   0.17863   0.00000  Uiso   1.00
C140   C     0.01201   0.49997   0.14827   0.00000  Uiso   1.00
C141   C     0.32133   0.50003   0.18506   0.00000  Uiso   1.00
C142   C     0.12639   0.35382   0.13665   0.00000  Uiso   1.00
C143   C     0.20695   0.64618   0.19668   0.00000  Uiso   1.00
C144   C     0.12973   0.64400   0.13693   0.00000  Uiso   1.00
H145   H     0.32472   0.49989   0.11336   0.00000  Uiso   1.00
H146   H     0.10751   0.45349   0.03450   0.00000  Uiso   1.00
H147   H     0.00861   0.50011   0.21997   0.00000  Uiso   1.00
H148   H     0.10083   0.62560   0.11492   0.00000  Uiso   1.00
H149   H     0.23250   0.37440   0.21841   0.00000  Uiso   1.00
H150   H     0.22588   0.54651   0.04966   0.00000  Uiso   1.00
H151   H     0.10746   0.45349   0.28367   0.00000  Uiso   1.00
H152   H     0.07520   0.40813   0.11032   0.00000  Uiso   1.00
H153   H     0.25813   0.59187   0.22302   0.00000  Uiso   1.00
H154   H     0.22583   0.54651   0.29883   0.00000  Uiso   1.00
N155   N     0.16665   0.49999   0.28573   0.00000  Uiso   1.00
N156   N     0.16668   0.50001   0.04760   0.00000  Uiso   1.00
O157   O     0.16666   0.43892   0.20487   0.00000  Uiso   1.00
O158   O     0.28013   0.64468   0.25528   0.00000  Uiso   1.00
O159   O     0.16667   0.56108   0.12846   0.00000  Uiso   1.00
O160   O     0.16666   0.43893   0.12843   0.00000  Uiso   1.00
O161   O     0.16667   0.56107   0.20490   0.00000  Uiso   1.00
O162   O     0.09058   0.50000   0.19595   0.00000  Uiso   1.00
O163   O     0.24275   0.50000   0.13739   0.00000  Uiso   1.00
O164   O     0.09058   0.50000   0.11950   0.00000  Uiso   1.00
O165   O     0.24275   0.50000   0.21383   0.00000  Uiso   1.00
O166   O     0.05320   0.35532   0.07805   0.00000  Uiso   1.00
Zn167  Zn    0.16667   0.49999   0.21771   0.00000  Uiso   1.00
Zn168  Zn    0.16667   0.50001   0.11563   0.00000  Uiso   1.00
C169   C     0.49850   0.42011   0.16651   0.00000  Uiso   1.00
C170   C     0.53694   0.35600   0.19640   0.00000  Uiso   1.00
C171   C     0.50242   0.62405   0.16675   0.00000  Uiso   1.00
C172   C     0.49758   0.37595   0.16658   0.00000  Uiso   1.00
C173   C     0.53289   0.52584   0.02817   0.00000  Uiso   1.00
C174   C     0.46711   0.47416   0.30516   0.00000  Uiso   1.00
C175   C     0.53287   0.52583   0.31358   0.00000  Uiso   1.00
C176   C     0.46713   0.47417   0.01975   0.00000  Uiso   1.00
C177   C     0.41575   0.37494   0.10682   0.00000  Uiso   1.00
C178   C     0.58425   0.62506   0.22651   0.00000  Uiso   1.00
C179   C     0.50150   0.57989   0.16683   0.00000  Uiso   1.00
C180   C     0.40038   0.50000   0.15470   0.00000  Uiso   1.00
C181   C     0.59962   0.50000   0.17863   0.00000  Uiso   1.00
C182   C     0.34534   0.49997   0.14827   0.00000  Uiso   1.00
C183   C     0.65466   0.50003   0.18506   0.00000  Uiso   1.00
C184   C     0.45972   0.35382   0.13665   0.00000  Uiso   1.00
C185   C     0.54028   0.64618   0.19668   0.00000  Uiso   1.00
C186   C     0.46306   0.64400   0.13693   0.00000  Uiso   1.00
H187   H     0.65806   0.49989   0.11336   0.00000  Uiso   1.00
H188   H     0.44084   0.45349   0.03450   0.00000  Uiso   1.00
H189   H     0.34194   0.50011   0.21997   0.00000  Uiso   1.00
H190   H     0.43417   0.62560   0.11492   0.00000  Uiso   1.00
H191   H     0.56583   0.37440   0.21841   0.00000  Uiso   1.00
H192   H     0.55921   0.54651   0.04966   0.00000  Uiso   1.00
H193   H     0.44079   0.45349   0.28367   0.00000  Uiso   1.00
H194   H     0.40854   0.40813   0.11032   0.00000  Uiso   1.00
H195   H     0.59146   0.59187   0.22302   0.00000  Uiso   1.00
H196   H     0.55916   0.54651   0.29883   0.00000  Uiso   1.00
N197   N     0.49999   0.49999   0.28573   0.00000  Uiso   1.00
N198   N     0.50001   0.50001   0.04760   0.00000  Uiso   1.00
O199   O     0.50000   0.43892   0.20487   0.00000  Uiso   1.00
O200   O     0.61347   0.64468   0.25528   0.00000  Uiso   1.00
O201   O     0.50000   0.56108   0.12846   0.00000  Uiso   1.00
O202   O     0.50000   0.43893   0.12843   0.00000  Uiso   1.00
O203   O     0.50000   0.56107   0.20490   0.00000  Uiso   1.00
O204   O     0.42392   0.50000   0.19595   0.00000  Uiso   1.00
O205   O     0.57608   0.50000   0.13739   0.00000  Uiso   1.00
O206   O     0.42392   0.50000   0.11950   0.00000  Uiso   1.00
O207   O     0.57608   0.50000   0.21383   0.00000  Uiso   1.00
O208   O     0.38654   0.35532   0.07805   0.00000  Uiso   1.00
Zn209  Zn    0.50000   0.49999   0.21771   0.00000  Uiso   1.00
Zn210  Zn    0.50000   0.50001   0.11563   0.00000  Uiso   1.00
C211   C     0.83183   0.42011   0.16651   0.00000  Uiso   1.00
C212   C     0.87027   0.35600   0.19640   0.00000  Uiso   1.00
C213   C     0.83575   0.62405   0.16675   0.00000  Uiso   1.00
C214   C     0.83091   0.37595   0.16658   0.00000  Uiso   1.00
C215   C     0.86622   0.52584   0.02817   0.00000  Uiso   1.00
C216   C     0.80045   0.47416   0.30516   0.00000  Uiso   1.00
C217   C     0.86620   0.52583   0.31358   0.00000  Uiso   1.00
C218   C     0.80047   0.47417   0.01975   0.00000  Uiso   1.00
C219   C     0.74908   0.37494   0.10682   0.00000  Uiso   1.00
C220   C     0.91758   0.62506   0.22651   0.00000  Uiso   1.00
C221   C     0.83484   0.57989   0.16683   0.00000  Uiso   1.00
C222   C     0.73371   0.50000   0.15470   0.00000  Uiso   1.00
C223   C     0.93295   0.50000   0.17863   0.00000  Uiso   1.00
C224   C     0.67867   0.49997   0.14827   0.00000  Uiso   1.00
C225   C     0.98799   0.50003   0.18506   0.00000  Uiso   1.00
C226   C     0.79305   0.35382   0.13665   0.00000  Uiso   1.00
C227   C     0.87361   0.64618   0.19668   0.00000  Uiso   1.00
C228   C     0.79639   0.64400   0.13693   0.00000  Uiso   1.00
H229   H     0.99139   0.49989   0.11336   0.00000  Uiso   1.00
H230   H     0.77417   0.45349   0.03450   0.00000  Uiso   1.00
H231   H     0.67527   0.50011   0.21997   0.00000  Uiso   1.00
H232   H     0.76750   0.62560   0.11492   0.00000  Uiso   1.00
H233   H     0.89917   0.37440   0.21841   0.00000  Uiso   1.00
H234   H     0.89254   0.54651   0.04966   0.00000  Uiso   1.00
H235   H     0.77412   0.45349   0.28367   0.00000  Uiso   1.00
H236   H     0.74187   0.40813   0.11032   0.00000  Uiso   1.00
H237   H     0.92480   0.59187   0.22302   0.00000  Uiso   1.00
H238   H     0.89249   0.54651   0.29883   0.00000  Uiso   1.00
N239   N     0.83332   0.49999   0.28573   0.00000  Uiso   1.00
N240   N     0.83335   0.50001   0.04760   0.00000  Uiso   1.00
O241   O     0.83333   0.43892   0.20487   0.00000  Uiso   1.00
O242   O     0.94680   0.64468   0.25528   0.00000  Uiso   1.00
O243   O     0.83334   0.56108   0.12846   0.00000  Uiso   1.00
O244   O     0.83333   0.43893   0.12843   0.00000  Uiso   1.00
O245   O     0.83334   0.56107   0.20490   0.00000  Uiso   1.00
O246   O     0.75725   0.50000   0.19595   0.00000  Uiso   1.00
O247   O     0.90942   0.50000   0.13739   0.00000  Uiso   1.00
O248   O     0.75725   0.50000   0.11950   0.00000  Uiso   1.00
O249   O     0.90942   0.50000   0.21383   0.00000  Uiso   1.00
O250   O     0.71987   0.35532   0.07805   0.00000  Uiso   1.00
Zn251  Zn    0.83333   0.49999   0.21771   0.00000  Uiso   1.00
Zn252  Zn    0.83333   0.50001   0.11563   0.00000  Uiso   1.00
C253   C     0.16516   0.75345   0.16651   0.00000  Uiso   1.00
C254   C     0.20361   0.68933   0.19640   0.00000  Uiso   1.00
C255   C     0.16909   0.95738   0.16675   0.00000  Uiso   1.00
C256   C     0.16425   0.70929   0.16658   0.00000  Uiso   1.00
C257   C     0.19955   0.85917   0.02817   0.00000  Uiso   1.00
C258   C     0.13378   0.80750   0.30516   0.00000  Uiso   1.00
C259   C     0.19953   0.85917   0.31358   0.00000  Uiso   1.00
C260   C     0.13380   0.80750   0.01975   0.00000  Uiso   1.00
C261   C     0.08242   0.70827   0.10682   0.00000  Uiso   1.00
C262   C     0.25092   0.95839   0.22651   0.00000  Uiso   1.00
C263   C     0.16817   0.91322   0.16683   0.00000  Uiso   1.00
C264   C     0.06705   0.83333   0.15470   0.00000  Uiso   1.00
C265   C     0.26628   0.83333   0.17863   0.00000  Uiso   1.00
C266   C     0.01201   0.83330   0.14827   0.00000  Uiso   1.00
C267   C     0.32133   0.83337   0.18506   0.00000  Uiso   1.00
C268   C     0.12639   0.68716   0.13665   0.00000  Uiso   1.00
C269   C     0.20695   0.97951   0.19668   0.00000  Uiso   1.00
C270   C     0.12973   0.97734   0.13693   0.00000  Uiso   1.00
H271   H     0.32472   0.83322   0.11336   0.00000  Uiso   1.00
H272   H     0.10751   0.78682   0.03450   0.00000  Uiso   1.00
H273   H     0.00861   0.83344   0.21997   0.00000  Uiso   1.00
H274   H     0.10083   0.95893   0.11492   0.00000  Uiso   1.00
H275   H     0.23250   0.70774   0.21841   0.00000  Uiso   1.00
H276   H     0.22588   0.87984   0.04966   0.00000  Uiso   1.00
H277   H     0.10746   0.78683   0.28367   0.00000  Uiso   1.00
H278   H     0.07520   0.74146   0.11032   0.00000  Uiso   1.00
H279   H     0.25813   0.92520   0.22302   0.00000  Uiso   1.00
H280   H     0.22583   0.87984   0.29883   0.00000  Uiso   1.00
N281   N     0.16665   0.83332   0.28573   0.00000  Uiso   1.00
N282   N     0.16668   0.83334   0.04760   0.00000  Uiso   1.00
O283   O     0.16666   0.77225   0.20487   0.00000  Uiso   1.00
O284   O     0.28013   0.97802   0.25528   0.00000  Uiso   1.00
O285   O     0.16667   0.89442   0.12846   0.00000  Uiso   1.00
O286   O     0.16666   0.77226   0.12843   0.00000  Uiso   1.00
O287   O     0.16667   0.89441   0.20490   0.00000  Uiso   1.00
O288   O     0.09058   0.83333   0.19595   0.00000  Uiso   1.00
O289   O     0.24275   0.83334   0.13739   0.00000  Uiso   1.00
O290   O     0.09058   0.83334   0.11950   0.00000  Uiso   1.00
O291   O     0.24275   0.83333   0.21383   0.00000  Uiso   1.00
O292   O     0.05320   0.68865   0.07805   0.00000  Uiso   1.00
Zn293  Zn    0.16667   0.83333   0.21771   0.00000  Uiso   1.00
Zn294  Zn    0.16667   0.83334   0.11563   0.00000  Uiso   1.00
C295   C     0.49850   0.75345   0.16651   0.00000  Uiso   1.00
C296   C     0.53694   0.68933   0.19640   0.00000  Uiso   1.00
C297   C     0.50242   0.95738   0.16675   0.00000  Uiso   1.00
C298   C     0.49758   0.70929   0.16658   0.00000  Uiso   1.00
C299   C     0.53289   0.85917   0.02817   0.00000  Uiso   1.00
C300   C     0.46711   0.80750   0.30516   0.00000  Uiso   1.00
C301   C     0.53287   0.85917   0.31358   0.00000  Uiso   1.00
C302   C     0.46713   0.80750   0.01975   0.00000  Uiso   1.00
C303   C     0.41575   0.70827   0.10682   0.00000  Uiso   1.00
C304   C     0.58425   0.95839   0.22651   0.00000  Uiso   1.00
C305   C     0.50150   0.91322   0.16683   0.00000  Uiso   1.00
C306   C     0.40038   0.83333   0.15470   0.00000  Uiso   1.00
C307   C     0.59962   0.83333   0.17863   0.00000  Uiso   1.00
C308   C     0.34534   0.83330   0.14827   0.00000  Uiso   1.00
C309   C     0.65466   0.83337   0.18506   0.00000  Uiso   1.00
C310   C     0.45972   0.68716   0.13665   0.00000  Uiso   1.00
C311   C     0.54028   0.97951   0.19668   0.00000  Uiso   1.00
C312   C     0.46306   0.97734   0.13693   0.00000  Uiso   1.00
H313   H     0.65806   0.83322   0.11336   0.00000  Uiso   1.00
H314   H     0.44084   0.78682   0.03450   0.00000  Uiso   1.00
H315   H     0.34194   0.83344   0.21997   0.00000  Uiso   1.00
H316   H     0.43417   0.95893   0.11492   0.00000  Uiso   1.00
H317   H     0.56583   0.70774   0.21841   0.00000  Uiso   1.00
H318   H     0.55921   0.87984   0.04966   0.00000  Uiso   1.00
H319   H     0.44079   0.78683   0.28367   0.00000  Uiso   1.00
H320   H     0.40854   0.74146   0.11032   0.00000  Uiso   1.00
H321   H     0.59146   0.92520   0.22302   0.00000  Uiso   1.00
H322   H     0.55916   0.87984   0.29883   0.00000  Uiso   1.00
N323   N     0.49999   0.83332   0.28573   0.00000  Uiso   1.00
N324   N     0.50001   0.83334   0.04760   0.00000  Uiso   1.00
O325   O     0.50000   0.77225   0.20487   0.00000  Uiso   1.00
O326   O     0.61347   0.97802   0.25528   0.00000  Uiso   1.00
O327   O     0.50000   0.89442   0.12846   0.00000  Uiso   1.00
O328   O     0.50000   0.77226   0.12843   0.00000  Uiso   1.00
O329   O     0.50000   0.89441   0.20490   0.00000  Uiso   1.00
O330   O     0.42392   0.83333   0.19595   0.00000  Uiso   1.00
O331   O     0.57608   0.83334   0.13739   0.00000  Uiso   1.00
O332   O     0.42392   0.83334   0.11950   0.00000  Uiso   1.00
O333   O     0.57608   0.83333   0.21383   0.00000  Uiso   1.00
O334   O     0.38654   0.68865   0.07805   0.00000  Uiso   1.00
Zn335  Zn    0.50000   0.83333   0.21771   0.00000  Uiso   1.00
Zn336  Zn    0.50000   0.83334   0.11563   0.00000  Uiso   1.00
C337   C     0.83183   0.75345   0.16651   0.00000  Uiso   1.00
C338   C     0.87027   0.68933   0.19640   0.00000  Uiso   1.00
C339   C     0.83575   0.95738   0.16675   0.00000  Uiso   1.00
C340   C     0.83091   0.70929   0.16658   0.00000  Uiso   1.00
C341   C     0.86622   0.85917   0.02817   0.00000  Uiso   1.00
C342   C     0.80045   0.80750   0.30516   0.00000  Uiso   1.00
C343   C     0.86620   0.85917   0.31358   0.00000  Uiso   1.00
C344   C     0.80047   0.80750   0.01975   0.00000  Uiso   1.00
C345   C     0.74908   0.70827   0.10682   0.00000  Uiso   1.00
C346   C     0.91758   0.95839   0.22651   0.00000  Uiso   1.00
C347   C     0.83484   0.91322   0.16683   0.00000  Uiso   1.00
C348   C     0.73371   0.83333   0.15470   0.00000  Uiso   1.00
C349   C     0.93295   0.83333   0.17863   0.00000  Uiso   1.00
C350   C     0.67867   0.83330   0.14827   0.00000  Uiso   1.00
C351   C     0.98799   0.83337   0.18506   0.00000  Uiso   1.00
C352   C     0.79305   0.68716   0.13665   0.00000  Uiso   1.00
C353   C     0.87361   0.97951   0.19668   0.00000  Uiso   1.00
C354   C     0.79639   0.97734   0.13693   0.00000  Uiso   1.00
H355   H     0.99139   0.83322   0.11336   0.00000  Uiso   1.00
H356   H     0.77417   0.78682   0.03450   0.00000  Uiso   1.00
H357   H     0.67527   0.83344   0.21997   0.00000  Uiso   1.00
H358   H     0.76750   0.95893   0.11492   0.00000  Uiso   1.00
H359   H     0.89917   0.70774   0.21841   0.00000  Uiso   1.00
H360   H     0.89254   0.87984   0.04966   0.00000  Uiso   1.00
H361   H     0.77412   0.78683   0.28367   0.00000  Uiso   1.00
H362   H     0.74187   0.74146   0.11032   0.00000  Uiso   1.00
H363   H     0.92480   0.92520   0.22302   0.00000  Uiso   1.00
H364   H     0.89249   0.87984   0.29883   0.00000  Uiso   1.00
N365   N     0.83332   0.83332   0.28573   0.00000  Uiso   1.00
N366   N     0.83335   0.83334   0.04760   0.00000  Uiso   1.00
O367   O     0.83333   0.77225   0.20487   0.00000  Uiso   1.00
O368   O     0.94680   0.97802   0.25528   0.00000  Uiso   1.00
O369   O     0.83334   0.89442   0.12846   0.00000  Uiso   1.00
O370   O     0.83333   0.77226   0.12843   0.00000  Uiso   1.00
O371   O     0.83334   0.89441   0.20490   0.00000  Uiso   1.00
O372   O     0.75725   0.83333   0.19595   0.00000  Uiso   1.00
O373   O     0.90942   0.83334   0.13739   0.00000  Uiso   1.00
O374   O     0.75725   0.83334   0.11950   0.00000  Uiso   1.00
O375   O     0.90942   0.83333   0.21383   0.00000  Uiso   1.00
O376   O     0.71987   0.68865   0.07805   0.00000  Uiso   1.00
Zn377  Zn    0.83333   0.83333   0.21771   0.00000  Uiso   1.00
Zn378  Zn    0.83333   0.83334   0.11563   0.00000  Uiso   1.00
C379   C     0.16516   0.08678   0.49984   0.00000  Uiso   1.00
C380   C     0.20361   0.02266   0.52973   0.00000  Uiso   1.00
C381   C     0.16909   0.29071   0.50009   0.00000  Uiso   1.00
C382   C     0.16425   0.04262   0.49991   0.00000  Uiso   1.00
C383   C     0.19955   0.19250   0.36151   0.00000  Uiso   1.00
C384   C     0.13378   0.14083   0.63849   0.00000  Uiso   1.00
C385   C     0.19953   0.19250   0.64691   0.00000  Uiso   1.00
C386   C     0.13380   0.14083   0.35309   0.00000  Uiso   1.00
C387   C     0.08242   0.04161   0.44015   0.00000  Uiso   1.00
C388   C     0.25092   0.29173   0.55985   0.00000  Uiso   1.00
C389   C     0.16817   0.24655   0.50016   0.00000  Uiso   1.00
C390   C     0.06705   0.16667   0.48804   0.00000  Uiso   1.00
C391   C     0.26628   0.16667   0.51196   0.00000  Uiso   1.00
C392   C     0.01201   0.16663   0.48160   0.00000  Uiso   1.00
C393   C     0.32133   0.16670   0.51840   0.00000  Uiso   1.00
C394   C     0.12639   0.02049   0.46999   0.00000  Uiso   1.00
C395   C     0.20695   0.31284   0.53001   0.00000  Uiso   1.00
C396   C     0.12973   0.31067   0.47027   0.00000  Uiso   1.00
H397   H     0.32472   0.16656   0.44670   0.00000  Uiso   1.00
H398   H     0.10751   0.12016   0.36784   0.00000  Uiso   1.00
H399   H     0.00861   0.16678   0.55330   0.00000  Uiso   1.00
H400   H     0.10083   0.29226   0.44826   0.00000  Uiso   1.00
H401   H     0.23250   0.04107   0.55174   0.00000  Uiso   1.00
H402   H     0.22588   0.21317   0.38299   0.00000  Uiso   1.00
H403   H     0.10746   0.12016   0.61701   0.00000  Uiso   1.00
H404   H     0.07520   0.07480   0.44365   0.00000  Uiso   1.00
H405   H     0.25813   0.25854   0.55635   0.00000  Uiso   1.00
H406   H     0.22583   0.21318   0.63216   0.00000  Uiso   1.00
N407   N     0.16665   0.16666   0.61907   0.00000  Uiso   1.00
N408   N     0.16668   0.16668   0.38093   0.00000  Uiso   1.00
O409   O     0.16666   0.10558   0.53821   0.00000  Uiso   1.00
O410   O     0.28013   0.31135   0.58862   0.00000  Uiso   1.00
O411   O     0.16667   0.22775   0.46179   0.00000  Uiso   1.00
O412   O     0.16666   0.10559   0.46176   0.00000  Uiso   1.00
O413   O     0.16667   0.22774   0.53824   0.00000  Uiso   1.00
O414   O     0.09058   0.16666   0.52928   0.00000  Uiso   1.00
O415   O     0.24275   0.16667   0.47072   0.00000  Uiso   1.00
O416   O     0.09058   0.16667   0.45284   0.00000  Uiso   1.00
O417   O     0.24275   0.16666   0.54716   0.00000  Uiso   1.00
O418   O     0.05320   0.02198   0.41138   0.00000  Uiso   1.00
Zn419  Zn    0.16667   0.16666   0.55104   0.00000  Uiso   1.00
Zn420  Zn    0.16667   0.16667   0.44896   0.00000  Uiso   1.00
C421   C     0.49850   0.08678   0.49984   0.00000  Uiso   1.00
C422   C     0.53694   0.02266   0.52973   0.00000  Uiso   1.00
C423   C     0.50242   0.29071   0.50009   0.00000  Uiso   1.00
C424   C     0.49758   0.04262   0.49991   0.00000  Uiso   1.00
C425   C     0.53289   0.19250   0.36151   0.00000  Uiso   1.00
C426   C     0.46711   0.14083   0.63849   0.00000  Uiso   1.00
C427   C     0.53287   0.19250   0.64691   0.00000  Uiso   1.00
C428   C     0.46713   0.14083   0.35309   0.00000  Uiso   1.00
C429   C     0.41575   0.04161   0.44015   0.00000  Uiso   1.00
C430   C     0.58425   0.29173   0.55985   0.00000  Uiso   1.00
C431   C     0.50150   0.24655   0.50016   0.00000  Uiso   1.00
C432   C     0.40038   0.16667   0.48804   0.00000  Uiso   1.00
C433   C     0.59962   0.16667   0.51196   0.00000  Uiso   1.00
C434   C     0.34534   0.16663   0.48160   0.00000  Uiso   1.00
C435   C     0.65466   0.16670   0.51840   0.00000  Uiso   1.00
C436   C     0.45972   0.02049   0.46999   0.00000  Uiso   1.00
C437   C     0.54028   0.31284   0.53001   0.00000  Uiso   1.00
C438   C     0.46306   0.31067   0.47027   0.00000  Uiso   1.00
H439   H     0.65806   0.16656   0.44670   0.00000  Uiso   1.00
H440   H     0.44084   0.12016   0.36784   0.00000  Uiso   1.00
H441   H     0.34194   0.16678   0.55330   0.00000  Uiso   1.00
H442   H     0.43417   0.29226   0.44826   0.00000  Uiso   1.00
H443   H     0.56583   0.04107   0.55174   0.00000  Uiso   1.00
H444   H     0.55921   0.21317   0.38299   0.00000  Uiso   1.00
H445   H     0.44079   0.12016   0.61701   0.00000  Uiso   1.00
H446   H     0.40854   0.07480   0.44365   0.00000  Uiso   1.00
H447   H     0.59146   0.25854   0.55635   0.00000  Uiso   1.00
H448   H     0.55916   0.21318   0.63216   0.00000  Uiso   1.00
N449   N     0.49999   0.16666   0.61907   0.00000  Uiso   1.00
N450   N     0.50001   0.16668   0.38093   0.00000  Uiso   1.00
O451   O     0.50000   0.10558   0.53821   0.00000  Uiso   1.00
O452   O     0.61347   0.31135   0.58862   0.00000  Uiso   1.00
O453   O     0.50000   0.22775   0.46179   0.00000  Uiso   1.00
O454   O     0.50000   0.10559   0.46176   0.00000  Uiso   1.00
O455   O     0.50000   0.22774   0.53824   0.00000  Uiso   1.00
O456   O     0.42392   0.16666   0.52928   0.00000  Uiso   1.00
O457   O     0.57608   0.16667   0.47072   0.00000  Uiso   1.00
O458   O     0.42392   0.16667   0.45284   0.00000  Uiso   1.00
O459   O     0.57608   0.16666   0.54716   0.00000  Uiso   1.00
O460   O     0.38654   0.02198   0.41138   0.00000  Uiso   1.00
Zn461  Zn    0.50000   0.16666   0.55104   0.00000  Uiso   1.00
Zn462  Zn    0.50000   0.16667   0.44896   0.00000  Uiso   1.00
C463   C     0.83183   0.08678   0.49984   0.00000  Uiso   1.00
C464   C     0.87027   0.02266   0.52973   0.00000  Uiso   1.00
C465   C     0.83575   0.29071   0.50009   0.00000  Uiso   1.00
C466   C     0.83091   0.04262   0.49991   0.00000  Uiso   1.00
C467   C     0.86622   0.19250   0.36151   0.00000  Uiso   1.00
C468   C     0.80045   0.14083   0.63849   0.00000  Uiso   1.00
C469   C     0.86620   0.19250   0.64691   0.00000  Uiso   1.00
C470   C     0.80047   0.14083   0.35309   0.00000  Uiso   1.00
C471   C     0.74908   0.04161   0.44015   0.00000  Uiso   1.00
C472   C     0.91758   0.29173   0.55985   0.00000  Uiso   1.00
C473   C     0.83484   0.24655   0.50016   0.00000  Uiso   1.00
C474   C     0.73371   0.16667   0.48804   0.00000  Uiso   1.00
C475   C     0.93295   0.16667   0.51196   0.00000  Uiso   1.00
C476   C     0.67867   0.16663   0.48160   0.00000  Uiso   1.00
C477   C     0.98799   0.16670   0.51840   0.00000  Uiso   1.00
C478   C     0.79305   0.02049   0.46999   0.00000  Uiso   1.00
C479   C     0.87361   0.31284   0.53001   0.00000  Uiso   1.00
C480   C     0.79639   0.31067   0.47027   0.00000  Uiso   1.00
H481   H     0.99139   0.16656   0.44670   0.00000  Uiso   1.00
H482   H     0.77417   0.12016   0.36784   0.00000  Uiso   1.00
H483   H     0.67527   0.16678   0.55330   0.00000  Uiso   1.00
H484   H     0.76750   0.29226   0.44826   0.00000  Uiso   1.00
H485   H     0.89917   0.04107   0.55174   0.00000  Uiso   1.00
H486   H     0.89254   0.21317   0.38299   0.00000  Uiso   1.00
H487   H     0.77412   0.12016   0.61701   0.00000  Uiso   1.00
H488   H     0.74187   0.07480   0.44365   0.00000  Uiso   1.00
H489   H     0.92480   0.25854   0.55635   0.00000  Uiso   1.00
H490   H     0.89249   0.21318   0.63216   0.00000  Uiso   1.00
N491   N     0.83332   0.16666   0.61907   0.00000  Uiso   1.00
N492   N     0.83335   0.16668   0.38093   0.00000  Uiso   1.00
O493   O     0.83333   0.10558   0.53821   0.00000  Uiso   1.00
O494   O     0.94680   0.31135   0.58862   0.00000  Uiso   1.00
O495   O     0.83334   0.22775   0.46179   0.00000  Uiso   1.00
O496   O     0.83333   0.10559   0.46176   0.00000  Uiso   1.00
O497   O     0.83334   0.22774   0.53824   0.00000  Uiso   1.00
O498   O     0.75725   0.16666   0.52928   0.00000  Uiso   1.00
O499   O     0.90942   0.16667   0.47072   0.00000  Uiso   1.00
O500   O     0.75725   0.16667   0.45284   0.00000  Uiso   1.00
O501   O     0.90942   0.16666   0.54716   0.00000  Uiso   1.00
O502   O     0.71987   0.02198   0.41138   0.00000  Uiso   1.00
Zn503  Zn    0.83333   0.16666   0.55104   0.00000  Uiso   1.00
Zn504  Zn    0.83333   0.16667   0.44896   0.00000  Uiso   1.00
C505   C     0.16516   0.42011   0.49984   0.00000  Uiso   1.00
C506   C     0.20361   0.35600   0.52973   0.00000  Uiso   1.00
C507   C     0.16909   0.62405   0.50009   0.00000  Uiso   1.00
C508   C     0.16425   0.37595   0.49991   0.00000  Uiso   1.00
C509   C     0.19955   0.52584   0.36151   0.00000  Uiso   1.00
C510   C     0.13378   0.47416   0.63849   0.00000  Uiso   1.00
C511   C     0.19953   0.52583   0.64691   0.00000  Uiso   1.00
C512   C     0.13380   0.47417   0.35309   0.00000  Uiso   1.00
C513   C     0.08242   0.37494   0.44015   0.00000  Uiso   1.00
C514   C     0.25092   0.62506   0.55985   0.00000  Uiso   1.00
C515   C     0.16817   0.57989   0.50016   0.00000  Uiso   1.00
C516   C     0.06705   0.50000   0.48804   0.00000  Uiso   1.00
C517   C     0.26628   0.50000   0.51196   0.00000  Uiso   1.00
C518   C     0.01201   0.49997   0.48160   0.00000  Uiso   1.00
C519   C     0.32133   0.50003   0.51840   0.00000  Uiso   1.00
C520   C     0.12639   0.35382   0.46999   0.00000  Uiso   1.00
C521   C     0.20695   0.64618   0.53001   0.00000  Uiso   1.00
C522   C     0.12973   0.64400   0.47027   0.00000  Uiso   1.00
H523   H     0.32472   0.49989   0.44670   0.00000  Uiso   1.00
H524   H     0.10751   0.45349   0.36784   0.00000  Uiso   1.00
H525   H     0.00861   0.50011   0.55330   0.00000  Uiso   1.00
H526   H     0.10083   0.62560   0.44826   0.00000  Uiso   1.00
H527   H     0.23250   0.37440   0.55174   0.00000  Uiso   1.00
H528   H     0.22588   0.54651   0.38299   0.00000  Uiso   1.00
H529   H     0.10746   0.45349   0.61701   0.00000  Uiso   1.00
H530   H     0.07520   0.40813   0.44365   0.00000  Uiso   1.00
H531   H     0.25813   0.59187   0.55635   0.00000  Uiso   1.00
H532   H     0.22583   0.54651   0.63216   0.00000  Uiso   1.00
N533   N     0.16665   0.49999   0.61907   0.00000  Uiso   1.00
N534   N     0.16668   0.50001   0.38093   0.00000  Uiso   1.00
O535   O     0.16666   0.43892   0.53821   0.00000  Uiso   1.00
O536   O     0.28013   0.64468   0.58862   0.00000  Uiso   1.00
O537   O     0.16667   0.56108   0.46179   0.00000  Uiso   1.00
O538   O     0.16666   0.43893   0.46176   0.00000  Uiso   1.00
O539   O     0.16667   0.56107   0.53824   0.00000  Uiso   1.00
O540   O     0.09058   0.50000   0.52928   0.00000  Uiso   1.00
O541   O     0.24275   0.50000   0.47072   0.00000  Uiso   1.00
O542   O     0.09058   0.50000   0.45284   0.00000  Uiso   1.00
O543   O     0.24275   0.50000   0.54716   0.00000  Uiso   1.00
O544   O     0.05320   0.35532   0.41138   0.00000  Uiso   1.00
Zn545  Zn    0.16667   0.49999   0.55104   0.00000  Uiso   1.00
Zn546  Zn    0.16667   0.50001   0.44896   0.00000  Uiso   1.00
C547   C     0.49850   0.42011   0.49984   0.00000  Uiso   1.00
C548   C     0.53694   0.35600   0.52973   0.00000  Uiso   1.00
C549   C     0.50242   0.62405   0.50009   0.00000  Uiso   1.00
C550   C     0.49758   0.37595   0.49991   0.00000  Uiso   1.00
C551   C     0.53289   0.52584   0.36151   0.00000  Uiso   1.00
C552   C     0.46711   0.47416   0.63849   0.00000  Uiso   1.00
C553   C     0.53287   0.52583   0.64691   0.00000  Uiso   1.00
C554   C     0.46713   0.47417   0.35309   0.00000  Uiso   1.00
C555   C     0.41575   0.37494   0.44015   0.00000  Uiso   1.00
C556   C     0.58425   0.62506   0.55985   0.00000  Uiso   1.00
C557   C     0.50150   0.57989   0.50016   0.00000  Uiso   1.00
C558   C     0.40038   0.50000   0.48804   0.00000  Uiso   1.00
C559   C     0.59962   0.50000   0.51196   0.00000  Uiso   1.00
C560   C     0.34534   0.49997   0.48160   0.00000  Uiso   1.00
C561   C     0.65466   0.50003   0.51840   0.00000  Uiso   1.00
C562   C     0.45972   0.35382   0.46999   0.00000  Uiso   1.00
C563   C     0.54028   0.64618   0.53001   0.00000  Uiso   1.00
C564   C     0.46306   0.64400   0.47027   0.00000  Uiso   1.00
H565   H     0.65806   0.49989   0.44670   0.00000  Uiso   1.00
H566   H     0.44084   0.45349   0.36784   0.00000  Uiso   1.00
H567   H     0.34194   0.50011   0.55330   0.00000  Uiso   1.00
H568   H     0.43417   0.62560   0.44826   0.00000  Uiso   1.00
H569   H     0.56583   0.37440   0.55174   0.00000  Uiso   1.00
H570   H     0.55921   0.54651   0.38299   0.00000  Uiso   1.00
H571   H     0.44079   0.45349   0.61701   0.00000  Uiso   1.00
H572   H     0.40854   0.40813   0.44365   0.00000  Uiso   1.00
H573   H     0.59146   0.59187   0.55635   0.00000  Uiso   1.00
H574   H     0.55916   0.54651   0.63216   0.00000  Uiso   1.00
N575   N     0.49999   0.49999   0.61907   0.00000  Uiso   1.00
N576   N     0.50001   0.50001   0.38093   0.00000  Uiso   1.00
O577   O     0.50000   0.43892   0.53821   0.00000  Uiso   1.00
O578   O     0.61347   0.64468   0.58862   0.00000  Uiso   1.00
O579   O     0.50000   0.56108   0.46179   0.00000  Uiso   1.00
O580   O     0.50000   0.43893   0.46176   0.00000  Uiso   1.00
O581   O     0.50000   0.56107   0.53824   0.00000  Uiso   1.00
O582   O     0.42392   0.50000   0.52928   0.00000  Uiso   1.00
O583   O     0.57608   0.50000   0.47072   0.00000  Uiso   1.00
O584   O     0.42392   0.50000   0.45284   0.00000  Uiso   1.00
O585   O     0.57608   0.50000   0.54716   0.00000  Uiso   1.00
O586   O     0.38654   0.35532   0.41138   0.00000  Uiso   1.00
Zn587  Zn    0.50000   0.49999   0.55104   0.00000  Uiso   1.00
Zn588  Zn    0.50000   0.50001   0.44896   0.00000  Uiso   1.00
C589   C     0.83183   0.42011   0.49984   0.00000  Uiso   1.00
C590   C     0.87027   0.35600   0.52973   0.00000  Uiso   1.00
C591   C     0.83575   0.62405   0.50009   0.00000  Uiso   1.00
C592   C     0.83091   0.37595   0.49991   0.00000  Uiso   1.00
C593   C     0.86622   0.52584   0.36151   0.00000  Uiso   1.00
C594   C     0.80045   0.47416   0.63849   0.00000  Uiso   1.00
C595   C     0.86620   0.52583   0.64691   0.00000  Uiso   1.00
C596   C     0.80047   0.47417   0.35309   0.00000  Uiso   1.00
C597   C     0.74908   0.37494   0.44015   0.00000  Uiso   1.00
C598   C     0.91758   0.62506   0.55985   0.00000  Uiso   1.00
C599   C     0.83484   0.57989   0.50016   0.00000  Uiso   1.00
C600   C     0.73371   0.50000   0.48804   0.00000  Uiso   1.00
C601   C     0.93295   0.50000   0.51196   0.00000  Uiso   1.00
C602   C     0.67867   0.49997   0.48160   0.00000  Uiso   1.00
C603   C     0.98799   0.50003   0.51840   0.00000  Uiso   1.00
C604   C     0.79305   0.35382   0.46999   0.00000  Uiso   1.00
C605   C     0.87361   0.64618   0.53001   0.00000  Uiso   1.00
C606   C     0.79639   0.64400   0.47027   0.00000  Uiso   1.00
H607   H     0.99139   0.49989   0.44670   0.00000  Uiso   1.00
H608   H     0.77417   0.45349   0.36784   0.00000  Uiso   1.00
H609   H     0.67527   0.50011   0.55330   0.00000  Uiso   1.00
H610   H     0.76750   0.62560   0.44826   0.00000  Uiso   1.00
H611   H     0.89917   0.37440   0.55174   0.00000  Uiso   1.00
H612   H     0.89254   0.54651   0.38299   0.00000  Uiso   1.00
H613   H     0.77412   0.45349   0.61701   0.00000  Uiso   1.00
H614   H     0.74187   0.40813   0.44365   0.00000  Uiso   1.00
H615   H     0.92480   0.59187   0.55635   0.00000  Uiso   1.00
H616   H     0.89249   0.54651   0.63216   0.00000  Uiso   1.00
N617   N     0.83332   0.49999   0.61907   0.00000  Uiso   1.00
N618   N     0.83335   0.50001   0.38093   0.00000  Uiso   1.00
O619   O     0.83333   0.43892   0.53821   0.00000  Uiso   1.00
O620   O     0.94680   0.64468   0.58862   0.00000  Uiso   1.00
O621   O     0.83334   0.56108   0.46179   0.00000  Uiso   1.00
O622   O     0.83333   0.43893   0.46176   0.00000  Uiso   1.00
O623   O     0.83334   0.56107   0.53824   0.00000  Uiso   1.00
O624   O     0.75725   0.50000   0.52928   0.00000  Uiso   1.00
O625   O     0.90942   0.50000   0.47072   0.00000  Uiso   1.00
O626   O     0.75725   0.50000   0.45284   0.00000  Uiso   1.00
O627   O     0.90942   0.50000   0.54716   0.00000  Uiso   1.00
O628   O     0.71987   0.35532   0.41138   0.00000  Uiso   1.00
Zn629  Zn    0.83333   0.49999   0.55104   0.00000  Uiso   1.00
Zn630  Zn    0.83333   0.50001   0.44896   0.00000  Uiso   1.00
C631   C     0.16516   0.75345   0.49984   0.00000  Uiso   1.00
C632   C     0.20361   0.68933   0.52973   0.00000  Uiso   1.00
C633   C     0.16909   0.95738   0.50009   0.00000  Uiso   1.00
C634   C     0.16425   0.70929   0.49991   0.00000  Uiso   1.00
C635   C     0.19955   0.85917   0.36151   0.00000  Uiso   1.00
C636   C     0.13378   0.80750   0.63849   0.00000  Uiso   1.00
C637   C     0.19953   0.85917   0.64691   0.00000  Uiso   1.00
C638   C     0.13380   0.80750   0.35309   0.00000  Uiso   1.00
C639   C     0.08242   0.70827   0.44015   0.00000  Uiso   1.00
C640   C     0.25092   0.95839   0.55985   0.00000  Uiso   1.00
C641   C     0.16817   0.91322   0.50016   0.00000  Uiso   1.00
C642   C     0.06705   0.83333   0.48804   0.00000  Uiso   1.00
C643   C     0.26628   0.83333   0.51196   0.00000  Uiso   1.00
C644   C     0.01201   0.83330   0.48160   0.00000  Uiso   1.00
C645   C     0.32133   0.83337   0.51840   0.00000  Uiso   1.00
C646   C     0.12639   0.68716   0.46999   0.00000  Uiso   1.00
C647   C     0.20695   0.97951   0.53001   0.00000  Uiso   1.00
C648   C     0.12973   0.97734   0.47027   0.00000  Uiso   1.00
H649   H     0.32472   0.83322   0.44670   0.00000  Uiso   1.00
H650   H     0.10751   0.78682   0.36784   0.00000  Uiso   1.00
H651   H     0.00861   0.83344   0.55330   0.00000  Uiso   1.00
H652   H     0.10083   0.95893   0.44826   0.00000  Uiso   1.00
H653   H     0.23250   0.70774   0.55174   0.00000  Uiso   1.00
H654   H     0.22588   0.87984   0.38299   0.00000  Uiso   1.00
H655   H     0.10746   0.78683   0.61701   0.00000  Uiso   1.00
H656   H     0.07520   0.74146   0.44365   0.00000  Uiso   1.00
H657   H     0.25813   0.92520   0.55635   0.00000  Uiso   1.00
H658   H     0.22583   0.87984   0.63216   0.00000  Uiso   1.00
N659   N     0.16665   0.83332   0.61907   0.00000  Uiso   1.00
N660   N     0.16668   0.83334   0.38093   0.00000  Uiso   1.00
O661   O     0.16666   0.77225   0.53821   0.00000  Uiso   1.00
O662   O     0.28013   0.97802   0.58862   0.00000  Uiso   1.00
O663   O     0.16667   0.89442   0.46179   0.00000  Uiso   1.00
O664   O     0.16666   0.77226   0.46176   0.00000  Uiso   1.00
O665   O     0.16667   0.89441   0.53824   0.00000  Uiso   1.00
O666   O     0.09058   0.83333   0.52928   0.00000  Uiso   1.00
O667   O     0.24275   0.83334   0.47072   0.00000  Uiso   1.00
O668   O     0.09058   0.83334   0.45284   0.00000  Uiso   1.00
O669   O     0.24275   0.83333   0.54716   0.00000  Uiso   1.00
O670   O     0.05320   0.68865   0.41138   0.00000  Uiso   1.00
Zn671  Zn    0.16667   0.83333   0.55104   0.00000  Uiso   1.00
Zn672  Zn    0.16667   0.83334   0.44896   0.00000  Uiso   1.00
C673   C     0.49850   0.75345   0.49984   0.00000  Uiso   1.00
C674   C     0.53694   0.68933   0.52973   0.00000  Uiso   1.00
C675   C     0.50242   0.95738   0.50009   0.00000  Uiso   1.00
C676   C     0.49758   0.70929   0.49991   0.00000  Uiso   1.00
C677   C     0.53289   0.85917   0.36151   0.00000  Uiso   1.00
C678   C     0.46711   0.80750   0.63849   0.00000  Uiso   1.00
C679   C     0.53287   0.85917   0.64691   0.00000  Uiso   1.00
C680   C     0.46713   0.80750   0.35309   0.00000  Uiso   1.00
C681   C     0.41575   0.70827   0.44015   0.00000  Uiso   1.00
C682   C     0.58425   0.95839   0.55985   0.00000  Uiso   1.00
C683   C     0.50150   0.91322   0.50016   0.00000  Uiso   1.00
C684   C     0.40038   0.83333   0.48804   0.00000  Uiso   1.00
C685   C     0.59962   0.83333   0.51196   0.00000  Uiso   1.00
C686   C     0.34534   0.83330   0.48160   0.00000  Uiso   1.00
C687   C     0.65466   0.83337   0.51840   0.00000  Uiso   1.00
C688   C     0.45972   0.68716   0.46999   0.00000  Uiso   1.00
C689   C     0.54028   0.97951   0.53001   0.00000  Uiso   1.00
C690   C     0.46306   0.97734   0.47027   0.00000  Uiso   1.00
H691   H     0.65806   0.83322   0.44670   0.00000  Uiso   1.00
H692   H     0.44084   0.78682   0.36784   0.00000  Uiso   1.00
H693   H     0.34194   0.83344   0.55330   0.00000  Uiso   1.00
H694   H     0.43417   0.95893   0.44826   0.00000  Uiso   1.00
H695   H     0.56583   0.70774   0.55174   0.00000  Uiso   1.00
H696   H     0.55921   0.87984   0.38299   0.00000  Uiso   1.00
H697   H     0.44079   0.78683   0.61701   0.00000  Uiso   1.00
H698   H     0.40854   0.74146   0.44365   0.00000  Uiso   1.00
H699   H     0.59146   0.92520   0.55635   0.00000  Uiso   1.00
H700   H     0.55916   0.87984   0.63216   0.00000  Uiso   1.00
N701   N     0.49999   0.83332   0.61907   0.00000  Uiso   1.00
N702   N     0.50001   0.83334   0.38093   0.00000  Uiso   1.00
O703   O     0.50000   0.77225   0.53821   0.00000  Uiso   1.00
O704   O     0.61347   0.97802   0.58862   0.00000  Uiso   1.00
O705   O     0.50000   0.89442   0.46179   0.00000  Uiso   1.00
O706   O     0.50000   0.77226   0.46176   0.00000  Uiso   1.00
O707   O     0.50000   0.89441   0.53824   0.00000  Uiso   1.00
O708   O     0.42392   0.83333   0.52928   0.00000  Uiso   1.00
O709   O     0.57608   0.83334   0.47072   0.00000  Uiso   1.00
O710   O     0.42392   0.83334   0.45284   0.00000  Uiso   1.00
O711   O     0.57608   0.83333   0.54716   0.00000  Uiso   1.00
O712   O     0.38654   0.68865   0.41138   0.00000  Uiso   1.00
Zn713  Zn    0.50000   0.83333   0.55104   0.00000  Uiso   1.00
Zn714  Zn    0.50000   0.83334   0.44896   0.00000  Uiso   1.00
C715   C     0.83183   0.75345   0.49984   0.00000  Uiso   1.00
C716   C     0.87027   0.68933   0.52973   0.00000  Uiso   1.00
C717   C     0.83575   0.95738   0.50009   0.00000  Uiso   1.00
C718   C     0.83091   0.70929   0.49991   0.00000  Uiso   1.00
C719   C     0.86622   0.85917   0.36151   0.00000  Uiso   1.00
C720   C     0.80045   0.80750   0.63849   0.00000  Uiso   1.00
C721   C     0.86620   0.85917   0.64691   0.00000  Uiso   1.00
C722   C     0.80047   0.80750   0.35309   0.00000  Uiso   1.00
C723   C     0.74908   0.70827   0.44015   0.00000  Uiso   1.00
C724   C     0.91758   0.95839   0.55985   0.00000  Uiso   1.00
C725   C     0.83484   0.91322   0.50016   0.00000  Uiso   1.00
C726   C     0.73371   0.83333   0.48804   0.00000  Uiso   1.00
C727   C     0.93295   0.83333   0.51196   0.00000  Uiso   1.00
C728   C     0.67867   0.83330   0.48160   0.00000  Uiso   1.00
C729   C     0.98799   0.83337   0.51840   0.00000  Uiso   1.00
C730   C     0.79305   0.68716   0.46999   0.00000  Uiso   1.00
C731   C     0.87361   0.97951   0.53001   0.00000  Uiso   1.00
C732   C     0.79639   0.97734   0.47027   0.00000  Uiso   1.00
H733   H     0.99139   0.83322   0.44670   0.00000  Uiso   1.00
H734   H     0.77417   0.78682   0.36784   0.00000  Uiso   1.00
H735   H     0.67527   0.83344   0.55330   0.00000  Uiso   1.00
H736   H     0.76750   0.95893   0.44826   0.00000  Uiso   1.00
H737   H     0.89917   0.70774   0.55174   0.00000  Uiso   1.00
H738   H     0.89254   0.87984   0.38299   0.00000  Uiso   1.00
H739   H     0.77412   0.78683   0.61701   0.00000  Uiso   1.00
H740   H     0.74187   0.74146   0.44365   0.00000  Uiso   1.00
H741   H     0.92480   0.92520   0.55635   0.00000  Uiso   1.00
H742   H     0.89249   0.87984   0.63216   0.00000  Uiso   1.00
N743   N     0.83332   0.83332   0.61907   0.00000  Uiso   1.00
N744   N     0.83335   0.83334   0.38093   0.00000  Uiso   1.00
O745   O     0.83333   0.77225   0.53821   0.00000  Uiso   1.00
O746   O     0.94680   0.97802   0.58862   0.00000  Uiso   1.00
O747   O     0.83334   0.89442   0.46179   0.00000  Uiso   1.00
O748   O     0.83333   0.77226   0.46176   0.00000  Uiso   1.00
O749   O     0.83334   0.89441   0.53824   0.00000  Uiso   1.00
O750   O     0.75725   0.83333   0.52928   0.00000  Uiso   1.00
O751   O     0.90942   0.83334   0.47072   0.00000  Uiso   1.00
O752   O     0.75725   0.83334   0.45284   0.00000  Uiso   1.00
O753   O     0.90942   0.83333   0.54716   0.00000  Uiso   1.00
O754   O     0.71987   0.68865   0.41138   0.00000  Uiso   1.00
Zn755  Zn    0.83333   0.83333   0.55104   0.00000  Uiso   1.00
Zn756  Zn    0.83333   0.83334   0.44896   0.00000  Uiso   1.00
C757   C     0.16516   0.08678   0.83317   0.00000  Uiso   1.00
C758   C     0.20361   0.02266   0.86307   0.00000  Uiso   1.00
C759   C     0.16909   0.29071   0.83342   0.00000  Uiso   1.00
C760   C     0.16425   0.04262   0.83325   0.00000  Uiso   1.00
C761   C     0.19955   0.19250   0.69484   0.00000  Uiso   1.00
C762   C     0.13378   0.14083   0.97183   0.00000  Uiso   1.00
C763   C     0.19953   0.19250   0.98025   0.00000  Uiso   1.00
C764   C     0.13380   0.14083   0.68642   0.00000  Uiso   1.00
C765   C     0.08242   0.04161   0.77349   0.00000  Uiso   1.00
C766   C     0.25092   0.29173   0.89318   0.00000  Uiso   1.00
C767   C     0.16817   0.24655   0.83349   0.00000  Uiso   1.00
C768   C     0.06705   0.16667   0.82137   0.00000  Uiso   1.00
C769   C     0.26628   0.16667   0.84530   0.00000  Uiso   1.00
C770   C     0.01201   0.16663   0.81494   0.00000  Uiso   1.00
C771   C     0.32133   0.16670   0.85173   0.00000  Uiso   1.00
C772   C     0.12639   0.02049   0.80332   0.00000  Uiso   1.00
C773   C     0.20695   0.31284   0.86335   0.00000  Uiso   1.00
C774   C     0.12973   0.31067   0.80360   0.00000  Uiso   1.00
H775   H     0.32472   0.16656   0.78003   0.00000  Uiso   1.00
H776   H     0.10751   0.12016   0.70117   0.00000  Uiso   1.00
H777   H     0.00861   0.16678   0.88664   0.00000  Uiso   1.00
H778   H     0.10083   0.29226   0.78159   0.00000  Uiso   1.00
H779   H     0.23250   0.04107   0.88508   0.00000  Uiso   1.00
H780   H     0.22588   0.21317   0.71633   0.00000  Uiso   1.00
H781   H     0.10746   0.12016   0.95034   0.00000  Uiso   1.00
H782   H     0.07520   0.07480   0.77698   0.00000  Uiso   1.00
H783   H     0.25813   0.25854   0.88968   0.00000  Uiso   1.00
H784   H     0.22583   0.21318   0.96550   0.00000  Uiso   1.00
N785   N     0.16665   0.16666   0.95240   0.00000  Uiso   1.00
N786   N     0.16668   0.16668   0.71427   0.00000  Uiso   1.00
O787   O     0.16666   0.10558   0.87154   0.00000  Uiso   1.00
O788   O     0.28013   0.31135   0.92195   0.00000  Uiso   1.00
O789   O     0.16667   0.22775   0.79513   0.00000  Uiso   1.00
O790   O     0.16666   0.10559   0.79510   0.00000  Uiso   1.00
O791   O     0.16667   0.22774   0.87157   0.00000  Uiso   1.00
O792   O     0.09058   0.16666   0.86261   0.00000  Uiso   1.00
O793   O     0.24275   0.16667   0.80405   0.00000  Uiso   1.00
O794   O     0.09058   0.16667   0.78617   0.00000  Uiso   1.00
O795   O     0.24275   0.16666   0.88050   0.00000  Uiso   1.00
O796   O     0.05320   0.02198   0.74472   0.00000  Uiso   1.00
Zn797  Zn    0.16667   0.16666   0.88437   0.00000  Uiso   1.00
Zn798  Zn    0.16667   0.16667   0.78229   0.00000  Uiso   1.00
C799   C     0.49850   0.08678   0.83317   0.00000  Uiso   1.00
C800   C     0.53694   0.02266   0.86307   0.00000  Uiso   1.00
C801   C     0.50242   0.29071   0.83342   0.00000  Uiso   1.00
C802   C     0.49758   0.04262   0.83325   0.00000  Uiso   1.00
C803   C     0.53289   0.19250   0.69484   0.00000  Uiso   1.00
C804   C     0.46711   0.14083   0.97183   0.00000  Uiso   1.00
C805   C     0.53287   0.19250   0.98025   0.00000  Uiso   1.00
C806   C     0.46713   0.14083   0.68642   0.00000  Uiso   1.00
C807   C     0.41575   0.04161   0.77349   0.00000  Uiso   1.00
C808   C     0.58425   0.29173   0.89318   0.00000  Uiso   1.00
C809   C     0.50150   0.24655   0.83349   0.00000  Uiso   1.00
C810   C     0.40038   0.16667   0.82137   0.00000  Uiso   1.00
C811   C     0.59962   0.16667   0.84530   0.00000  Uiso   1.00
C812   C     0.34534   0.16663   0.81494   0.00000  Uiso   1.00
C813   C     0.65466   0.16670   0.85173   0.00000  Uiso   1.00
C814   C     0.45972   0.02049   0.80332   0.00000  Uiso   1.00
C815   C     0.54028   0.31284   0.86335   0.00000  Uiso   1.00
C816   C     0.46306   0.31067   0.80360   0.00000  Uiso   1.00
H817   H     0.65806   0.16656   0.78003   0.00000  Uiso   1.00
H818   H     0.44084   0.12016   0.70117   0.00000  Uiso   1.00
H819   H     0.34194   0.16678   0.88664   0.00000  Uiso   1.00
H820   H     0.43417   0.29226   0.78159   0.00000  Uiso   1.00
H821   H     0.56583   0.04107   0.88508   0.00000  Uiso   1.00
H822   H     0.55921   0.21317   0.71633   0.00000  Uiso   1.00
H823   H     0.44079   0.12016   0.95034   0.00000  Uiso   1.00
H824   H     0.40854   0.07480   0.77698   0.00000  Uiso   1.00
H825   H     0.59146   0.25854   0.88968   0.00000  Uiso   1.00
H826   H     0.55916   0.21318   0.96550   0.00000  Uiso   1.00
N827   N     0.49999   0.16666   0.95240   0.00000  Uiso   1.00
N828   N     0.50001   0.16668   0.71427   0.00000  Uiso   1.00
O829   O     0.50000   0.10558   0.87154   0.00000  Uiso   1.00
O830   O     0.61347   0.31135   0.92195   0.00000  Uiso   1.00
O831   O     0.50000   0.22775   0.79513   0.00000  Uiso   1.00
O832   O     0.50000   0.10559   0.79510   0.00000  Uiso   1.00
O833   O     0.50000   0.22774   0.87157   0.00000  Uiso   1.00
O834   O     0.42392   0.16666   0.86261   0.00000  Uiso   1.00
O835   O     0.57608   0.16667   0.80405   0.00000  Uiso   1.00
O836   O     0.42392   0.16667   0.78617   0.00000  Uiso   1.00
O837   O     0.57608   0.16666   0.88050   0.00000  Uiso   1.00
O838   O     0.38654   0.02198   0.74472   0.00000  Uiso   1.00
Zn839  Zn    0.50000   0.16666   0.88437   0.00000  Uiso   1.00
Zn840  Zn    0.50000   0.16667   0.78229   0.00000  Uiso   1.00
C841   C     0.83183   0.08678   0.83317   0.00000  Uiso   1.00
C842   C     0.87027   0.02266   0.86307   0.00000  Uiso   1.00
C843   C     0.83575   0.29071   0.83342   0.00000  Uiso   1.00
C844   C     0.83091   0.04262   0.83325   0.00000  Uiso   1.00
C845   C     0.86622   0.19250   0.69484   0.00000  Uiso   1.00
C846   C     0.80045   0.14083   0.97183   0.00000  Uiso   1.00
C847   C     0.86620   0.19250   0.98025   0.00000  Uiso   1.00
C848   C     0.80047   0.14083   0.68642   0.00000  Uiso   1.00
C849   C     0.74908   0.04161   0.77349   0.00000  Uiso   1.00
C850   C     0.91758   0.29173   0.89318   0.00000  Uiso   1.00
C851   C     0.83484   0.24655   0.83349   0.00000  Uiso   1.00
C852   C     0.73371   0.16667   0.82137   0.00000  Uiso   1.00
C853   C     0.93295   0.16667   0.84530   0.00000  Uiso   1.00
C854   C     0.67867   0.16663   0.81494   0.00000  Uiso   1.00
C855   C     0.98799   0.16670   0.85173   0.00000  Uiso   1.00
C856   C     0.79305   0.02049   0.80332   0.00000  Uiso   1.00
C857   C     0.87361   0.31284   0.86335   0.00000  Uiso   1.00
C858   C     0.79639   0.31067   0.80360   0.00000  Uiso   1.00
H859   H     0.99139   0.16656   0.78003   0.00000  Uiso   1.00
H860   H     0.77417   0.12016   0.70117   0.00000  Uiso   1.00
H861   H     0.67527   0.16678   0.88664   0.00000  Uiso   1.00
H862   H     0.76750   0.29226   0.78159   0.00000  Uiso   1.00
H863   H     0.89917   0.04107   0.88508   0.00000  Uiso   1.00
H864   H     0.89254   0.21317   0.71633   0.00000  Uiso   1.00
H865   H     0.77412   0.12016   0.95034   0.00000  Uiso   1.00
H866   H     0.74187   0.07480   0.77698   0.00000  Uiso   1.00
H867   H     0.92480   0.25854   0.88968   0.00000  Uiso   1.00
H868   H     0.89249   0.21318   0.96550   0.00000  Uiso   1.00
N869   N     0.83332   0.16666   0.95240   0.00000  Uiso   1.00
N870   N     0.83335   0.16668   0.71427   0.00000  Uiso   1.00
O871   O     0.83333   0.10558   0.87154   0.00000  Uiso   1.00
O872   O     0.94680   0.31135   0.92195   0.00000  Uiso   1.00
O873   O     0.83334   0.22775   0.79513   0.00000  Uiso   1.00
O874   O     0.83333   0.10559   0.79510   0.00000  Uiso   1.00
O875   O     0.83334   0.22774   0.87157   0.00000  Uiso   1.00
O876   O     0.75725   0.16666   0.86261   0.00000  Uiso   1.00
O877   O     0.90942   0.16667   0.80405   0.00000  Uiso   1.00
O878   O     0.75725   0.16667   0.78617   0.00000  Uiso   1.00
O879   O     0.90942   0.16666   0.88050   0.00000  Uiso   1.00
O880   O     0.71987   0.02198   0.74472   0.00000  Uiso   1.00
Zn881  Zn    0.83333   0.16666   0.88437   0.00000  Uiso   1.00
Zn882  Zn    0.83333   0.16667   0.78229   0.00000  Uiso   1.00
C883   C     0.16516   0.42011   0.83317   0.00000  Uiso   1.00
C884   C     0.20361   0.35600   0.86307   0.00000  Uiso   1.00
C885   C     0.16909   0.62405   0.83342   0.00000  Uiso   1.00
C886   C     0.16425   0.37595   0.83325   0.00000  Uiso   1.00
C887   C     0.19955   0.52584   0.69484   0.00000  Uiso   1.00
C888   C     0.13378   0.47416   0.97183   0.00000  Uiso   1.00
C889   C     0.19953   0.52583   0.98025   0.00000  Uiso   1.00
C890   C     0.13380   0.47417   0.68642   0.00000  Uiso   1.00
C891   C     0.08242   0.37494   0.77349   0.00000  Uiso   1.00
C892   C     0.25092   0.62506   0.89318   0.00000  Uiso   1.00
C893   C     0.16817   0.57989   0.83349   0.00000  Uiso   1.00
C894   C     0.06705   0.50000   0.82137   0.00000  Uiso   1.00
C895   C     0.26628   0.50000   0.84530   0.00000  Uiso   1.00
C896   C     0.01201   0.49997   0.81494   0.00000  Uiso   1.00
C897   C     0.32133   0.50003   0.85173   0.00000  Uiso   1.00
C898   C     0.12639   0.35382   0.80332   0.00000  Uiso   1.00
C899   C     0.20695   0.64618   0.86335   0.00000  Uiso   1.00
C900   C     0.12973   0.64400   0.80360   0.00000  Uiso   1.00
H901   H     0.32472   0.49989   0.78003   0.00000  Uiso   1.00
H902   H     0.10751   0.45349   0.70117   0.00000  Uiso   1.00
H903   H     0.00861   0.50011   0.88664   0.00000  Uiso   1.00
H904   H     0.10083   0.62560   0.78159   0.00000  Uiso   1.00
H905   H     0.23250   0.37440   0.88508   0.00000  Uiso   1.00
H906   H     0.22588   0.54651   0.71633   0.00000  Uiso   1.00
H907   H     0.10746   0.45349   0.95034   0.00000  Uiso   1.00
H908   H     0.07520   0.40813   0.77698   0.00000  Uiso   1.00
H909   H     0.25813   0.59187   0.88968   0.00000  Uiso   1.00
H910   H     0.22583   0.54651   0.96550   0.00000  Uiso   1.00
N911   N     0.16665   0.49999   0.95240   0.00000  Uiso   1.00
N912   N     0.16668   0.50001   0.71427   0.00000  Uiso   1.00
O913   O     0.16666   0.43892   0.87154   0.00000  Uiso   1.00
O914   O     0.28013   0.64468   0.92195   0.00000  Uiso   1.00
O915   O     0.16667   0.56108   0.79513   0.00000  Uiso   1.00
O916   O     0.16666   0.43893   0.79510   0.00000  Uiso   1.00
O917   O     0.16667   0.56107   0.87157   0.00000  Uiso   1.00
O918   O     0.09058   0.50000   0.86261   0.00000  Uiso   1.00
O919   O     0.24275   0.50000   0.80405   0.00000  Uiso   1.00
O920   O     0.09058   0.50000   0.78617   0.00000  Uiso   1.00
O921   O     0.24275   0.50000   0.88050   0.00000  Uiso   1.00
O922   O     0.05320   0.35532   0.74472   0.00000  Uiso   1.00
Zn923  Zn    0.16667   0.49999   0.88437   0.00000  Uiso   1.00
Zn924  Zn    0.16667   0.50001   0.78229   0.00000  Uiso   1.00
C925   C     0.49850   0.42011   0.83317   0.00000  Uiso   1.00
C926   C     0.53694   0.35600   0.86307   0.00000  Uiso   1.00
C927   C     0.50242   0.62405   0.83342   0.00000  Uiso   1.00
C928   C     0.49758   0.37595   0.83325   0.00000  Uiso   1.00
C929   C     0.53289   0.52584   0.69484   0.00000  Uiso   1.00
C930   C     0.46711   0.47416   0.97183   0.00000  Uiso   1.00
C931   C     0.53287   0.52583   0.98025   0.00000  Uiso   1.00
C932   C     0.46713   0.47417   0.68642   0.00000  Uiso   1.00
C933   C     0.41575   0.37494   0.77349   0.00000  Uiso   1.00
C934   C     0.58425   0.62506   0.89318   0.00000  Uiso   1.00
C935   C     0.50150   0.57989   0.83349   0.00000  Uiso   1.00
C936   C     0.40038   0.50000   0.82137   0.00000  Uiso   1.00
C937   C     0.59962   0.50000   0.84530   0.00000  Uiso   1.00
C938   C     0.34534   0.49997   0.81494   0.00000  Uiso   1.00
C939   C     0.65466   0.50003   0.85173   0.00000  Uiso   1.00
C940   C     0.45972   0.35382   0.80332   0.00000  Uiso   1.00
C941   C     0.54028   0.64618   0.86335   0.00000  Uiso   1.00
C942   C     0.46306   0.64400   0.80360   0.00000  Uiso   1.00
H943   H     0.65806   0.49989   0.78003   0.00000  Uiso   1.00
H944   H     0.44084   0.45349   0.70117   0.00000  Uiso   1.00
H945   H     0.34194   0.50011   0.88664   0.00000  Uiso   1.00
H946   H     0.43417   0.62560   0.78159   0.00000  Uiso   1.00
H947   H     0.56583   0.37440   0.88508   0.00000  Uiso   1.00
H948   H     0.55921   0.54651   0.71633   0.00000  Uiso   1.00
H949   H     0.44079   0.45349   0.95034   0.00000  Uiso   1.00
H950   H     0.40854   0.40813   0.77698   0.00000  Uiso   1.00
H951   H     0.59146   0.59187   0.88968   0.00000  Uiso   1.00
H952   H     0.55916   0.54651   0.96550   0.00000  Uiso   1.00
N953   N     0.49999   0.49999   0.95240   0.00000  Uiso   1.00
N954   N     0.50001   0.50001   0.71427   0.00000  Uiso   1.00
O955   O     0.50000   0.43892   0.87154   0.00000  Uiso   1.00
O956   O     0.61347   0.64468   0.92195   0.00000  Uiso   1.00
O957   O     0.50000   0.56108   0.79513   0.00000  Uiso   1.00
O958   O     0.50000   0.43893   0.79510   0.00000  Uiso   1.00
O959   O     0.50000   0.56107   0.87157   0.00000  Uiso   1.00
O960   O     0.42392   0.50000   0.86261   0.00000  Uiso   1.00
O961   O     0.57608   0.50000   0.80405   0.00000  Uiso   1.00
O962   O     0.42392   0.50000   0.78617   0.00000  Uiso   1.00
O963   O     0.57608   0.50000   0.88050   0.00000  Uiso   1.00
O964   O     0.38654   0.35532   0.74472   0.00000  Uiso   1.00
Zn965  Zn    0.50000   0.49999   0.88437   0.00000  Uiso   1.00
Zn966  Zn    0.50000   0.50001   0.78229   0.00000  Uiso   1.00
C967   C     0.83183   0.42011   0.83317   0.00000  Uiso   1.00
C968   C     0.87027   0.35600   0.86307   0.00000  Uiso   1.00
C969   C     0.83575   0.62405   0.83342   0.00000  Uiso   1.00
C970   C     0.83091   0.37595   0.83325   0.00000  Uiso   1.00
C971   C     0.86622   0.52584   0.69484   0.00000  Uiso   1.00
C972   C     0.80045   0.47416   0.97183   0.00000  Uiso   1.00
C973   C     0.86620   0.52583   0.98025   0.00000  Uiso   1.00
C974   C     0.80047   0.47417   0.68642   0.00000  Uiso   1.00
C975   C     0.74908   0.37494   0.77349   0.00000  Uiso   1.00
C976   C     0.91758   0.62506   0.89318   0.00000  Uiso   1.00
C977   C     0.83484   0.57989   0.83349   0.00000  Uiso   1.00
C978   C     0.73371   0.50000   0.82137   0.00000  Uiso   1.00
C979   C     0.93295   0.50000   0.84530   0.00000  Uiso   1.00
C980   C     0.67867   0.49997   0.81494   0.00000  Uiso   1.00
C981   C     0.98799   0.50003   0.85173   0.00000  Uiso   1.00
C982   C     0.79305   0.35382   0.80332   0.00000  Uiso   1.00
C983   C     0.87361   0.64618   0.86335   0.00000  Uiso   1.00
C984   C     0.79639   0.64400   0.80360   0.00000  Uiso   1.00
H985   H     0.99139   0.49989   0.78003   0.00000  Uiso   1.00
H986   H     0.77417   0.45349   0.70117   0.00000  Uiso   1.00
H987   H     0.67527   0.50011   0.88664   0.00000  Uiso   1.00
H988   H     0.76750   0.62560   0.78159   0.00000  Uiso   1.00
H989   H     0.89917   0.37440   0.88508   0.00000  Uiso   1.00
H990   H     0.89254   0.54651   0.71633   0.00000  Uiso   1.00
H991   H     0.77412   0.45349   0.95034   0.00000  Uiso   1.00
H992   H     0.74187   0.40813   0.77698   0.00000  Uiso   1.00
H993   H     0.92480   0.59187   0.88968   0.00000  Uiso   1.00
H994   H     0.89249   0.54651   0.96550   0.00000  Uiso   1.00
N995   N     0.83332   0.49999   0.95240   0.00000  Uiso   1.00
N996   N     0.83335   0.50001   0.71427   0.00000  Uiso   1.00
O997   O     0.83333   0.43892   0.87154   0.00000  Uiso   1.00
O998   O     0.94680   0.64468   0.92195   0.00000  Uiso   1.00
O999   O     0.83334   0.56108   0.79513   0.00000  Uiso   1.00
O1000  O     0.83333   0.43893   0.79510   0.00000  Uiso   1.00
O1001  O     0.83334   0.56107   0.87157   0.00000  Uiso   1.00
O1002  O     0.75725   0.50000   0.86261   0.00000  Uiso   1.00
O1003  O     0.90942   0.50000   0.80405   0.00000  Uiso   1.00
O1004  O     0.75725   0.50000   0.78617   0.00000  Uiso   1.00
O1005  O     0.90942   0.50000   0.88050   0.00000  Uiso   1.00
O1006  O     0.71987   0.35532   0.74472   0.00000  Uiso   1.00
Zn1007 Zn    0.83333   0.49999   0.88437   0.00000  Uiso   1.00
Zn1008 Zn    0.83333   0.50001   0.78229   0.00000  Uiso   1.00
C1009  C     0.16516   0.75345   0.83317   0.00000  Uiso   1.00
C1010  C     0.20361   0.68933   0.86307   0.00000  Uiso   1.00
C1011  C     0.16909   0.95738   0.83342   0.00000  Uiso   1.00
C1012  C     0.16425   0.70929   0.83325   0.00000  Uiso   1.00
C1013  C     0.19955   0.85917   0.69484   0.00000  Uiso   1.00
C1014  C     0.13378   0.80750   0.97183   0.00000  Uiso   1.00
C1015  C     0.19953   0.85917   0.98025   0.00000  Uiso   1.00
C1016  C     0.13380   0.80750   0.68642   0.00000  Uiso   1.00
C1017  C     0.08242   0.70827   0.77349   0.00000  Uiso   1.00
C1018  C     0.25092   0.95839   0.89318   0.00000  Uiso   1.00
C1019  C     0.16817   0.91322   0.83349   0.00000  Uiso   1.00
C1020  C     0.06705   0.83333   0.82137   0.00000  Uiso   1.00
C1021  C     0.26628   0.83333   0.84530   0.00000  Uiso   1.00
C1022  C     0.01201   0.83330   0.81494   0.00000  Uiso   1.00
C1023  C     0.32133   0.83337   0.85173   0.00000  Uiso   1.00
C1024  C     0.12639   0.68716   0.80332   0.00000  Uiso   1.00
C1025  C     0.20695   0.97951   0.86335   0.00000  Uiso   1.00
C1026  C     0.12973   0.97734   0.80360   0.00000  Uiso   1.00
H1027  H     0.32472   0.83322   0.78003   0.00000  Uiso   1.00
H1028  H     0.10751   0.78682   0.70117   0.00000  Uiso   1.00
H1029  H     0.00861   0.83344   0.88664   0.00000  Uiso   1.00
H1030  H     0.10083   0.95893   0.78159   0.00000  Uiso   1.00
H1031  H     0.23250   0.70774   0.88508   0.00000  Uiso   1.00
H1032  H     0.22588   0.87984   0.71633   0.00000  Uiso   1.00
H1033  H     0.10746   0.78683   0.95034   0.00000  Uiso   1.00
H1034  H     0.07520   0.74146   0.77698   0.00000  Uiso   1.00
H1035  H     0.25813   0.92520   0.88968   0.00000  Uiso   1.00
H1036  H     0.22583   0.87984   0.96550   0.00000  Uiso   1.00
N1037  N     0.16665   0.83332   0.95240   0.00000  Uiso   1.00
N1038  N     0.16668   0.83334   0.71427   0.00000  Uiso   1.00
O1039  O     0.16666   0.77225   0.87154   0.00000  Uiso   1.00
O1040  O     0.28013   0.97802   0.92195   0.00000  Uiso   1.00
O1041  O     0.16667   0.89442   0.79513   0.00000  Uiso   1.00
O1042  O     0.16666   0.77226   0.79510   0.00000  Uiso   1.00
O1043  O     0.16667   0.89441   0.87157   0.00000  Uiso   1.00
O1044  O     0.09058   0.83333   0.86261   0.00000  Uiso   1.00
O1045  O     0.24275   0.83334   0.80405   0.00000  Uiso   1.00
O1046  O     0.09058   0.83334   0.78617   0.00000  Uiso   1.00
O1047  O     0.24275   0.83333   0.88050   0.00000  Uiso   1.00
O1048  O     0.05320   0.68865   0.74472   0.00000  Uiso   1.00
Zn1049 Zn    0.16667   0.83333   0.88437   0.00000  Uiso   1.00
Zn1050 Zn    0.16667   0.83334   0.78229   0.00000  Uiso   1.00
C1051  C     0.49850   0.75345   0.83317   0.00000  Uiso   1.00
C1052  C     0.53694   0.68933   0.86307   0.00000  Uiso   1.00
C1053  C     0.50242   0.95738   0.83342   0.00000  Uiso   1.00
C1054  C     0.49758   0.70929   0.83325   0.00000  Uiso   1.00
C1055  C     0.53289   0.85917   0.69484   0.00000  Uiso   1.00
C1056  C     0.46711   0.80750   0.97183   0.00000  Uiso   1.00
C1057  C     0.53287   0.85917   0.98025   0.00000  Uiso   1.00
C1058  C     0.46713   0.80750   0.68642   0.00000  Uiso   1.00
C1059  C     0.41575   0.70827   0.77349   0.00000  Uiso   1.00
C1060  C     0.58425   0.95839   0.89318   0.00000  Uiso   1.00
C1061  C     0.50150   0.91322   0.83349   0.00000  Uiso   1.00
C1062  C     0.40038   0.83333   0.82137   0.00000  Uiso   1.00
C1063  C     0.59962   0.83333   0.84530   0.00000  Uiso   1.00
C1064  C     0.34534   0.83330   0.81494   0.00000  Uiso   1.00
C1065  C     0.65466   0.83337   0.85173   0.00000  Uiso   1.00
C1066  C     0.45972   0.68716   0.80332   0.00000  Uiso   1.00
C1067  C     0.54028   0.97951   0.86335   0.00000  Uiso   1.00
C1068  C     0.46306   0.97734   0.80360   0.00000  Uiso   1.00
H1069  H     0.65806   0.83322   0.78003   0.00000  Uiso   1.00
H1070  H     0.44084   0.78682   0.70117   0.00000  Uiso   1.00
H1071  H     0.34194   0.83344   0.88664   0.00000  Uiso   1.00
H1072  H     0.43417   0.95893   0.78159   0.00000  Uiso   1.00
H1073  H     0.56583   0.70774   0.88508   0.00000  Uiso   1.00
H1074  H     0.55921   0.87984   0.71633   0.00000  Uiso   1.00
H1075  H     0.44079   0.78683   0.95034   0.00000  Uiso   1.00
H1076  H     0.40854   0.74146   0.77698   0.00000  Uiso   1.00
H1077  H     0.59146   0.92520   0.88968   0.00000  Uiso   1.00
H1078  H     0.55916   0.87984   0.96550   0.00000  Uiso   1.00
N1079  N     0.49999   0.83332   0.95240   0.00000  Uiso   1.00
N1080  N     0.50001   0.83334   0.71427   0.00000  Uiso   1.00
O1081  O     0.50000   0.77225   0.87154   0.00000  Uiso   1.00
O1082  O     0.61347   0.97802   0.92195   0.00000  Uiso   1.00
O1083  O     0.50000   0.89442   0.79513   0.00000  Uiso   1.00
O1084  O     0.50000   0.77226   0.79510   0.00000  Uiso   1.00
O1085  O     0.50000   0.89441   0.87157   0.00000  Uiso   1.00
O1086  O     0.42392   0.83333   0.86261   0.00000  Uiso   1.00
O1087  O     0.57608   0.83334   0.80405   0.00000  Uiso   1.00
O1088  O     0.42392   0.83334   0.78617   0.00000  Uiso   1.00
O1089  O     0.57608   0.83333   0.88050   0.00000  Uiso   1.00
O1090  O     0.38654   0.68865   0.74472   0.00000  Uiso   1.00
Zn1091 Zn    0.50000   0.83333   0.88437   0.00000  Uiso   1.00
Zn1092 Zn    0.50000   0.83334   0.78229   0.00000  Uiso   1.00
C1093  C     0.83183   0.75345   0.83317   0.00000  Uiso   1.00
C1094  C     0.87027   0.68933   0.86307   0.00000  Uiso   1.00
C1095  C     0.83575   0.95738   0.83342   0.00000  Uiso   1.00
C1096  C     0.83091   0.70929   0.83325   0.00000  Uiso   1.00
C1097  C     0.86622   0.85917   0.69484   0.00000  Uiso   1.00
C1098  C     0.80045   0.80750   0.97183   0.00000  Uiso   1.00
C1099  C     0.86620   0.85917   0.98025   0.00000  Uiso   1.00
C1100  C     0.80047   0.80750   0.68642   0.00000  Uiso   1.00
C1101  C     0.74908   0.70827   0.77349   0.00000  Uiso   1.00
C1102  C     0.91758   0.95839   0.89318   0.00000  Uiso   1.00
C1103  C     0.83484   0.91322   0.83349   0.00000  Uiso   1.00
C1104  C     0.73371   0.83333   0.82137   0.00000  Uiso   1.00
C1105  C     0.93295   0.83333   0.84530   0.00000  Uiso   1.00
C1106  C     0.67867   0.83330   0.81494   0.00000  Uiso   1.00
C1107  C     0.98799   0.83337   0.85173   0.00000  Uiso   1.00
C1108  C     0.79305   0.68716   0.80332   0.00000  Uiso   1.00
C1109  C     0.87361   0.97951   0.86335   0.00000  Uiso   1.00
C1110  C     0.79639   0.97734   0.80360   0.00000  Uiso   1.00
H1111  H     0.99139   0.83322   0.78003   0.00000  Uiso   1.00
H1112  H     0.77417   0.78682   0.70117   0.00000  Uiso   1.00
H1113  H     0.67527   0.83344   0.88664   0.00000  Uiso   1.00
H1114  H     0.76750   0.95893   0.78159   0.00000  Uiso   1.00
H1115  H     0.89917   0.70774   0.88508   0.00000  Uiso   1.00
H1116  H     0.89254   0.87984   0.71633   0.00000  Uiso   1.00
H1117  H     0.77412   0.78683   0.95034   0.00000  Uiso   1.00
H1118  H     0.74187   0.74146   0.77698   0.00000  Uiso   1.00
H1119  H     0.92480   0.92520   0.88968   0.00000  Uiso   1.00
H1120  H     0.89249   0.87984   0.96550   0.00000  Uiso   1.00
N1121  N     0.83332   0.83332   0.95240   0.00000  Uiso   1.00
N1122  N     0.83335   0.83334   0.71427   0.00000  Uiso   1.00
O1123  O     0.83333   0.77225   0.87154   0.00000  Uiso   1.00
O1124  O     0.94680   0.97802   0.92195   0.00000  Uiso   1.00
O1125  O     0.83334   0.89442   0.79513   0.00000  Uiso   1.00
O1126  O     0.83333   0.77226   0.79510   0.00000  Uiso   1.00
O1127  O     0.83334   0.89441   0.87157   0.00000  Uiso   1.00
O1128  O     0.75725   0.83333   0.86261   0.00000  Uiso   1.00
O1129  O     0.90942   0.83334   0.80405   0.00000  Uiso   1.00
O1130  O     0.75725   0.83334   0.78617   0.00000  Uiso   1.00
O1131  O     0.90942   0.83333   0.88050   0.00000  Uiso   1.00
O1132  O     0.71987   0.68865   0.74472   0.00000  Uiso   1.00
Zn1133 Zn    0.83333   0.83333   0.88437   0.00000  Uiso   1.00
Zn1134 Zn    0.83333   0.83334   0.78229   0.00000  Uiso   1.00
loop_
_geom_bond_atom_site_label_1
_geom_bond_atom_site_label_2
_geom_bond_distance
_geom_bond_site_symmetry_2
_ccdc_geom_bond_type
C1     O31     1.281   .     A
C1     C4      1.410   .     S
C1     O34     1.281   .     A
C2     C4      1.395   .     A
C2     H23     1.085   .     S
C2     C269    1.380   1_545 S
C3     C17     1.406   .     A
C3     C11     1.410   .     S
C3     C18     1.395   .     A
C4     C16     1.406   .     A
C5     H24     1.082   .     S
C5     N30     1.367   .     A
C5     C763    1.418   1_554 S
C6     H25     1.082   .     S
C6     N29     1.367   .     A
C6     C386    1.418   .     S
C7     N29     1.367   .     A
C7     H28     1.082   .     S
C7     C383    1.418   .     S
C8     N30     1.367   .     A
C8     H20     1.082   .     S
C8     C762    1.418   1_554 S
C9     C16     1.489   .     S
C9     H26     1.084   .     S
C9     O40     1.221   .     D
C10    H27     1.084   .     S
C10    C17     1.489   .     S
C10    O32     1.221   .     D
C11    O35     1.281   .     A
C11    O33     1.281   .     A
C12    O36     1.278   .     A
C12    C14     1.403   .     S
C12    O38     1.281   .     A
C13    O37     1.278   .     A
C13    C15     1.403   .     S
C13    O39     1.281   .     A
C14    C99     1.330   1_455 S
C14    H103    1.088   1_455 S
C15    C56     1.330   .     S
C15    H63     1.088   .     S
C16    C270    1.380   1_545 S
C17    C128    1.380   .     S
C18    H22     1.085   .     S
C18    C142    1.380   .     S
H19    C56     1.088   .     S
H21    C99     1.088   1_455 S
N29    Zn41    2.012   .     S
N30    Zn42    2.012   .     S
O31    Zn41    1.987   .     S
O33    Zn42    1.987   .     S
O34    Zn42    1.985   .     S
O35    Zn41    1.985   .     S
O36    Zn41    1.970   .     S
O37    Zn42    1.970   .     S
O38    Zn42    1.981   .     S
O39    Zn41    1.981   .     S
C43    O73     1.281   .     A
C43    C46     1.410   .     S
C43    O76     1.281   .     A
C44    C46     1.395   .     A
C44    H65     1.085   .     S
C44    C311    1.380   1_545 S
C45    C59     1.406   .     A
C45    C53     1.410   .     S
C45    C60     1.395   .     A
C46    C58     1.406   .     A
C47    H66     1.082   .     S
C47    N72     1.367   .     A
C47    C805    1.418   1_554 S
C48    H67     1.082   .     S
C48    N71     1.367   .     A
C48    C428    1.418   .     S
C49    N71     1.367   .     A
C49    H70     1.082   .     S
C49    C425    1.418   .     S
C50    N72     1.367   .     A
C50    H62     1.082   .     S
C50    C804    1.418   1_554 S
C51    C58     1.489   .     S
C51    H68     1.084   .     S
C51    O82     1.221   .     D
C52    H69     1.084   .     S
C52    C59     1.489   .     S
C52    O74     1.221   .     D
C53    O77     1.281   .     A
C53    O75     1.281   .     A
C54    O78     1.278   .     A
C54    C56     1.403   .     S
C54    O80     1.281   .     A
C55    O79     1.278   .     A
C55    C57     1.403   .     S
C55    O81     1.281   .     A
C57    C98     1.330   .     S
C57    H105    1.088   .     S
C58    C312    1.380   1_545 S
C59    C170    1.380   .     S
C60    H64     1.085   .     S
C60    C184    1.380   .     S
H61    C98     1.088   .     S
N71    Zn83    2.012   .     S
N72    Zn84    2.012   .     S
O73    Zn83    1.987   .     S
O75    Zn84    1.987   .     S
O76    Zn84    1.985   .     S
O77    Zn83    1.985   .     S
O78    Zn83    1.970   .     S
O79    Zn84    1.970   .     S
O80    Zn84    1.981   .     S
O81    Zn83    1.981   .     S
C85    O115    1.281   .     A
C85    C88     1.410   .     S
C85    O118    1.281   .     A
C86    C88     1.395   .     A
C86    H107    1.085   .     S
C86    C353    1.380   1_545 S
C87    C101    1.406   .     A
C87    C95     1.410   .     S
C87    C102    1.395   .     A
C88    C100    1.406   .     A
C89    H108    1.082   .     S
C89    N114    1.367   .     A
C89    C847    1.418   1_554 S
C90    H109    1.082   .     S
C90    N113    1.367   .     A
C90    C470    1.418   .     S
C91    N113    1.367   .     A
C91    H112    1.082   .     S
C91    C467    1.418   .     S
C92    N114    1.367   .     A
C92    H104    1.082   .     S
C92    C846    1.418   1_554 S
C93    C100    1.489   .     S
C93    H110    1.084   .     S
C93    O124    1.221   .     D
C94    H111    1.084   .     S
C94    C101    1.489   .     S
C94    O116    1.221   .     D
C95    O119    1.281   .     A
C95    O117    1.281   .     A
C96    O120    1.278   .     A
C96    C98     1.403   .     S
C96    O122    1.281   .     A
C97    O121    1.278   .     A
C97    C99     1.403   .     S
C97    O123    1.281   .     A
C99    C14     1.330   1_655 S
C99    H21     1.088   1_655 S
C100   C354    1.380   1_545 S
C101   C212    1.380   .     S
C102   H106    1.085   .     S
C102   C226    1.380   .     S
H103   C14     1.088   1_655 S
N113   Zn125   2.012   .     S
N114   Zn126   2.012   .     S
O115   Zn125   1.987   .     S
O117   Zn126   1.987   .     S
O118   Zn126   1.985   .     S
O119   Zn125   1.985   .     S
O120   Zn125   1.970   .     S
O121   Zn126   1.970   .     S
O122   Zn126   1.981   .     S
O123   Zn125   1.981   .     S
C127   O157    1.281   .     A
C127   C130    1.410   .     S
C127   O160    1.281   .     A
C128   C130    1.395   .     A
C128   H149    1.085   .     S
C129   C143    1.406   .     A
C129   C137    1.410   .     S
C129   C144    1.395   .     A
C130   C142    1.406   .     A
C131   H150    1.082   .     S
C131   N156    1.367   .     A
C131   C889    1.418   1_554 S
C132   H151    1.082   .     S
C132   N155    1.367   .     A
C132   C512    1.418   .     S
C133   N155    1.367   .     A
C133   H154    1.082   .     S
C133   C509    1.418   .     S
C134   N156    1.367   .     A
C134   H146    1.082   .     S
C134   C888    1.418   1_554 S
C135   C142    1.489   .     S
C135   H152    1.084   .     S
C135   O166    1.221   .     D
C136   H153    1.084   .     S
C136   C143    1.489   .     S
C136   O158    1.221   .     D
C137   O161    1.281   .     A
C137   O159    1.281   .     A
C138   O162    1.278   .     A
C138   C140    1.403   .     S
C138   O164    1.281   .     A
C139   O163    1.278   .     A
C139   C141    1.403   .     S
C139   O165    1.281   .     A
C140   C225    1.330   1_455 S
C140   H229    1.088   1_455 S
C141   C182    1.330   .     S
C141   H189    1.088   .     S
C143   C254    1.380   .     S
C144   H148    1.085   .     S
C144   C268    1.380   .     S
H145   C182    1.088   .     S
H147   C225    1.088   1_455 S
N155   Zn167   2.012   .     S
N156   Zn168   2.012   .     S
O157   Zn167   1.987   .     S
O159   Zn168   1.987   .     S
O160   Zn168   1.985   .     S
O161   Zn167   1.985   .     S
O162   Zn167   1.970   .     S
O163   Zn168   1.970   .     S
O164   Zn168   1.981   .     S
O165   Zn167   1.981   .     S
C169   O199    1.281   .     A
C169   C172    1.410   .     S
C169   O202    1.281   .     A
C170   C172    1.395   .     A
C170   H191    1.085   .     S
C171   C185    1.406   .     A
C171   C179    1.410   .     S
C171   C186    1.395   .     A
C172   C184    1.406   .     A
C173   H192    1.082   .     S
C173   N198    1.367   .     A
C173   C931    1.418   1_554 S
C174   H193    1.082   .     S
C174   N197    1.367   .     A
C174   C554    1.418   .     S
C175   N197    1.367   .     A
C175   H196    1.082   .     S
C175   C551    1.418   .     S
C176   N198    1.367   .     A
C176   H188    1.082   .     S
C176   C930    1.418   1_554 S
C177   C184    1.489   .     S
C177   H194    1.084   .     S
C177   O208    1.221   .     D
C178   H195    1.084   .     S
C178   C185    1.489   .     S
C178   O200    1.221   .     D
C179   O203    1.281   .     A
C179   O201    1.281   .     A
C180   O204    1.278   .     A
C180   C182    1.403   .     S
C180   O206    1.281   .     A
C181   O205    1.278   .     A
C181   C183    1.403   .     S
C181   O207    1.281   .     A
C183   C224    1.330   .     S
C183   H231    1.088   .     S
C185   C296    1.380   .     S
C186   H190    1.085   .     S
C186   C310    1.380   .     S
H187   C224    1.088   .     S
N197   Zn209   2.012   .     S
N198   Zn210   2.012   .     S
O199   Zn209   1.987   .     S
O201   Zn210   1.987   .     S
O202   Zn210   1.985   .     S
O203   Zn209   1.985   .     S
O204   Zn209   1.970   .     S
O205   Zn210   1.970   .     S
O206   Zn210   1.981   .     S
O207   Zn209   1.981   .     S
C211   O241    1.281   .     A
C211   C214    1.410   .     S
C211   O244    1.281   .     A
C212   C214    1.395   .     A
C212   H233    1.085   .     S
C213   C227    1.406   .     A
C213   C221    1.410   .     S
C213   C228    1.395   .     A
C214   C226    1.406   .     A
C215   H234    1.082   .     S
C215   N240    1.367   .     A
C215   C973    1.418   1_554 S
C216   H235    1.082   .     S
C216   N239    1.367   .     A
C216   C596    1.418   .     S
C217   N239    1.367   .     A
C217   H238    1.082   .     S
C217   C593    1.418   .     S
C218   N240    1.367   .     A
C218   H230    1.082   .     S
C218   C972    1.418   1_554 S
C219   C226    1.489   .     S
C219   H236    1.084   .     S
C219   O250    1.221   .     D
C220   H237    1.084   .     S
C220   C227    1.489   .     S
C220   O242    1.221   .     D
C221   O245    1.281   .     A
C221   O243    1.281   .     A
C222   O246    1.278   .     A
C222   C224    1.403   .     S
C222   O248    1.281   .     A
C223   O247    1.278   .     A
C223   C225    1.403   .     S
C223   O249    1.281   .     A
C225   C140    1.330   1_655 S
C225   H147    1.088   1_655 S
C227   C338    1.380   .     S
C228   H232    1.085   .     S
C228   C352    1.380   .     S
H229   C140    1.088   1_655 S
N239   Zn251   2.012   .     S
N240   Zn252   2.012   .     S
O241   Zn251   1.987   .     S
O243   Zn252   1.987   .     S
O244   Zn252   1.985   .     S
O245   Zn251   1.985   .     S
O246   Zn251   1.970   .     S
O247   Zn252   1.970   .     S
O248   Zn252   1.981   .     S
O249   Zn251   1.981   .     S
C253   O283    1.281   .     A
C253   C256    1.410   .     S
C253   O286    1.281   .     A
C254   C256    1.395   .     A
C254   H275    1.085   .     S
C255   C269    1.406   .     A
C255   C263    1.410   .     S
C255   C270    1.395   .     A
C256   C268    1.406   .     A
C257   H276    1.082   .     S
C257   N282    1.367   .     A
C257   C1015   1.418   1_554 S
C258   H277    1.082   .     S
C258   N281    1.367   .     A
C258   C638    1.418   .     S
C259   N281    1.367   .     A
C259   H280    1.082   .     S
C259   C635    1.418   .     S
C260   N282    1.367   .     A
C260   H272    1.082   .     S
C260   C1014   1.418   1_554 S
C261   C268    1.489   .     S
C261   H278    1.084   .     S
C261   O292    1.221   .     D
C262   H279    1.084   .     S
C262   C269    1.489   .     S
C262   O284    1.221   .     D
C263   O287    1.281   .     A
C263   O285    1.281   .     A
C264   O288    1.278   .     A
C264   C266    1.403   .     S
C264   O290    1.281   .     A
C265   O289    1.278   .     A
C265   C267    1.403   .     S
C265   O291    1.281   .     A
C266   C351    1.330   1_455 S
C266   H355    1.088   1_455 S
C267   C308    1.330   .     S
C267   H315    1.088   .     S
C269   C2      1.380   1_565 S
C270   H274    1.085   .     S
C270   C16     1.380   1_565 S
H271   C308    1.088   .     S
H273   C351    1.088   1_455 S
N281   Zn293   2.012   .     S
N282   Zn294   2.012   .     S
O283   Zn293   1.987   .     S
O285   Zn294   1.987   .     S
O286   Zn294   1.985   .     S
O287   Zn293   1.985   .     S
O288   Zn293   1.970   .     S
O289   Zn294   1.970   .     S
O290   Zn294   1.981   .     S
O291   Zn293   1.981   .     S
C295   O325    1.281   .     A
C295   C298    1.410   .     S
C295   O328    1.281   .     A
C296   C298    1.395   .     A
C296   H317    1.085   .     S
C297   C311    1.406   .     A
C297   C305    1.410   .     S
C297   C312    1.395   .     A
C298   C310    1.406   .     A
C299   H318    1.082   .     S
C299   N324    1.367   .     A
C299   C1057   1.418   1_554 S
C300   H319    1.082   .     S
C300   N323    1.367   .     A
C300   C680    1.418   .     S
C301   N323    1.367   .     A
C301   H322    1.082   .     S
C301   C677    1.418   .     S
C302   N324    1.367   .     A
C302   H314    1.082   .     S
C302   C1056   1.418   1_554 S
C303   C310    1.489   .     S
C303   H320    1.084   .     S
C303   O334    1.221   .     D
C304   H321    1.084   .     S
C304   C311    1.489   .     S
C304   O326    1.221   .     D
C305   O329    1.281   .     A
C305   O327    1.281   .     A
C306   O330    1.278   .     A
C306   C308    1.403   .     S
C306   O332    1.281   .     A
C307   O331    1.278   .     A
C307   C309    1.403   .     S
C307   O333    1.281   .     A
C309   C350    1.330   .     S
C309   H357    1.088   .     S
C311   C44     1.380   1_565 S
C312   H316    1.085   .     S
C312   C58     1.380   1_565 S
H313   C350    1.088   .     S
N323   Zn335   2.012   .     S
N324   Zn336   2.012   .     S
O325   Zn335   1.987   .     S
O327   Zn336   1.987   .     S
O328   Zn336   1.985   .     S
O329   Zn335   1.985   .     S
O330   Zn335   1.970   .     S
O331   Zn336   1.970   .     S
O332   Zn336   1.981   .     S
O333   Zn335   1.981   .     S
C337   O367    1.281   .     A
C337   C340    1.410   .     S
C337   O370    1.281   .     A
C338   C340    1.395   .     A
C338   H359    1.085   .     S
C339   C353    1.406   .     A
C339   C347    1.410   .     S
C339   C354    1.395   .     A
C340   C352    1.406   .     A
C341   H360    1.082   .     S
C341   N366    1.367   .     A
C341   C1099   1.418   1_554 S
C342   H361    1.082   .     S
C342   N365    1.367   .     A
C342   C722    1.418   .     S
C343   N365    1.367   .     A
C343   H364    1.082   .     S
C343   C719    1.418   .     S
C344   N366    1.367   .     A
C344   H356    1.082   .     S
C344   C1098   1.418   1_554 S
C345   C352    1.489   .     S
C345   H362    1.084   .     S
C345   O376    1.221   .     D
C346   H363    1.084   .     S
C346   C353    1.489   .     S
C346   O368    1.221   .     D
C347   O371    1.281   .     A
C347   O369    1.281   .     A
C348   O372    1.278   .     A
C348   C350    1.403   .     S
C348   O374    1.281   .     A
C349   O373    1.278   .     A
C349   C351    1.403   .     S
C349   O375    1.281   .     A
C351   C266    1.330   1_655 S
C351   H273    1.088   1_655 S
C353   C86     1.380   1_565 S
C354   H358    1.085   .     S
C354   C100    1.380   1_565 S
H355   C266    1.088   1_655 S
N365   Zn377   2.012   .     S
N366   Zn378   2.012   .     S
O367   Zn377   1.987   .     S
O369   Zn378   1.987   .     S
O370   Zn378   1.985   .     S
O371   Zn377   1.985   .     S
O372   Zn377   1.970   .     S
O373   Zn378   1.970   .     S
O374   Zn378   1.981   .     S
O375   Zn377   1.981   .     S
C379   O409    1.281   .     A
C379   C382    1.410   .     S
C379   O412    1.281   .     A
C380   C382    1.395   .     A
C380   H401    1.085   .     S
C380   C647    1.380   1_545 S
C381   C395    1.406   .     A
C381   C389    1.410   .     S
C381   C396    1.395   .     A
C382   C394    1.406   .     A
C383   H402    1.082   .     S
C383   N408    1.367   .     A
C384   H403    1.082   .     S
C384   N407    1.367   .     A
C384   C764    1.418   .     S
C385   N407    1.367   .     A
C385   H406    1.082   .     S
C385   C761    1.418   .     S
C386   N408    1.367   .     A
C386   H398    1.082   .     S
C387   C394    1.489   .     S
C387   H404    1.084   .     S
C387   O418    1.221   .     D
C388   H405    1.084   .     S
C388   C395    1.489   .     S
C388   O410    1.221   .     D
C389   O413    1.281   .     A
C389   O411    1.281   .     A
C390   O414    1.278   .     A
C390   C392    1.403   .     S
C390   O416    1.281   .     A
C391   O415    1.278   .     A
C391   C393    1.403   .     S
C391   O417    1.281   .     A
C392   C477    1.330   1_455 S
C392   H481    1.088   1_455 S
C393   C434    1.330   .     S
C393   H441    1.088   .     S
C394   C648    1.380   1_545 S
C395   C506    1.380   .     S
C396   H400    1.085   .     S
C396   C520    1.380   .     S
H397   C434    1.088   .     S
H399   C477    1.088   1_455 S
N407   Zn419   2.012   .     S
N408   Zn420   2.012   .     S
O409   Zn419   1.987   .     S
O411   Zn420   1.987   .     S
O412   Zn420   1.985   .     S
O413   Zn419   1.985   .     S
O414   Zn419   1.970   .     S
O415   Zn420   1.970   .     S
O416   Zn420   1.981   .     S
O417   Zn419   1.981   .     S
C421   O451    1.281   .     A
C421   C424    1.410   .     S
C421   O454    1.281   .     A
C422   C424    1.395   .     A
C422   H443    1.085   .     S
C422   C689    1.380   1_545 S
C423   C437    1.406   .     A
C423   C431    1.410   .     S
C423   C438    1.395   .     A
C424   C436    1.406   .     A
C425   H444    1.082   .     S
C425   N450    1.367   .     A
C426   H445    1.082   .     S
C426   N449    1.367   .     A
C426   C806    1.418   .     S
C427   N449    1.367   .     A
C427   H448    1.082   .     S
C427   C803    1.418   .     S
C428   N450    1.367   .     A
C428   H440    1.082   .     S
C429   C436    1.489   .     S
C429   H446    1.084   .     S
C429   O460    1.221   .     D
C430   H447    1.084   .     S
C430   C437    1.489   .     S
C430   O452    1.221   .     D
C431   O455    1.281   .     A
C431   O453    1.281   .     A
C432   O456    1.278   .     A
C432   C434    1.403   .     S
C432   O458    1.281   .     A
C433   O457    1.278   .     A
C433   C435    1.403   .     S
C433   O459    1.281   .     A
C435   C476    1.330   .     S
C435   H483    1.088   .     S
C436   C690    1.380   1_545 S
C437   C548    1.380   .     S
C438   H442    1.085   .     S
C438   C562    1.380   .     S
H439   C476    1.088   .     S
N449   Zn461   2.012   .     S
N450   Zn462   2.012   .     S
O451   Zn461   1.987   .     S
O453   Zn462   1.987   .     S
O454   Zn462   1.985   .     S
O455   Zn461   1.985   .     S
O456   Zn461   1.970   .     S
O457   Zn462   1.970   .     S
O458   Zn462   1.981   .     S
O459   Zn461   1.981   .     S
C463   O493    1.281   .     A
C463   C466    1.410   .     S
C463   O496    1.281   .     A
C464   C466    1.395   .     A
C464   H485    1.085   .     S
C464   C731    1.380   1_545 S
C465   C479    1.406   .     A
C465   C473    1.410   .     S
C465   C480    1.395   .     A
C466   C478    1.406   .     A
C467   H486    1.082   .     S
C467   N492    1.367   .     A
C468   H487    1.082   .     S
C468   N491    1.367   .     A
C468   C848    1.418   .     S
C469   N491    1.367   .     A
C469   H490    1.082   .     S
C469   C845    1.418   .     S
C470   N492    1.367   .     A
C470   H482    1.082   .     S
C471   C478    1.489   .     S
C471   H488    1.084   .     S
C471   O502    1.221   .     D
C472   H489    1.084   .     S
C472   C479    1.489   .     S
C472   O494    1.221   .     D
C473   O497    1.281   .     A
C473   O495    1.281   .     A
C474   O498    1.278   .     A
C474   C476    1.403   .     S
C474   O500    1.281   .     A
C475   O499    1.278   .     A
C475   C477    1.403   .     S
C475   O501    1.281   .     A
C477   C392    1.330   1_655 S
C477   H399    1.088   1_655 S
C478   C732    1.380   1_545 S
C479   C590    1.380   .     S
C480   H484    1.085   .     S
C480   C604    1.380   .     S
H481   C392    1.088   1_655 S
N491   Zn503   2.012   .     S
N492   Zn504   2.012   .     S
O493   Zn503   1.987   .     S
O495   Zn504   1.987   .     S
O496   Zn504   1.985   .     S
O497   Zn503   1.985   .     S
O498   Zn503   1.970   .     S
O499   Zn504   1.970   .     S
O500   Zn504   1.981   .     S
O501   Zn503   1.981   .     S
C505   O535    1.281   .     A
C505   C508    1.410   .     S
C505   O538    1.281   .     A
C506   C508    1.395   .     A
C506   H527    1.085   .     S
C507   C521    1.406   .     A
C507   C515    1.410   .     S
C507   C522    1.395   .     A
C508   C520    1.406   .     A
C509   H528    1.082   .     S
C509   N534    1.367   .     A
C510   H529    1.082   .     S
C510   N533    1.367   .     A
C510   C890    1.418   .     S
C511   N533    1.367   .     A
C511   H532    1.082   .     S
C511   C887    1.418   .     S
C512   N534    1.367   .     A
C512   H524    1.082   .     S
C513   C520    1.489   .     S
C513   H530    1.084   .     S
C513   O544    1.221   .     D
C514   H531    1.084   .     S
C514   C521    1.489   .     S
C514   O536    1.221   .     D
C515   O539    1.281   .     A
C515   O537    1.281   .     A
C516   O540    1.278   .     A
C516   C518    1.403   .     S
C516   O542    1.281   .     A
C517   O541    1.278   .     A
C517   C519    1.403   .     S
C517   O543    1.281   .     A
C518   C603    1.330   1_455 S
C518   H607    1.088   1_455 S
C519   C560    1.330   .     S
C519   H567    1.088   .     S
C521   C632    1.380   .     S
C522   H526    1.085   .     S
C522   C646    1.380   .     S
H523   C560    1.088   .     S
H525   C603    1.088   1_455 S
N533   Zn545   2.012   .     S
N534   Zn546   2.012   .     S
O535   Zn545   1.987   .     S
O537   Zn546   1.987   .     S
O538   Zn546   1.985   .     S
O539   Zn545   1.985   .     S
O540   Zn545   1.970   .     S
O541   Zn546   1.970   .     S
O542   Zn546   1.981   .     S
O543   Zn545   1.981   .     S
C547   O577    1.281   .     A
C547   C550    1.410   .     S
C547   O580    1.281   .     A
C548   C550    1.395   .     A
C548   H569    1.085   .     S
C549   C563    1.406   .     A
C549   C557    1.410   .     S
C549   C564    1.395   .     A
C550   C562    1.406   .     A
C551   H570    1.082   .     S
C551   N576    1.367   .     A
C552   H571    1.082   .     S
C552   N575    1.367   .     A
C552   C932    1.418   .     S
C553   N575    1.367   .     A
C553   H574    1.082   .     S
C553   C929    1.418   .     S
C554   N576    1.367   .     A
C554   H566    1.082   .     S
C555   C562    1.489   .     S
C555   H572    1.084   .     S
C555   O586    1.221   .     D
C556   H573    1.084   .     S
C556   C563    1.489   .     S
C556   O578    1.221   .     D
C557   O581    1.281   .     A
C557   O579    1.281   .     A
C558   O582    1.278   .     A
C558   C560    1.403   .     S
C558   O584    1.281   .     A
C559   O583    1.278   .     A
C559   C561    1.403   .     S
C559   O585    1.281   .     A
C561   C602    1.330   .     S
C561   H609    1.088   .     S
C563   C674    1.380   .     S
C564   H568    1.085   .     S
C564   C688    1.380   .     S
H565   C602    1.088   .     S
N575   Zn587   2.012   .     S
N576   Zn588   2.012   .     S
O577   Zn587   1.987   .     S
O579   Zn588   1.987   .     S
O580   Zn588   1.985   .     S
O581   Zn587   1.985   .     S
O582   Zn587   1.970   .     S
O583   Zn588   1.970   .     S
O584   Zn588   1.981   .     S
O585   Zn587   1.981   .     S
C589   O619    1.281   .     A
C589   C592    1.410   .     S
C589   O622    1.281   .     A
C590   C592    1.395   .     A
C590   H611    1.085   .     S
C591   C605    1.406   .     A
C591   C599    1.410   .     S
C591   C606    1.395   .     A
C592   C604    1.406   .     A
C593   H612    1.082   .     S
C593   N618    1.367   .     A
C594   H613    1.082   .     S
C594   N617    1.367   .     A
C594   C974    1.418   .     S
C595   N617    1.367   .     A
C595   H616    1.082   .     S
C595   C971    1.418   .     S
C596   N618    1.367   .     A
C596   H608    1.082   .     S
C597   C604    1.489   .     S
C597   H614    1.084   .     S
C597   O628    1.221   .     D
C598   H615    1.084   .     S
C598   C605    1.489   .     S
C598   O620    1.221   .     D
C599   O623    1.281   .     A
C599   O621    1.281   .     A
C600   O624    1.278   .     A
C600   C602    1.403   .     S
C600   O626    1.281   .     A
C601   O625    1.278   .     A
C601   C603    1.403   .     S
C601   O627    1.281   .     A
C603   C518    1.330   1_655 S
C603   H525    1.088   1_655 S
C605   C716    1.380   .     S
C606   H610    1.085   .     S
C606   C730    1.380   .     S
H607   C518    1.088   1_655 S
N617   Zn629   2.012   .     S
N618   Zn630   2.012   .     S
O619   Zn629   1.987   .     S
O621   Zn630   1.987   .     S
O622   Zn630   1.985   .     S
O623   Zn629   1.985   .     S
O624   Zn629   1.970   .     S
O625   Zn630   1.970   .     S
O626   Zn630   1.981   .     S
O627   Zn629   1.981   .     S
C631   O661    1.281   .     A
C631   C634    1.410   .     S
C631   O664    1.281   .     A
C632   C634    1.395   .     A
C632   H653    1.085   .     S
C633   C647    1.406   .     A
C633   C641    1.410   .     S
C633   C648    1.395   .     A
C634   C646    1.406   .     A
C635   H654    1.082   .     S
C635   N660    1.367   .     A
C636   H655    1.082   .     S
C636   N659    1.367   .     A
C636   C1016   1.418   .     S
C637   N659    1.367   .     A
C637   H658    1.082   .     S
C637   C1013   1.418   .     S
C638   N660    1.367   .     A
C638   H650    1.082   .     S
C639   C646    1.489   .     S
C639   H656    1.084   .     S
C639   O670    1.221   .     D
C640   H657    1.084   .     S
C640   C647    1.489   .     S
C640   O662    1.221   .     D
C641   O665    1.281   .     A
C641   O663    1.281   .     A
C642   O666    1.278   .     A
C642   C644    1.403   .     S
C642   O668    1.281   .     A
C643   O667    1.278   .     A
C643   C645    1.403   .     S
C643   O669    1.281   .     A
C644   C729    1.330   1_455 S
C644   H733    1.088   1_455 S
C645   C686    1.330   .     S
C645   H693    1.088   .     S
C647   C380    1.380   1_565 S
C648   H652    1.085   .     S
C648   C394    1.380   1_565 S
H649   C686    1.088   .     S
H651   C729    1.088   1_455 S
N659   Zn671   2.012   .     S
N660   Zn672   2.012   .     S
O661   Zn671   1.987   .     S
O663   Zn672   1.987   .     S
O664   Zn672   1.985   .     S
O665   Zn671   1.985   .     S
O666   Zn671   1.970   .     S
O667   Zn672   1.970   .     S
O668   Zn672   1.981   .     S
O669   Zn671   1.981   .     S
C673   O703    1.281   .     A
C673   C676    1.410   .     S
C673   O706    1.281   .     A
C674   C676    1.395   .     A
C674   H695    1.085   .     S
C675   C689    1.406   .     A
C675   C683    1.410   .     S
C675   C690    1.395   .     A
C676   C688    1.406   .     A
C677   H696    1.082   .     S
C677   N702    1.367   .     A
C678   H697    1.082   .     S
C678   N701    1.367   .     A
C678   C1058   1.418   .     S
C679   N701    1.367   .     A
C679   H700    1.082   .     S
C679   C1055   1.418   .     S
C680   N702    1.367   .     A
C680   H692    1.082   .     S
C681   C688    1.489   .     S
C681   H698    1.084   .     S
C681   O712    1.221   .     D
C682   H699    1.084   .     S
C682   C689    1.489   .     S
C682   O704    1.221   .     D
C683   O707    1.281   .     A
C683   O705    1.281   .     A
C684   O708    1.278   .     A
C684   C686    1.403   .     S
C684   O710    1.281   .     A
C685   O709    1.278   .     A
C685   C687    1.403   .     S
C685   O711    1.281   .     A
C687   C728    1.330   .     S
C687   H735    1.088   .     S
C689   C422    1.380   1_565 S
C690   H694    1.085   .     S
C690   C436    1.380   1_565 S
H691   C728    1.088   .     S
N701   Zn713   2.012   .     S
N702   Zn714   2.012   .     S
O703   Zn713   1.987   .     S
O705   Zn714   1.987   .     S
O706   Zn714   1.985   .     S
O707   Zn713   1.985   .     S
O708   Zn713   1.970   .     S
O709   Zn714   1.970   .     S
O710   Zn714   1.981   .     S
O711   Zn713   1.981   .     S
C715   O745    1.281   .     A
C715   C718    1.410   .     S
C715   O748    1.281   .     A
C716   C718    1.395   .     A
C716   H737    1.085   .     S
C717   C731    1.406   .     A
C717   C725    1.410   .     S
C717   C732    1.395   .     A
C718   C730    1.406   .     A
C719   H738    1.082   .     S
C719   N744    1.367   .     A
C720   H739    1.082   .     S
C720   N743    1.367   .     A
C720   C1100   1.418   .     S
C721   N743    1.367   .     A
C721   H742    1.082   .     S
C721   C1097   1.418   .     S
C722   N744    1.367   .     A
C722   H734    1.082   .     S
C723   C730    1.489   .     S
C723   H740    1.084   .     S
C723   O754    1.221   .     D
C724   H741    1.084   .     S
C724   C731    1.489   .     S
C724   O746    1.221   .     D
C725   O749    1.281   .     A
C725   O747    1.281   .     A
C726   O750    1.278   .     A
C726   C728    1.403   .     S
C726   O752    1.281   .     A
C727   O751    1.278   .     A
C727   C729    1.403   .     S
C727   O753    1.281   .     A
C729   C644    1.330   1_655 S
C729   H651    1.088   1_655 S
C731   C464    1.380   1_565 S
C732   H736    1.085   .     S
C732   C478    1.380   1_565 S
H733   C644    1.088   1_655 S
N743   Zn755   2.012   .     S
N744   Zn756   2.012   .     S
O745   Zn755   1.987   .     S
O747   Zn756   1.987   .     S
O748   Zn756   1.985   .     S
O749   Zn755   1.985   .     S
O750   Zn755   1.970   .     S
O751   Zn756   1.970   .     S
O752   Zn756   1.981   .     S
O753   Zn755   1.981   .     S
C757   O787    1.281   .     A
C757   C760    1.410   .     S
C757   O790    1.281   .     A
C758   C760    1.395   .     A
C758   H779    1.085   .     S
C758   C1025   1.380   1_545 S
C759   C773    1.406   .     A
C759   C767    1.410   .     S
C759   C774    1.395   .     A
C760   C772    1.406   .     A
C761   H780    1.082   .     S
C761   N786    1.367   .     A
C762   H781    1.082   .     S
C762   N785    1.367   .     A
C762   C8      1.418   1_556 S
C763   N785    1.367   .     A
C763   H784    1.082   .     S
C763   C5      1.418   1_556 S
C764   N786    1.367   .     A
C764   H776    1.082   .     S
C765   C772    1.489   .     S
C765   H782    1.084   .     S
C765   O796    1.221   .     D
C766   H783    1.084   .     S
C766   C773    1.489   .     S
C766   O788    1.221   .     D
C767   O791    1.281   .     A
C767   O789    1.281   .     A
C768   O792    1.278   .     A
C768   C770    1.403   .     S
C768   O794    1.281   .     A
C769   O793    1.278   .     A
C769   C771    1.403   .     S
C769   O795    1.281   .     A
C770   C855    1.330   1_455 S
C770   H859    1.088   1_455 S
C771   C812    1.330   .     S
C771   H819    1.088   .     S
C772   C1026   1.380   1_545 S
C773   C884    1.380   .     S
C774   H778    1.085   .     S
C774   C898    1.380   .     S
H775   C812    1.088   .     S
H777   C855    1.088   1_455 S
N785   Zn797   2.012   .     S
N786   Zn798   2.012   .     S
O787   Zn797   1.987   .     S
O789   Zn798   1.987   .     S
O790   Zn798   1.985   .     S
O791   Zn797   1.985   .     S
O792   Zn797   1.970   .     S
O793   Zn798   1.970   .     S
O794   Zn798   1.981   .     S
O795   Zn797   1.981   .     S
C799   O829    1.281   .     A
C799   C802    1.410   .     S
C799   O832    1.281   .     A
C800   C802    1.395   .     A
C800   H821    1.085   .     S
C800   C1067   1.380   1_545 S
C801   C815    1.406   .     A
C801   C809    1.410   .     S
C801   C816    1.395   .     A
C802   C814    1.406   .     A
C803   H822    1.082   .     S
C803   N828    1.367   .     A
C804   H823    1.082   .     S
C804   N827    1.367   .     A
C804   C50     1.418   1_556 S
C805   N827    1.367   .     A
C805   H826    1.082   .     S
C805   C47     1.418   1_556 S
C806   N828    1.367   .     A
C806   H818    1.082   .     S
C807   C814    1.489   .     S
C807   H824    1.084   .     S
C807   O838    1.221   .     D
C808   H825    1.084   .     S
C808   C815    1.489   .     S
C808   O830    1.221   .     D
C809   O833    1.281   .     A
C809   O831    1.281   .     A
C810   O834    1.278   .     A
C810   C812    1.403   .     S
C810   O836    1.281   .     A
C811   O835    1.278   .     A
C811   C813    1.403   .     S
C811   O837    1.281   .     A
C813   C854    1.330   .     S
C813   H861    1.088   .     S
C814   C1068   1.380   1_545 S
C815   C926    1.380   .     S
C816   H820    1.085   .     S
C816   C940    1.380   .     S
H817   C854    1.088   .     S
N827   Zn839   2.012   .     S
N828   Zn840   2.012   .     S
O829   Zn839   1.987   .     S
O831   Zn840   1.987   .     S
O832   Zn840   1.985   .     S
O833   Zn839   1.985   .     S
O834   Zn839   1.970   .     S
O835   Zn840   1.970   .     S
O836   Zn840   1.981   .     S
O837   Zn839   1.981   .     S
C841   O871    1.281   .     A
C841   C844    1.410   .     S
C841   O874    1.281   .     A
C842   C844    1.395   .     A
C842   H863    1.085   .     S
C842   C1109   1.380   1_545 S
C843   C857    1.406   .     A
C843   C851    1.410   .     S
C843   C858    1.395   .     A
C844   C856    1.406   .     A
C845   H864    1.082   .     S
C845   N870    1.367   .     A
C846   H865    1.082   .     S
C846   N869    1.367   .     A
C846   C92     1.418   1_556 S
C847   N869    1.367   .     A
C847   H868    1.082   .     S
C847   C89     1.418   1_556 S
C848   N870    1.367   .     A
C848   H860    1.082   .     S
C849   C856    1.489   .     S
C849   H866    1.084   .     S
C849   O880    1.221   .     D
C850   H867    1.084   .     S
C850   C857    1.489   .     S
C850   O872    1.221   .     D
C851   O875    1.281   .     A
C851   O873    1.281   .     A
C852   O876    1.278   .     A
C852   C854    1.403   .     S
C852   O878    1.281   .     A
C853   O877    1.278   .     A
C853   C855    1.403   .     S
C853   O879    1.281   .     A
C855   C770    1.330   1_655 S
C855   H777    1.088   1_655 S
C856   C1110   1.380   1_545 S
C857   C968    1.380   .     S
C858   H862    1.085   .     S
C858   C982    1.380   .     S
H859   C770    1.088   1_655 S
N869   Zn881   2.012   .     S
N870   Zn882   2.012   .     S
O871   Zn881   1.987   .     S
O873   Zn882   1.987   .     S
O874   Zn882   1.985   .     S
O875   Zn881   1.985   .     S
O876   Zn881   1.970   .     S
O877   Zn882   1.970   .     S
O878   Zn882   1.981   .     S
O879   Zn881   1.981   .     S
C883   O913    1.281   .     A
C883   C886    1.410   .     S
C883   O916    1.281   .     A
C884   C886    1.395   .     A
C884   H905    1.085   .     S
C885   C899    1.406   .     A
C885   C893    1.410   .     S
C885   C900    1.395   .     A
C886   C898    1.406   .     A
C887   H906    1.082   .     S
C887   N912    1.367   .     A
C888   H907    1.082   .     S
C888   N911    1.367   .     A
C888   C134    1.418   1_556 S
C889   N911    1.367   .     A
C889   H910    1.082   .     S
C889   C131    1.418   1_556 S
C890   N912    1.367   .     A
C890   H902    1.082   .     S
C891   C898    1.489   .     S
C891   H908    1.084   .     S
C891   O922    1.221   .     D
C892   H909    1.084   .     S
C892   C899    1.489   .     S
C892   O914    1.221   .     D
C893   O917    1.281   .     A
C893   O915    1.281   .     A
C894   O918    1.278   .     A
C894   C896    1.403   .     S
C894   O920    1.281   .     A
C895   O919    1.278   .     A
C895   C897    1.403   .     S
C895   O921    1.281   .     A
C896   C981    1.330   1_455 S
C896   H985    1.088   1_455 S
C897   C938    1.330   .     S
C897   H945    1.088   .     S
C899   C1010   1.380   .     S
C900   H904    1.085   .     S
C900   C1024   1.380   .     S
H901   C938    1.088   .     S
H903   C981    1.088   1_455 S
N911   Zn923   2.012   .     S
N912   Zn924   2.012   .     S
O913   Zn923   1.987   .     S
O915   Zn924   1.987   .     S
O916   Zn924   1.985   .     S
O917   Zn923   1.985   .     S
O918   Zn923   1.970   .     S
O919   Zn924   1.970   .     S
O920   Zn924   1.981   .     S
O921   Zn923   1.981   .     S
C925   O955    1.281   .     A
C925   C928    1.410   .     S
C925   O958    1.281   .     A
C926   C928    1.395   .     A
C926   H947    1.085   .     S
C927   C941    1.406   .     A
C927   C935    1.410   .     S
C927   C942    1.395   .     A
C928   C940    1.406   .     A
C929   H948    1.082   .     S
C929   N954    1.367   .     A
C930   H949    1.082   .     S
C930   N953    1.367   .     A
C930   C176    1.418   1_556 S
C931   N953    1.367   .     A
C931   H952    1.082   .     S
C931   C173    1.418   1_556 S
C932   N954    1.367   .     A
C932   H944    1.082   .     S
C933   C940    1.489   .     S
C933   H950    1.084   .     S
C933   O964    1.221   .     D
C934   H951    1.084   .     S
C934   C941    1.489   .     S
C934   O956    1.221   .     D
C935   O959    1.281   .     A
C935   O957    1.281   .     A
C936   O960    1.278   .     A
C936   C938    1.403   .     S
C936   O962    1.281   .     A
C937   O961    1.278   .     A
C937   C939    1.403   .     S
C937   O963    1.281   .     A
C939   C980    1.330   .     S
C939   H987    1.088   .     S
C941   C1052   1.380   .     S
C942   H946    1.085   .     S
C942   C1066   1.380   .     S
H943   C980    1.088   .     S
N953   Zn965   2.012   .     S
N954   Zn966   2.012   .     S
O955   Zn965   1.987   .     S
O957   Zn966   1.987   .     S
O958   Zn966   1.985   .     S
O959   Zn965   1.985   .     S
O960   Zn965   1.970   .     S
O961   Zn966   1.970   .     S
O962   Zn966   1.981   .     S
O963   Zn965   1.981   .     S
C967   O997    1.281   .     A
C967   C970    1.410   .     S
C967   O1000   1.281   .     A
C968   C970    1.395   .     A
C968   H989    1.085   .     S
C969   C983    1.406   .     A
C969   C977    1.410   .     S
C969   C984    1.395   .     A
C970   C982    1.406   .     A
C971   H990    1.082   .     S
C971   N996    1.367   .     A
C972   H991    1.082   .     S
C972   N995    1.367   .     A
C972   C218    1.418   1_556 S
C973   N995    1.367   .     A
C973   H994    1.082   .     S
C973   C215    1.418   1_556 S
C974   N996    1.367   .     A
C974   H986    1.082   .     S
C975   C982    1.489   .     S
C975   H992    1.084   .     S
C975   O1006   1.221   .     D
C976   H993    1.084   .     S
C976   C983    1.489   .     S
C976   O998    1.221   .     D
C977   O1001   1.281   .     A
C977   O999    1.281   .     A
C978   O1002   1.278   .     A
C978   C980    1.403   .     S
C978   O1004   1.281   .     A
C979   O1003   1.278   .     A
C979   C981    1.403   .     S
C979   O1005   1.281   .     A
C981   C896    1.330   1_655 S
C981   H903    1.088   1_655 S
C983   C1094   1.380   .     S
C984   H988    1.085   .     S
C984   C1108   1.380   .     S
H985   C896    1.088   1_655 S
N995   Zn1007  2.012   .     S
N996   Zn1008  2.012   .     S
O997   Zn1007  1.987   .     S
O999   Zn1008  1.987   .     S
O1000  Zn1008  1.985   .     S
O1001  Zn1007  1.985   .     S
O1002  Zn1007  1.970   .     S
O1003  Zn1008  1.970   .     S
O1004  Zn1008  1.981   .     S
O1005  Zn1007  1.981   .     S
C1009  O1039   1.281   .     A
C1009  C1012   1.410   .     S
C1009  O1042   1.281   .     A
C1010  C1012   1.395   .     A
C1010  H1031   1.085   .     S
C1011  C1025   1.406   .     A
C1011  C1019   1.410   .     S
C1011  C1026   1.395   .     A
C1012  C1024   1.406   .     A
C1013  H1032   1.082   .     S
C1013  N1038   1.367   .     A
C1014  H1033   1.082   .     S
C1014  N1037   1.367   .     A
C1014  C260    1.418   1_556 S
C1015  N1037   1.367   .     A
C1015  H1036   1.082   .     S
C1015  C257    1.418   1_556 S
C1016  N1038   1.367   .     A
C1016  H1028   1.082   .     S
C1017  C1024   1.489   .     S
C1017  H1034   1.084   .     S
C1017  O1048   1.221   .     D
C1018  H1035   1.084   .     S
C1018  C1025   1.489   .     S
C1018  O1040   1.221   .     D
C1019  O1043   1.281   .     A
C1019  O1041   1.281   .     A
C1020  O1044   1.278   .     A
C1020  C1022   1.403   .     S
C1020  O1046   1.281   .     A
C1021  O1045   1.278   .     A
C1021  C1023   1.403   .     S
C1021  O1047   1.281   .     A
C1022  C1107   1.330   1_455 S
C1022  H1111   1.088   1_455 S
C1023  C1064   1.330   .     S
C1023  H1071   1.088   .     S
C1025  C758    1.380   1_565 S
C1026  H1030   1.085   .     S
C1026  C772    1.380   1_565 S
H1027  C1064   1.088   .     S
H1029  C1107   1.088   1_455 S
N1037  Zn1049  2.012   .     S
N1038  Zn1050  2.012   .     S
O1039  Zn1049  1.987   .     S
O1041  Zn1050  1.987   .     S
O1042  Zn1050  1.985   .     S
O1043  Zn1049  1.985   .     S
O1044  Zn1049  1.970   .     S
O1045  Zn1050  1.970   .     S
O1046  Zn1050  1.981   .     S
O1047  Zn1049  1.981   .     S
C1051  O1081   1.281   .     A
C1051  C1054   1.410   .     S
C1051  O1084   1.281   .     A
C1052  C1054   1.395   .     A
C1052  H1073   1.085   .     S
C1053  C1067   1.406   .     A
C1053  C1061   1.410   .     S
C1053  C1068   1.395   .     A
C1054  C1066   1.406   .     A
C1055  H1074   1.082   .     S
C1055  N1080   1.367   .     A
C1056  H1075   1.082   .     S
C1056  N1079   1.367   .     A
C1056  C302    1.418   1_556 S
C1057  N1079   1.367   .     A
C1057  H1078   1.082   .     S
C1057  C299    1.418   1_556 S
C1058  N1080   1.367   .     A
C1058  H1070   1.082   .     S
C1059  C1066   1.489   .     S
C1059  H1076   1.084   .     S
C1059  O1090   1.221   .     D
C1060  H1077   1.084   .     S
C1060  C1067   1.489   .     S
C1060  O1082   1.221   .     D
C1061  O1085   1.281   .     A
C1061  O1083   1.281   .     A
C1062  O1086   1.278   .     A
C1062  C1064   1.403   .     S
C1062  O1088   1.281   .     A
C1063  O1087   1.278   .     A
C1063  C1065   1.403   .     S
C1063  O1089   1.281   .     A
C1065  C1106   1.330   .     S
C1065  H1113   1.088   .     S
C1067  C800    1.380   1_565 S
C1068  H1072   1.085   .     S
C1068  C814    1.380   1_565 S
H1069  C1106   1.088   .     S
N1079  Zn1091  2.012   .     S
N1080  Zn1092  2.012   .     S
O1081  Zn1091  1.987   .     S
O1083  Zn1092  1.987   .     S
O1084  Zn1092  1.985   .     S
O1085  Zn1091  1.985   .     S
O1086  Zn1091  1.970   .     S
O1087  Zn1092  1.970   .     S
O1088  Zn1092  1.981   .     S
O1089  Zn1091  1.981   .     S
C1093  O1123   1.281   .     A
C1093  C1096   1.410   .     S
C1093  O1126   1.281   .     A
C1094  C1096   1.395   .     A
C1094  H1115   1.085   .     S
C1095  C1109   1.406   .     A
C1095  C1103   1.410   .     S
C1095  C1110   1.395   .     A
C1096  C1108   1.406   .     A
C1097  H1116   1.082   .     S
C1097  N1122   1.367   .     A
C1098  H1117   1.082   .     S
C1098  N1121   1.367   .     A
C1098  C344    1.418   1_556 S
C1099  N1121   1.367   .     A
C1099  H1120   1.082   .     S
C1099  C341    1.418   1_556 S
C1100  N1122   1.367   .     A
C1100  H1112   1.082   .     S
C1101  C1108   1.489   .     S
C1101  H1118   1.084   .     S
C1101  O1132   1.221   .     D
C1102  H1119   1.084   .     S
C1102  C1109   1.489   .     S
C1102  O1124   1.221   .     D
C1103  O1127   1.281   .     A
C1103  O1125   1.281   .     A
C1104  O1128   1.278   .     A
C1104  C1106   1.403   .     S
C1104  O1130   1.281   .     A
C1105  O1129   1.278   .     A
C1105  C1107   1.403   .     S
C1105  O1131   1.281   .     A
C1107  C1022   1.330   1_655 S
C1107  H1029   1.088   1_655 S
C1109  C842    1.380   1_565 S
C1110  H1114   1.085   .     S
C1110  C856    1.380   1_565 S
H1111  C1022   1.088   1_655 S
N1121  Zn1133  2.012   .     S
N1122  Zn1134  2.012   .     S
O1123  Zn1133  1.987   .     S
O1125  Zn1134  1.987   .     S
O1126  Zn1134  1.985   .     S
O1127  Zn1133  1.985   .     S
O1128  Zn1133  1.970   .     S
O1129  Zn1134  1.970   .     S
O1130  Zn1134  1.981   .     S
O1131  Zn1133  1.981   .     S
