data_str_m3_o2_o10_pcu_sym.113
_audit_creation_date              2020-01-03
_audit_creation_method            'Materials Studio'
_symmetry_space_group_name_H-M    'P1'
_symmetry_Int_Tables_number       1
_symmetry_cell_setting            triclinic
loop_
_symmetry_equiv_pos_as_xyz
  x,y,z
_cell_length_a                    25.7675
_cell_length_b                    29.9902
_cell_length_c                    28.4389
_cell_angle_alpha                 90.7508
_cell_angle_beta                  99.0221
_cell_angle_gamma                 90.4770
loop_
_atom_site_label
_atom_site_type_symbol
_atom_site_fract_x
_atom_site_fract_y
_atom_site_fract_z
_atom_site_U_iso_or_equiv
_atom_site_adp_type
_atom_site_occupancy
O1     O     0.16667   0.18453   0.28974   0.00000  Uiso   1.00
O2     O     0.16666   0.31546   0.21026   0.00000  Uiso   1.00
O3     O     0.16667   0.18453   0.21026   0.00000  Uiso   1.00
O4     O     0.16666   0.31547   0.28974   0.00000  Uiso   1.00
C5     C     0.16679   0.16401   0.24983   0.00000  Uiso   1.00
C6     C     0.16704   0.33618   0.25030   0.00000  Uiso   1.00
O7     O     0.09058   0.25000   0.28044   0.00000  Uiso   1.00
O8     O     0.24275   0.25000   0.21955   0.00000  Uiso   1.00
O9     O     0.09058   0.24999   0.20096   0.00000  Uiso   1.00
O10    O     0.24275   0.25000   0.29903   0.00000  Uiso   1.00
C11    C     0.06700   0.24997   0.23748   0.00000  Uiso   1.00
C12    C     0.26633   0.25005   0.26253   0.00000  Uiso   1.00
Zn13   Zn    0.16667   0.25000   0.30307   0.00000  Uiso   1.00
Zn14   Zn    0.16667   0.24999   0.19693   0.00000  Uiso   1.00
C15    C     0.01188   0.24995   0.23081   0.00000  Uiso   1.00
C16    C     0.32146   0.25010   0.26922   0.00000  Uiso   1.00
C17    C     0.19954   0.04873   0.28836   0.00000  Uiso   1.00
C18    C     0.17848   0.45293   0.21037   0.00000  Uiso   1.00
C19    C     0.19838   0.09477   0.28793   0.00000  Uiso   1.00
C20    C     0.17729   0.40693   0.21006   0.00000  Uiso   1.00
H21    H     0.22149   0.11356   0.31678   0.00000  Uiso   1.00
H22    H     0.18334   0.38922   0.17795   0.00000  Uiso   1.00
C23    C     0.16804   0.11629   0.24997   0.00000  Uiso   1.00
C24    C     0.16854   0.38428   0.25092   0.00000  Uiso   1.00
C25    C     0.13831   0.09209   0.21283   0.00000  Uiso   1.00
C26    C     0.16151   0.40787   0.29226   0.00000  Uiso   1.00
C27    C     0.13928   0.04608   0.21329   0.00000  Uiso   1.00
C28    C     0.16254   0.45394   0.29246   0.00000  Uiso   1.00
C29    C     0.17003   0.02444   0.25099   0.00000  Uiso   1.00
C30    C     0.17074   0.47639   0.25143   0.00000  Uiso   1.00
C31    C     0.14387   0.21593   0.04797   0.00000  Uiso   1.00
C32    C     0.20823   0.26906   0.45394   0.00000  Uiso   1.00
C33    C     0.14381   0.21567   0.09746   0.00000  Uiso   1.00
C34    C     0.20798   0.26865   0.40438   0.00000  Uiso   1.00
N35    N     0.16667   0.24999   0.12623   0.00000  Uiso   1.00
N36    N     0.16667   0.25001   0.37376   0.00000  Uiso   1.00
C37    C     0.18957   0.28472   0.10630   0.00000  Uiso   1.00
C38    C     0.12514   0.23208   0.39167   0.00000  Uiso   1.00
C39    C     0.18971   0.28616   0.05671   0.00000  Uiso   1.00
C40    C     0.12384   0.23256   0.44105   0.00000  Uiso   1.00
C41    C     0.16632   0.25142   0.02649   0.00000  Uiso   1.00
C42    C     0.16587   0.25129   0.47326   0.00000  Uiso   1.00
H43    H     0.32434   0.24980   0.19446   0.00000  Uiso   1.00
H44    H     0.00898   0.25027   0.30558   0.00000  Uiso   1.00
H45    H     0.22364   0.03209   0.31745   0.00000  Uiso   1.00
H46    H     0.18546   0.47024   0.17871   0.00000  Uiso   1.00
H47    H     0.11341   0.10869   0.18438   0.00000  Uiso   1.00
H48    H     0.15463   0.39083   0.32410   0.00000  Uiso   1.00
H49    H     0.11553   0.02736   0.18477   0.00000  Uiso   1.00
H50    H     0.15604   0.47206   0.32420   0.00000  Uiso   1.00
H51    H     0.12626   0.18804   0.02647   0.00000  Uiso   1.00
H52    H     0.24179   0.28328   0.47713   0.00000  Uiso   1.00
N53    N     0.11926   0.17880   0.11678   0.00000  Uiso   1.00
O54    O     0.07724   0.18532   0.13581   0.00000  Uiso   1.00
O55    O     0.12958   0.13851   0.10370   0.00000  Uiso   1.00
N56    N     0.25152   0.28846   0.38668   0.00000  Uiso   1.00
O57    O     0.29895   0.27551   0.40295   0.00000  Uiso   1.00
O58    O     0.24519   0.32578   0.36383   0.00000  Uiso   1.00
H59    H     0.20772   0.31170   0.12881   0.00000  Uiso   1.00
H60    H     0.09255   0.21750   0.36764   0.00000  Uiso   1.00
H61    H     0.20746   0.31464   0.04221   0.00000  Uiso   1.00
H62    H     0.08974   0.21875   0.45373   0.00000  Uiso   1.00
O63    O     0.50000   0.18453   0.28974   0.00000  Uiso   1.00
O64    O     0.50000   0.31546   0.21026   0.00000  Uiso   1.00
O65    O     0.50000   0.18453   0.21026   0.00000  Uiso   1.00
O66    O     0.50000   0.31547   0.28974   0.00000  Uiso   1.00
C67    C     0.50012   0.16401   0.24983   0.00000  Uiso   1.00
C68    C     0.50037   0.33618   0.25030   0.00000  Uiso   1.00
O69    O     0.42392   0.25000   0.28044   0.00000  Uiso   1.00
O70    O     0.57608   0.25000   0.21955   0.00000  Uiso   1.00
O71    O     0.42392   0.24999   0.20096   0.00000  Uiso   1.00
O72    O     0.57608   0.25000   0.29903   0.00000  Uiso   1.00
C73    C     0.40034   0.24997   0.23748   0.00000  Uiso   1.00
C74    C     0.59966   0.25005   0.26253   0.00000  Uiso   1.00
Zn75   Zn    0.50000   0.25000   0.30307   0.00000  Uiso   1.00
Zn76   Zn    0.50000   0.24999   0.19693   0.00000  Uiso   1.00
C77    C     0.34521   0.24995   0.23081   0.00000  Uiso   1.00
C78    C     0.65479   0.25010   0.26922   0.00000  Uiso   1.00
C79    C     0.53287   0.04873   0.28836   0.00000  Uiso   1.00
C80    C     0.51181   0.45293   0.21037   0.00000  Uiso   1.00
C81    C     0.53171   0.09477   0.28793   0.00000  Uiso   1.00
C82    C     0.51063   0.40693   0.21006   0.00000  Uiso   1.00
H83    H     0.55483   0.11356   0.31678   0.00000  Uiso   1.00
H84    H     0.51667   0.38922   0.17795   0.00000  Uiso   1.00
C85    C     0.50137   0.11629   0.24997   0.00000  Uiso   1.00
C86    C     0.50187   0.38428   0.25092   0.00000  Uiso   1.00
C87    C     0.47165   0.09209   0.21283   0.00000  Uiso   1.00
C88    C     0.49484   0.40787   0.29226   0.00000  Uiso   1.00
C89    C     0.47262   0.04608   0.21329   0.00000  Uiso   1.00
C90    C     0.49588   0.45394   0.29246   0.00000  Uiso   1.00
C91    C     0.50336   0.02444   0.25099   0.00000  Uiso   1.00
C92    C     0.50408   0.47639   0.25143   0.00000  Uiso   1.00
C93    C     0.47720   0.21593   0.04797   0.00000  Uiso   1.00
C94    C     0.54156   0.26906   0.45394   0.00000  Uiso   1.00
C95    C     0.47714   0.21567   0.09746   0.00000  Uiso   1.00
C96    C     0.54131   0.26865   0.40438   0.00000  Uiso   1.00
N97    N     0.50000   0.24999   0.12623   0.00000  Uiso   1.00
N98    N     0.50000   0.25001   0.37376   0.00000  Uiso   1.00
C99    C     0.52290   0.28472   0.10630   0.00000  Uiso   1.00
C100   C     0.45847   0.23208   0.39167   0.00000  Uiso   1.00
C101   C     0.52304   0.28616   0.05671   0.00000  Uiso   1.00
C102   C     0.45717   0.23256   0.44105   0.00000  Uiso   1.00
C103   C     0.49965   0.25142   0.02649   0.00000  Uiso   1.00
C104   C     0.49920   0.25129   0.47326   0.00000  Uiso   1.00
H105   H     0.65767   0.24980   0.19446   0.00000  Uiso   1.00
H106   H     0.34232   0.25027   0.30558   0.00000  Uiso   1.00
H107   H     0.55697   0.03209   0.31745   0.00000  Uiso   1.00
H108   H     0.51879   0.47024   0.17871   0.00000  Uiso   1.00
H109   H     0.44674   0.10869   0.18438   0.00000  Uiso   1.00
H110   H     0.48797   0.39083   0.32410   0.00000  Uiso   1.00
H111   H     0.44886   0.02736   0.18477   0.00000  Uiso   1.00
H112   H     0.48937   0.47206   0.32420   0.00000  Uiso   1.00
H113   H     0.45959   0.18804   0.02647   0.00000  Uiso   1.00
H114   H     0.57513   0.28328   0.47713   0.00000  Uiso   1.00
N115   N     0.45259   0.17880   0.11678   0.00000  Uiso   1.00
O116   O     0.41057   0.18532   0.13581   0.00000  Uiso   1.00
O117   O     0.46292   0.13851   0.10370   0.00000  Uiso   1.00
N118   N     0.58485   0.28846   0.38668   0.00000  Uiso   1.00
O119   O     0.63228   0.27551   0.40295   0.00000  Uiso   1.00
O120   O     0.57853   0.32578   0.36383   0.00000  Uiso   1.00
H121   H     0.54106   0.31170   0.12881   0.00000  Uiso   1.00
H122   H     0.42588   0.21750   0.36764   0.00000  Uiso   1.00
H123   H     0.54079   0.31464   0.04221   0.00000  Uiso   1.00
H124   H     0.42307   0.21875   0.45373   0.00000  Uiso   1.00
O125   O     0.83334   0.18453   0.28974   0.00000  Uiso   1.00
O126   O     0.83333   0.31546   0.21026   0.00000  Uiso   1.00
O127   O     0.83334   0.18453   0.21026   0.00000  Uiso   1.00
O128   O     0.83333   0.31547   0.28974   0.00000  Uiso   1.00
C129   C     0.83346   0.16401   0.24983   0.00000  Uiso   1.00
C130   C     0.83370   0.33618   0.25030   0.00000  Uiso   1.00
O131   O     0.75725   0.25000   0.28044   0.00000  Uiso   1.00
O132   O     0.90942   0.25000   0.21955   0.00000  Uiso   1.00
O133   O     0.75725   0.24999   0.20096   0.00000  Uiso   1.00
O134   O     0.90942   0.25000   0.29903   0.00000  Uiso   1.00
C135   C     0.73367   0.24997   0.23748   0.00000  Uiso   1.00
C136   C     0.93300   0.25005   0.26253   0.00000  Uiso   1.00
Zn137  Zn    0.83333   0.25000   0.30307   0.00000  Uiso   1.00
Zn138  Zn    0.83333   0.24999   0.19693   0.00000  Uiso   1.00
C139   C     0.67854   0.24995   0.23081   0.00000  Uiso   1.00
C140   C     0.98812   0.25010   0.26922   0.00000  Uiso   1.00
C141   C     0.86621   0.04873   0.28836   0.00000  Uiso   1.00
C142   C     0.84514   0.45293   0.21037   0.00000  Uiso   1.00
C143   C     0.86505   0.09477   0.28793   0.00000  Uiso   1.00
C144   C     0.84396   0.40693   0.21006   0.00000  Uiso   1.00
H145   H     0.88816   0.11356   0.31678   0.00000  Uiso   1.00
H146   H     0.85001   0.38922   0.17795   0.00000  Uiso   1.00
C147   C     0.83471   0.11629   0.24997   0.00000  Uiso   1.00
C148   C     0.83521   0.38428   0.25092   0.00000  Uiso   1.00
C149   C     0.80498   0.09209   0.21283   0.00000  Uiso   1.00
C150   C     0.82818   0.40787   0.29226   0.00000  Uiso   1.00
C151   C     0.80595   0.04608   0.21329   0.00000  Uiso   1.00
C152   C     0.82921   0.45394   0.29246   0.00000  Uiso   1.00
C153   C     0.83670   0.02444   0.25099   0.00000  Uiso   1.00
C154   C     0.83741   0.47639   0.25143   0.00000  Uiso   1.00
C155   C     0.81054   0.21593   0.04797   0.00000  Uiso   1.00
C156   C     0.87490   0.26906   0.45394   0.00000  Uiso   1.00
C157   C     0.81047   0.21567   0.09746   0.00000  Uiso   1.00
C158   C     0.87464   0.26865   0.40438   0.00000  Uiso   1.00
N159   N     0.83333   0.24999   0.12623   0.00000  Uiso   1.00
N160   N     0.83333   0.25001   0.37376   0.00000  Uiso   1.00
C161   C     0.85624   0.28472   0.10630   0.00000  Uiso   1.00
C162   C     0.79180   0.23208   0.39167   0.00000  Uiso   1.00
C163   C     0.85637   0.28616   0.05671   0.00000  Uiso   1.00
C164   C     0.79051   0.23256   0.44105   0.00000  Uiso   1.00
C165   C     0.83298   0.25142   0.02649   0.00000  Uiso   1.00
C166   C     0.83253   0.25129   0.47326   0.00000  Uiso   1.00
H167   H     0.99101   0.24980   0.19446   0.00000  Uiso   1.00
H168   H     0.67565   0.25027   0.30558   0.00000  Uiso   1.00
H169   H     0.89031   0.03209   0.31745   0.00000  Uiso   1.00
H170   H     0.85213   0.47024   0.17871   0.00000  Uiso   1.00
H171   H     0.78007   0.10869   0.18438   0.00000  Uiso   1.00
H172   H     0.82130   0.39083   0.32410   0.00000  Uiso   1.00
H173   H     0.78220   0.02736   0.18477   0.00000  Uiso   1.00
H174   H     0.82271   0.47206   0.32420   0.00000  Uiso   1.00
H175   H     0.79293   0.18804   0.02647   0.00000  Uiso   1.00
H176   H     0.90846   0.28328   0.47713   0.00000  Uiso   1.00
N177   N     0.78592   0.17880   0.11678   0.00000  Uiso   1.00
O178   O     0.74390   0.18532   0.13581   0.00000  Uiso   1.00
O179   O     0.79625   0.13851   0.10370   0.00000  Uiso   1.00
N180   N     0.91819   0.28846   0.38668   0.00000  Uiso   1.00
O181   O     0.96562   0.27551   0.40295   0.00000  Uiso   1.00
O182   O     0.91186   0.32578   0.36383   0.00000  Uiso   1.00
H183   H     0.87439   0.31170   0.12881   0.00000  Uiso   1.00
H184   H     0.75922   0.21750   0.36764   0.00000  Uiso   1.00
H185   H     0.87413   0.31464   0.04221   0.00000  Uiso   1.00
H186   H     0.75640   0.21875   0.45373   0.00000  Uiso   1.00
O187   O     0.16667   0.68453   0.28974   0.00000  Uiso   1.00
O188   O     0.16666   0.81546   0.21026   0.00000  Uiso   1.00
O189   O     0.16667   0.68453   0.21026   0.00000  Uiso   1.00
O190   O     0.16666   0.81547   0.28974   0.00000  Uiso   1.00
C191   C     0.16679   0.66401   0.24983   0.00000  Uiso   1.00
C192   C     0.16704   0.83618   0.25030   0.00000  Uiso   1.00
O193   O     0.09058   0.75000   0.28044   0.00000  Uiso   1.00
O194   O     0.24275   0.75000   0.21955   0.00000  Uiso   1.00
O195   O     0.09058   0.74999   0.20096   0.00000  Uiso   1.00
O196   O     0.24275   0.75000   0.29903   0.00000  Uiso   1.00
C197   C     0.06700   0.74997   0.23748   0.00000  Uiso   1.00
C198   C     0.26633   0.75005   0.26253   0.00000  Uiso   1.00
Zn199  Zn    0.16667   0.75000   0.30307   0.00000  Uiso   1.00
Zn200  Zn    0.16667   0.74999   0.19693   0.00000  Uiso   1.00
C201   C     0.01188   0.74995   0.23081   0.00000  Uiso   1.00
C202   C     0.32146   0.75010   0.26922   0.00000  Uiso   1.00
C203   C     0.19954   0.54873   0.28836   0.00000  Uiso   1.00
C204   C     0.17848   0.95293   0.21037   0.00000  Uiso   1.00
C205   C     0.19838   0.59477   0.28793   0.00000  Uiso   1.00
C206   C     0.17729   0.90693   0.21006   0.00000  Uiso   1.00
H207   H     0.22149   0.61356   0.31678   0.00000  Uiso   1.00
H208   H     0.18334   0.88922   0.17795   0.00000  Uiso   1.00
C209   C     0.16804   0.61629   0.24997   0.00000  Uiso   1.00
C210   C     0.16854   0.88428   0.25092   0.00000  Uiso   1.00
C211   C     0.13831   0.59209   0.21283   0.00000  Uiso   1.00
C212   C     0.16151   0.90787   0.29226   0.00000  Uiso   1.00
C213   C     0.13928   0.54608   0.21329   0.00000  Uiso   1.00
C214   C     0.16254   0.95394   0.29246   0.00000  Uiso   1.00
C215   C     0.17003   0.52444   0.25099   0.00000  Uiso   1.00
C216   C     0.17074   0.97639   0.25143   0.00000  Uiso   1.00
C217   C     0.14387   0.71593   0.04797   0.00000  Uiso   1.00
C218   C     0.20823   0.76906   0.45394   0.00000  Uiso   1.00
C219   C     0.14381   0.71567   0.09746   0.00000  Uiso   1.00
C220   C     0.20798   0.76865   0.40438   0.00000  Uiso   1.00
N221   N     0.16667   0.74999   0.12623   0.00000  Uiso   1.00
N222   N     0.16667   0.75001   0.37376   0.00000  Uiso   1.00
C223   C     0.18957   0.78472   0.10630   0.00000  Uiso   1.00
C224   C     0.12514   0.73208   0.39167   0.00000  Uiso   1.00
C225   C     0.18971   0.78616   0.05671   0.00000  Uiso   1.00
C226   C     0.12384   0.73256   0.44105   0.00000  Uiso   1.00
C227   C     0.16632   0.75142   0.02649   0.00000  Uiso   1.00
C228   C     0.16587   0.75129   0.47326   0.00000  Uiso   1.00
H229   H     0.32434   0.74980   0.19446   0.00000  Uiso   1.00
H230   H     0.00898   0.75027   0.30558   0.00000  Uiso   1.00
H231   H     0.22364   0.53209   0.31745   0.00000  Uiso   1.00
H232   H     0.18546   0.97024   0.17871   0.00000  Uiso   1.00
H233   H     0.11341   0.60869   0.18438   0.00000  Uiso   1.00
H234   H     0.15463   0.89083   0.32410   0.00000  Uiso   1.00
H235   H     0.11553   0.52736   0.18477   0.00000  Uiso   1.00
H236   H     0.15604   0.97206   0.32420   0.00000  Uiso   1.00
H237   H     0.12626   0.68804   0.02647   0.00000  Uiso   1.00
H238   H     0.24179   0.78328   0.47713   0.00000  Uiso   1.00
N239   N     0.11926   0.67880   0.11678   0.00000  Uiso   1.00
O240   O     0.07724   0.68532   0.13581   0.00000  Uiso   1.00
O241   O     0.12958   0.63851   0.10370   0.00000  Uiso   1.00
N242   N     0.25152   0.78846   0.38668   0.00000  Uiso   1.00
O243   O     0.29895   0.77551   0.40295   0.00000  Uiso   1.00
O244   O     0.24519   0.82578   0.36383   0.00000  Uiso   1.00
H245   H     0.20772   0.81170   0.12881   0.00000  Uiso   1.00
H246   H     0.09255   0.71750   0.36764   0.00000  Uiso   1.00
H247   H     0.20746   0.81464   0.04221   0.00000  Uiso   1.00
H248   H     0.08974   0.71875   0.45373   0.00000  Uiso   1.00
O249   O     0.50000   0.68453   0.28974   0.00000  Uiso   1.00
O250   O     0.50000   0.81546   0.21026   0.00000  Uiso   1.00
O251   O     0.50000   0.68453   0.21026   0.00000  Uiso   1.00
O252   O     0.50000   0.81547   0.28974   0.00000  Uiso   1.00
C253   C     0.50012   0.66401   0.24983   0.00000  Uiso   1.00
C254   C     0.50037   0.83618   0.25030   0.00000  Uiso   1.00
O255   O     0.42392   0.75000   0.28044   0.00000  Uiso   1.00
O256   O     0.57608   0.75000   0.21955   0.00000  Uiso   1.00
O257   O     0.42392   0.74999   0.20096   0.00000  Uiso   1.00
O258   O     0.57608   0.75000   0.29903   0.00000  Uiso   1.00
C259   C     0.40034   0.74997   0.23748   0.00000  Uiso   1.00
C260   C     0.59966   0.75005   0.26253   0.00000  Uiso   1.00
Zn261  Zn    0.50000   0.75000   0.30307   0.00000  Uiso   1.00
Zn262  Zn    0.50000   0.74999   0.19693   0.00000  Uiso   1.00
C263   C     0.34521   0.74995   0.23081   0.00000  Uiso   1.00
C264   C     0.65479   0.75010   0.26922   0.00000  Uiso   1.00
C265   C     0.53287   0.54873   0.28836   0.00000  Uiso   1.00
C266   C     0.51181   0.95293   0.21037   0.00000  Uiso   1.00
C267   C     0.53171   0.59477   0.28793   0.00000  Uiso   1.00
C268   C     0.51063   0.90693   0.21006   0.00000  Uiso   1.00
H269   H     0.55483   0.61356   0.31678   0.00000  Uiso   1.00
H270   H     0.51667   0.88922   0.17795   0.00000  Uiso   1.00
C271   C     0.50137   0.61629   0.24997   0.00000  Uiso   1.00
C272   C     0.50187   0.88428   0.25092   0.00000  Uiso   1.00
C273   C     0.47165   0.59209   0.21283   0.00000  Uiso   1.00
C274   C     0.49484   0.90787   0.29226   0.00000  Uiso   1.00
C275   C     0.47262   0.54608   0.21329   0.00000  Uiso   1.00
C276   C     0.49588   0.95394   0.29246   0.00000  Uiso   1.00
C277   C     0.50336   0.52444   0.25099   0.00000  Uiso   1.00
C278   C     0.50408   0.97639   0.25143   0.00000  Uiso   1.00
C279   C     0.47720   0.71593   0.04797   0.00000  Uiso   1.00
C280   C     0.54156   0.76906   0.45394   0.00000  Uiso   1.00
C281   C     0.47714   0.71567   0.09746   0.00000  Uiso   1.00
C282   C     0.54131   0.76865   0.40438   0.00000  Uiso   1.00
N283   N     0.50000   0.74999   0.12623   0.00000  Uiso   1.00
N284   N     0.50000   0.75001   0.37376   0.00000  Uiso   1.00
C285   C     0.52290   0.78472   0.10630   0.00000  Uiso   1.00
C286   C     0.45847   0.73208   0.39167   0.00000  Uiso   1.00
C287   C     0.52304   0.78616   0.05671   0.00000  Uiso   1.00
C288   C     0.45717   0.73256   0.44105   0.00000  Uiso   1.00
C289   C     0.49965   0.75142   0.02649   0.00000  Uiso   1.00
C290   C     0.49920   0.75129   0.47326   0.00000  Uiso   1.00
H291   H     0.65767   0.74980   0.19446   0.00000  Uiso   1.00
H292   H     0.34232   0.75027   0.30558   0.00000  Uiso   1.00
H293   H     0.55697   0.53209   0.31745   0.00000  Uiso   1.00
H294   H     0.51879   0.97024   0.17871   0.00000  Uiso   1.00
H295   H     0.44674   0.60869   0.18438   0.00000  Uiso   1.00
H296   H     0.48797   0.89083   0.32410   0.00000  Uiso   1.00
H297   H     0.44886   0.52736   0.18477   0.00000  Uiso   1.00
H298   H     0.48937   0.97206   0.32420   0.00000  Uiso   1.00
H299   H     0.45959   0.68804   0.02647   0.00000  Uiso   1.00
H300   H     0.57513   0.78328   0.47713   0.00000  Uiso   1.00
N301   N     0.45259   0.67880   0.11678   0.00000  Uiso   1.00
O302   O     0.41057   0.68532   0.13581   0.00000  Uiso   1.00
O303   O     0.46292   0.63851   0.10370   0.00000  Uiso   1.00
N304   N     0.58485   0.78846   0.38668   0.00000  Uiso   1.00
O305   O     0.63228   0.77551   0.40295   0.00000  Uiso   1.00
O306   O     0.57853   0.82578   0.36383   0.00000  Uiso   1.00
H307   H     0.54106   0.81170   0.12881   0.00000  Uiso   1.00
H308   H     0.42588   0.71750   0.36764   0.00000  Uiso   1.00
H309   H     0.54079   0.81464   0.04221   0.00000  Uiso   1.00
H310   H     0.42307   0.71875   0.45373   0.00000  Uiso   1.00
O311   O     0.83334   0.68453   0.28974   0.00000  Uiso   1.00
O312   O     0.83333   0.81546   0.21026   0.00000  Uiso   1.00
O313   O     0.83334   0.68453   0.21026   0.00000  Uiso   1.00
O314   O     0.83333   0.81547   0.28974   0.00000  Uiso   1.00
C315   C     0.83346   0.66401   0.24983   0.00000  Uiso   1.00
C316   C     0.83370   0.83618   0.25030   0.00000  Uiso   1.00
O317   O     0.75725   0.75000   0.28044   0.00000  Uiso   1.00
O318   O     0.90942   0.75000   0.21955   0.00000  Uiso   1.00
O319   O     0.75725   0.74999   0.20096   0.00000  Uiso   1.00
O320   O     0.90942   0.75000   0.29903   0.00000  Uiso   1.00
C321   C     0.73367   0.74997   0.23748   0.00000  Uiso   1.00
C322   C     0.93300   0.75005   0.26253   0.00000  Uiso   1.00
Zn323  Zn    0.83333   0.75000   0.30307   0.00000  Uiso   1.00
Zn324  Zn    0.83333   0.74999   0.19693   0.00000  Uiso   1.00
C325   C     0.67854   0.74995   0.23081   0.00000  Uiso   1.00
C326   C     0.98812   0.75010   0.26922   0.00000  Uiso   1.00
C327   C     0.86621   0.54873   0.28836   0.00000  Uiso   1.00
C328   C     0.84514   0.95293   0.21037   0.00000  Uiso   1.00
C329   C     0.86505   0.59477   0.28793   0.00000  Uiso   1.00
C330   C     0.84396   0.90693   0.21006   0.00000  Uiso   1.00
H331   H     0.88816   0.61356   0.31678   0.00000  Uiso   1.00
H332   H     0.85001   0.88922   0.17795   0.00000  Uiso   1.00
C333   C     0.83471   0.61629   0.24997   0.00000  Uiso   1.00
C334   C     0.83521   0.88428   0.25092   0.00000  Uiso   1.00
C335   C     0.80498   0.59209   0.21283   0.00000  Uiso   1.00
C336   C     0.82818   0.90787   0.29226   0.00000  Uiso   1.00
C337   C     0.80595   0.54608   0.21329   0.00000  Uiso   1.00
C338   C     0.82921   0.95394   0.29246   0.00000  Uiso   1.00
C339   C     0.83670   0.52444   0.25099   0.00000  Uiso   1.00
C340   C     0.83741   0.97639   0.25143   0.00000  Uiso   1.00
C341   C     0.81054   0.71593   0.04797   0.00000  Uiso   1.00
C342   C     0.87490   0.76906   0.45394   0.00000  Uiso   1.00
C343   C     0.81047   0.71567   0.09746   0.00000  Uiso   1.00
C344   C     0.87464   0.76865   0.40438   0.00000  Uiso   1.00
N345   N     0.83333   0.74999   0.12623   0.00000  Uiso   1.00
N346   N     0.83333   0.75001   0.37376   0.00000  Uiso   1.00
C347   C     0.85624   0.78472   0.10630   0.00000  Uiso   1.00
C348   C     0.79180   0.73208   0.39167   0.00000  Uiso   1.00
C349   C     0.85637   0.78616   0.05671   0.00000  Uiso   1.00
C350   C     0.79051   0.73256   0.44105   0.00000  Uiso   1.00
C351   C     0.83298   0.75142   0.02649   0.00000  Uiso   1.00
C352   C     0.83253   0.75129   0.47326   0.00000  Uiso   1.00
H353   H     0.99101   0.74980   0.19446   0.00000  Uiso   1.00
H354   H     0.67565   0.75027   0.30558   0.00000  Uiso   1.00
H355   H     0.89031   0.53209   0.31745   0.00000  Uiso   1.00
H356   H     0.85213   0.97024   0.17871   0.00000  Uiso   1.00
H357   H     0.78007   0.60869   0.18438   0.00000  Uiso   1.00
H358   H     0.82130   0.89083   0.32410   0.00000  Uiso   1.00
H359   H     0.78220   0.52736   0.18477   0.00000  Uiso   1.00
H360   H     0.82271   0.97206   0.32420   0.00000  Uiso   1.00
H361   H     0.79293   0.68804   0.02647   0.00000  Uiso   1.00
H362   H     0.90846   0.78328   0.47713   0.00000  Uiso   1.00
N363   N     0.78592   0.67880   0.11678   0.00000  Uiso   1.00
O364   O     0.74390   0.68532   0.13581   0.00000  Uiso   1.00
O365   O     0.79625   0.63851   0.10370   0.00000  Uiso   1.00
N366   N     0.91819   0.78846   0.38668   0.00000  Uiso   1.00
O367   O     0.96562   0.77551   0.40295   0.00000  Uiso   1.00
O368   O     0.91186   0.82578   0.36383   0.00000  Uiso   1.00
H369   H     0.87439   0.81170   0.12881   0.00000  Uiso   1.00
H370   H     0.75922   0.71750   0.36764   0.00000  Uiso   1.00
H371   H     0.87413   0.81464   0.04221   0.00000  Uiso   1.00
H372   H     0.75640   0.71875   0.45373   0.00000  Uiso   1.00
O373   O     0.16667   0.18453   0.78974   0.00000  Uiso   1.00
O374   O     0.16666   0.31546   0.71026   0.00000  Uiso   1.00
O375   O     0.16667   0.18453   0.71026   0.00000  Uiso   1.00
O376   O     0.16666   0.31547   0.78974   0.00000  Uiso   1.00
C377   C     0.16679   0.16401   0.74983   0.00000  Uiso   1.00
C378   C     0.16704   0.33618   0.75030   0.00000  Uiso   1.00
O379   O     0.09058   0.25000   0.78044   0.00000  Uiso   1.00
O380   O     0.24275   0.25000   0.71955   0.00000  Uiso   1.00
O381   O     0.09058   0.24999   0.70096   0.00000  Uiso   1.00
O382   O     0.24275   0.25000   0.79903   0.00000  Uiso   1.00
C383   C     0.06700   0.24997   0.73748   0.00000  Uiso   1.00
C384   C     0.26633   0.25005   0.76253   0.00000  Uiso   1.00
Zn385  Zn    0.16667   0.25000   0.80307   0.00000  Uiso   1.00
Zn386  Zn    0.16667   0.24999   0.69693   0.00000  Uiso   1.00
C387   C     0.01188   0.24995   0.73081   0.00000  Uiso   1.00
C388   C     0.32146   0.25010   0.76922   0.00000  Uiso   1.00
C389   C     0.19954   0.04873   0.78836   0.00000  Uiso   1.00
C390   C     0.17848   0.45293   0.71037   0.00000  Uiso   1.00
C391   C     0.19838   0.09477   0.78793   0.00000  Uiso   1.00
C392   C     0.17729   0.40693   0.71006   0.00000  Uiso   1.00
H393   H     0.22149   0.11356   0.81678   0.00000  Uiso   1.00
H394   H     0.18334   0.38922   0.67795   0.00000  Uiso   1.00
C395   C     0.16804   0.11629   0.74997   0.00000  Uiso   1.00
C396   C     0.16854   0.38428   0.75092   0.00000  Uiso   1.00
C397   C     0.13831   0.09209   0.71283   0.00000  Uiso   1.00
C398   C     0.16151   0.40787   0.79226   0.00000  Uiso   1.00
C399   C     0.13928   0.04608   0.71329   0.00000  Uiso   1.00
C400   C     0.16254   0.45394   0.79246   0.00000  Uiso   1.00
C401   C     0.17003   0.02444   0.75099   0.00000  Uiso   1.00
C402   C     0.17074   0.47639   0.75143   0.00000  Uiso   1.00
C403   C     0.14387   0.21593   0.54797   0.00000  Uiso   1.00
C404   C     0.20823   0.26906   0.95394   0.00000  Uiso   1.00
C405   C     0.14381   0.21567   0.59746   0.00000  Uiso   1.00
C406   C     0.20798   0.26865   0.90438   0.00000  Uiso   1.00
N407   N     0.16667   0.24999   0.62623   0.00000  Uiso   1.00
N408   N     0.16667   0.25001   0.87376   0.00000  Uiso   1.00
C409   C     0.18957   0.28472   0.60630   0.00000  Uiso   1.00
C410   C     0.12514   0.23208   0.89167   0.00000  Uiso   1.00
C411   C     0.18971   0.28616   0.55671   0.00000  Uiso   1.00
C412   C     0.12384   0.23256   0.94105   0.00000  Uiso   1.00
C413   C     0.16632   0.25142   0.52649   0.00000  Uiso   1.00
C414   C     0.16587   0.25129   0.97326   0.00000  Uiso   1.00
H415   H     0.32434   0.24980   0.69446   0.00000  Uiso   1.00
H416   H     0.00898   0.25027   0.80558   0.00000  Uiso   1.00
H417   H     0.22364   0.03209   0.81745   0.00000  Uiso   1.00
H418   H     0.18546   0.47024   0.67871   0.00000  Uiso   1.00
H419   H     0.11341   0.10869   0.68438   0.00000  Uiso   1.00
H420   H     0.15463   0.39083   0.82410   0.00000  Uiso   1.00
H421   H     0.11553   0.02736   0.68477   0.00000  Uiso   1.00
H422   H     0.15604   0.47206   0.82420   0.00000  Uiso   1.00
H423   H     0.12626   0.18804   0.52647   0.00000  Uiso   1.00
H424   H     0.24179   0.28328   0.97713   0.00000  Uiso   1.00
N425   N     0.11926   0.17880   0.61678   0.00000  Uiso   1.00
O426   O     0.07724   0.18532   0.63581   0.00000  Uiso   1.00
O427   O     0.12958   0.13851   0.60370   0.00000  Uiso   1.00
N428   N     0.25152   0.28846   0.88668   0.00000  Uiso   1.00
O429   O     0.29895   0.27551   0.90295   0.00000  Uiso   1.00
O430   O     0.24519   0.32578   0.86383   0.00000  Uiso   1.00
H431   H     0.20772   0.31170   0.62881   0.00000  Uiso   1.00
H432   H     0.09255   0.21750   0.86764   0.00000  Uiso   1.00
H433   H     0.20746   0.31464   0.54221   0.00000  Uiso   1.00
H434   H     0.08974   0.21875   0.95373   0.00000  Uiso   1.00
O435   O     0.50000   0.18453   0.78974   0.00000  Uiso   1.00
O436   O     0.50000   0.31546   0.71026   0.00000  Uiso   1.00
O437   O     0.50000   0.18453   0.71026   0.00000  Uiso   1.00
O438   O     0.50000   0.31547   0.78974   0.00000  Uiso   1.00
C439   C     0.50012   0.16401   0.74983   0.00000  Uiso   1.00
C440   C     0.50037   0.33618   0.75030   0.00000  Uiso   1.00
O441   O     0.42392   0.25000   0.78044   0.00000  Uiso   1.00
O442   O     0.57608   0.25000   0.71955   0.00000  Uiso   1.00
O443   O     0.42392   0.24999   0.70096   0.00000  Uiso   1.00
O444   O     0.57608   0.25000   0.79903   0.00000  Uiso   1.00
C445   C     0.40034   0.24997   0.73748   0.00000  Uiso   1.00
C446   C     0.59966   0.25005   0.76253   0.00000  Uiso   1.00
Zn447  Zn    0.50000   0.25000   0.80307   0.00000  Uiso   1.00
Zn448  Zn    0.50000   0.24999   0.69693   0.00000  Uiso   1.00
C449   C     0.34521   0.24995   0.73081   0.00000  Uiso   1.00
C450   C     0.65479   0.25010   0.76922   0.00000  Uiso   1.00
C451   C     0.53287   0.04873   0.78836   0.00000  Uiso   1.00
C452   C     0.51181   0.45293   0.71037   0.00000  Uiso   1.00
C453   C     0.53171   0.09477   0.78793   0.00000  Uiso   1.00
C454   C     0.51063   0.40693   0.71006   0.00000  Uiso   1.00
H455   H     0.55483   0.11356   0.81678   0.00000  Uiso   1.00
H456   H     0.51667   0.38922   0.67795   0.00000  Uiso   1.00
C457   C     0.50137   0.11629   0.74997   0.00000  Uiso   1.00
C458   C     0.50187   0.38428   0.75092   0.00000  Uiso   1.00
C459   C     0.47165   0.09209   0.71283   0.00000  Uiso   1.00
C460   C     0.49484   0.40787   0.79226   0.00000  Uiso   1.00
C461   C     0.47262   0.04608   0.71329   0.00000  Uiso   1.00
C462   C     0.49588   0.45394   0.79246   0.00000  Uiso   1.00
C463   C     0.50336   0.02444   0.75099   0.00000  Uiso   1.00
C464   C     0.50408   0.47639   0.75143   0.00000  Uiso   1.00
C465   C     0.47720   0.21593   0.54797   0.00000  Uiso   1.00
C466   C     0.54156   0.26906   0.95394   0.00000  Uiso   1.00
C467   C     0.47714   0.21567   0.59746   0.00000  Uiso   1.00
C468   C     0.54131   0.26865   0.90438   0.00000  Uiso   1.00
N469   N     0.50000   0.24999   0.62623   0.00000  Uiso   1.00
N470   N     0.50000   0.25001   0.87376   0.00000  Uiso   1.00
C471   C     0.52290   0.28472   0.60630   0.00000  Uiso   1.00
C472   C     0.45847   0.23208   0.89167   0.00000  Uiso   1.00
C473   C     0.52304   0.28616   0.55671   0.00000  Uiso   1.00
C474   C     0.45717   0.23256   0.94105   0.00000  Uiso   1.00
C475   C     0.49965   0.25142   0.52649   0.00000  Uiso   1.00
C476   C     0.49920   0.25129   0.97326   0.00000  Uiso   1.00
H477   H     0.65767   0.24980   0.69446   0.00000  Uiso   1.00
H478   H     0.34232   0.25027   0.80558   0.00000  Uiso   1.00
H479   H     0.55697   0.03209   0.81745   0.00000  Uiso   1.00
H480   H     0.51879   0.47024   0.67871   0.00000  Uiso   1.00
H481   H     0.44674   0.10869   0.68438   0.00000  Uiso   1.00
H482   H     0.48797   0.39083   0.82410   0.00000  Uiso   1.00
H483   H     0.44886   0.02736   0.68477   0.00000  Uiso   1.00
H484   H     0.48937   0.47206   0.82420   0.00000  Uiso   1.00
H485   H     0.45959   0.18804   0.52647   0.00000  Uiso   1.00
H486   H     0.57513   0.28328   0.97713   0.00000  Uiso   1.00
N487   N     0.45259   0.17880   0.61678   0.00000  Uiso   1.00
O488   O     0.41057   0.18532   0.63581   0.00000  Uiso   1.00
O489   O     0.46292   0.13851   0.60370   0.00000  Uiso   1.00
N490   N     0.58485   0.28846   0.88668   0.00000  Uiso   1.00
O491   O     0.63228   0.27551   0.90295   0.00000  Uiso   1.00
O492   O     0.57853   0.32578   0.86383   0.00000  Uiso   1.00
H493   H     0.54106   0.31170   0.62881   0.00000  Uiso   1.00
H494   H     0.42588   0.21750   0.86764   0.00000  Uiso   1.00
H495   H     0.54079   0.31464   0.54221   0.00000  Uiso   1.00
H496   H     0.42307   0.21875   0.95373   0.00000  Uiso   1.00
O497   O     0.83334   0.18453   0.78974   0.00000  Uiso   1.00
O498   O     0.83333   0.31546   0.71026   0.00000  Uiso   1.00
O499   O     0.83334   0.18453   0.71026   0.00000  Uiso   1.00
O500   O     0.83333   0.31547   0.78974   0.00000  Uiso   1.00
C501   C     0.83346   0.16401   0.74983   0.00000  Uiso   1.00
C502   C     0.83370   0.33618   0.75030   0.00000  Uiso   1.00
O503   O     0.75725   0.25000   0.78044   0.00000  Uiso   1.00
O504   O     0.90942   0.25000   0.71955   0.00000  Uiso   1.00
O505   O     0.75725   0.24999   0.70096   0.00000  Uiso   1.00
O506   O     0.90942   0.25000   0.79903   0.00000  Uiso   1.00
C507   C     0.73367   0.24997   0.73748   0.00000  Uiso   1.00
C508   C     0.93300   0.25005   0.76253   0.00000  Uiso   1.00
Zn509  Zn    0.83333   0.25000   0.80307   0.00000  Uiso   1.00
Zn510  Zn    0.83333   0.24999   0.69693   0.00000  Uiso   1.00
C511   C     0.67854   0.24995   0.73081   0.00000  Uiso   1.00
C512   C     0.98812   0.25010   0.76922   0.00000  Uiso   1.00
C513   C     0.86621   0.04873   0.78836   0.00000  Uiso   1.00
C514   C     0.84514   0.45293   0.71037   0.00000  Uiso   1.00
C515   C     0.86505   0.09477   0.78793   0.00000  Uiso   1.00
C516   C     0.84396   0.40693   0.71006   0.00000  Uiso   1.00
H517   H     0.88816   0.11356   0.81678   0.00000  Uiso   1.00
H518   H     0.85001   0.38922   0.67795   0.00000  Uiso   1.00
C519   C     0.83471   0.11629   0.74997   0.00000  Uiso   1.00
C520   C     0.83521   0.38428   0.75092   0.00000  Uiso   1.00
C521   C     0.80498   0.09209   0.71283   0.00000  Uiso   1.00
C522   C     0.82818   0.40787   0.79226   0.00000  Uiso   1.00
C523   C     0.80595   0.04608   0.71329   0.00000  Uiso   1.00
C524   C     0.82921   0.45394   0.79246   0.00000  Uiso   1.00
C525   C     0.83670   0.02444   0.75099   0.00000  Uiso   1.00
C526   C     0.83741   0.47639   0.75143   0.00000  Uiso   1.00
C527   C     0.81054   0.21593   0.54797   0.00000  Uiso   1.00
C528   C     0.87490   0.26906   0.95394   0.00000  Uiso   1.00
C529   C     0.81047   0.21567   0.59746   0.00000  Uiso   1.00
C530   C     0.87464   0.26865   0.90438   0.00000  Uiso   1.00
N531   N     0.83333   0.24999   0.62623   0.00000  Uiso   1.00
N532   N     0.83333   0.25001   0.87376   0.00000  Uiso   1.00
C533   C     0.85624   0.28472   0.60630   0.00000  Uiso   1.00
C534   C     0.79180   0.23208   0.89167   0.00000  Uiso   1.00
C535   C     0.85637   0.28616   0.55671   0.00000  Uiso   1.00
C536   C     0.79051   0.23256   0.94105   0.00000  Uiso   1.00
C537   C     0.83298   0.25142   0.52649   0.00000  Uiso   1.00
C538   C     0.83253   0.25129   0.97326   0.00000  Uiso   1.00
H539   H     0.99101   0.24980   0.69446   0.00000  Uiso   1.00
H540   H     0.67565   0.25027   0.80558   0.00000  Uiso   1.00
H541   H     0.89031   0.03209   0.81745   0.00000  Uiso   1.00
H542   H     0.85213   0.47024   0.67871   0.00000  Uiso   1.00
H543   H     0.78007   0.10869   0.68438   0.00000  Uiso   1.00
H544   H     0.82130   0.39083   0.82410   0.00000  Uiso   1.00
H545   H     0.78220   0.02736   0.68477   0.00000  Uiso   1.00
H546   H     0.82271   0.47206   0.82420   0.00000  Uiso   1.00
H547   H     0.79293   0.18804   0.52647   0.00000  Uiso   1.00
H548   H     0.90846   0.28328   0.97713   0.00000  Uiso   1.00
N549   N     0.78592   0.17880   0.61678   0.00000  Uiso   1.00
O550   O     0.74390   0.18532   0.63581   0.00000  Uiso   1.00
O551   O     0.79625   0.13851   0.60370   0.00000  Uiso   1.00
N552   N     0.91819   0.28846   0.88668   0.00000  Uiso   1.00
O553   O     0.96562   0.27551   0.90295   0.00000  Uiso   1.00
O554   O     0.91186   0.32578   0.86383   0.00000  Uiso   1.00
H555   H     0.87439   0.31170   0.62881   0.00000  Uiso   1.00
H556   H     0.75922   0.21750   0.86764   0.00000  Uiso   1.00
H557   H     0.87413   0.31464   0.54221   0.00000  Uiso   1.00
H558   H     0.75640   0.21875   0.95373   0.00000  Uiso   1.00
O559   O     0.16667   0.68453   0.78974   0.00000  Uiso   1.00
O560   O     0.16666   0.81546   0.71026   0.00000  Uiso   1.00
O561   O     0.16667   0.68453   0.71026   0.00000  Uiso   1.00
O562   O     0.16666   0.81547   0.78974   0.00000  Uiso   1.00
C563   C     0.16679   0.66401   0.74983   0.00000  Uiso   1.00
C564   C     0.16704   0.83618   0.75030   0.00000  Uiso   1.00
O565   O     0.09058   0.75000   0.78044   0.00000  Uiso   1.00
O566   O     0.24275   0.75000   0.71955   0.00000  Uiso   1.00
O567   O     0.09058   0.74999   0.70096   0.00000  Uiso   1.00
O568   O     0.24275   0.75000   0.79903   0.00000  Uiso   1.00
C569   C     0.06700   0.74997   0.73748   0.00000  Uiso   1.00
C570   C     0.26633   0.75005   0.76253   0.00000  Uiso   1.00
Zn571  Zn    0.16667   0.75000   0.80307   0.00000  Uiso   1.00
Zn572  Zn    0.16667   0.74999   0.69693   0.00000  Uiso   1.00
C573   C     0.01188   0.74995   0.73081   0.00000  Uiso   1.00
C574   C     0.32146   0.75010   0.76922   0.00000  Uiso   1.00
C575   C     0.19954   0.54873   0.78836   0.00000  Uiso   1.00
C576   C     0.17848   0.95293   0.71037   0.00000  Uiso   1.00
C577   C     0.19838   0.59477   0.78793   0.00000  Uiso   1.00
C578   C     0.17729   0.90693   0.71006   0.00000  Uiso   1.00
H579   H     0.22149   0.61356   0.81678   0.00000  Uiso   1.00
H580   H     0.18334   0.88922   0.67795   0.00000  Uiso   1.00
C581   C     0.16804   0.61629   0.74997   0.00000  Uiso   1.00
C582   C     0.16854   0.88428   0.75092   0.00000  Uiso   1.00
C583   C     0.13831   0.59209   0.71283   0.00000  Uiso   1.00
C584   C     0.16151   0.90787   0.79226   0.00000  Uiso   1.00
C585   C     0.13928   0.54608   0.71329   0.00000  Uiso   1.00
C586   C     0.16254   0.95394   0.79246   0.00000  Uiso   1.00
C587   C     0.17003   0.52444   0.75099   0.00000  Uiso   1.00
C588   C     0.17074   0.97639   0.75143   0.00000  Uiso   1.00
C589   C     0.14387   0.71593   0.54797   0.00000  Uiso   1.00
C590   C     0.20823   0.76906   0.95394   0.00000  Uiso   1.00
C591   C     0.14381   0.71567   0.59746   0.00000  Uiso   1.00
C592   C     0.20798   0.76865   0.90438   0.00000  Uiso   1.00
N593   N     0.16667   0.74999   0.62623   0.00000  Uiso   1.00
N594   N     0.16667   0.75001   0.87376   0.00000  Uiso   1.00
C595   C     0.18957   0.78472   0.60630   0.00000  Uiso   1.00
C596   C     0.12514   0.73208   0.89167   0.00000  Uiso   1.00
C597   C     0.18971   0.78616   0.55671   0.00000  Uiso   1.00
C598   C     0.12384   0.73256   0.94105   0.00000  Uiso   1.00
C599   C     0.16632   0.75142   0.52649   0.00000  Uiso   1.00
C600   C     0.16587   0.75129   0.97326   0.00000  Uiso   1.00
H601   H     0.32434   0.74980   0.69446   0.00000  Uiso   1.00
H602   H     0.00898   0.75027   0.80558   0.00000  Uiso   1.00
H603   H     0.22364   0.53209   0.81745   0.00000  Uiso   1.00
H604   H     0.18546   0.97024   0.67871   0.00000  Uiso   1.00
H605   H     0.11341   0.60869   0.68438   0.00000  Uiso   1.00
H606   H     0.15463   0.89083   0.82410   0.00000  Uiso   1.00
H607   H     0.11553   0.52736   0.68477   0.00000  Uiso   1.00
H608   H     0.15604   0.97206   0.82420   0.00000  Uiso   1.00
H609   H     0.12626   0.68804   0.52647   0.00000  Uiso   1.00
H610   H     0.24179   0.78328   0.97713   0.00000  Uiso   1.00
N611   N     0.11926   0.67880   0.61678   0.00000  Uiso   1.00
O612   O     0.07724   0.68532   0.63581   0.00000  Uiso   1.00
O613   O     0.12958   0.63851   0.60370   0.00000  Uiso   1.00
N614   N     0.25152   0.78846   0.88668   0.00000  Uiso   1.00
O615   O     0.29895   0.77551   0.90295   0.00000  Uiso   1.00
O616   O     0.24519   0.82578   0.86383   0.00000  Uiso   1.00
H617   H     0.20772   0.81170   0.62881   0.00000  Uiso   1.00
H618   H     0.09255   0.71750   0.86764   0.00000  Uiso   1.00
H619   H     0.20746   0.81464   0.54221   0.00000  Uiso   1.00
H620   H     0.08974   0.71875   0.95373   0.00000  Uiso   1.00
O621   O     0.50000   0.68453   0.78974   0.00000  Uiso   1.00
O622   O     0.50000   0.81546   0.71026   0.00000  Uiso   1.00
O623   O     0.50000   0.68453   0.71026   0.00000  Uiso   1.00
O624   O     0.50000   0.81547   0.78974   0.00000  Uiso   1.00
C625   C     0.50012   0.66401   0.74983   0.00000  Uiso   1.00
C626   C     0.50037   0.83618   0.75030   0.00000  Uiso   1.00
O627   O     0.42392   0.75000   0.78044   0.00000  Uiso   1.00
O628   O     0.57608   0.75000   0.71955   0.00000  Uiso   1.00
O629   O     0.42392   0.74999   0.70096   0.00000  Uiso   1.00
O630   O     0.57608   0.75000   0.79903   0.00000  Uiso   1.00
C631   C     0.40034   0.74997   0.73748   0.00000  Uiso   1.00
C632   C     0.59966   0.75005   0.76253   0.00000  Uiso   1.00
Zn633  Zn    0.50000   0.75000   0.80307   0.00000  Uiso   1.00
Zn634  Zn    0.50000   0.74999   0.69693   0.00000  Uiso   1.00
C635   C     0.34521   0.74995   0.73081   0.00000  Uiso   1.00
C636   C     0.65479   0.75010   0.76922   0.00000  Uiso   1.00
C637   C     0.53287   0.54873   0.78836   0.00000  Uiso   1.00
C638   C     0.51181   0.95293   0.71037   0.00000  Uiso   1.00
C639   C     0.53171   0.59477   0.78793   0.00000  Uiso   1.00
C640   C     0.51063   0.90693   0.71006   0.00000  Uiso   1.00
H641   H     0.55483   0.61356   0.81678   0.00000  Uiso   1.00
H642   H     0.51667   0.88922   0.67795   0.00000  Uiso   1.00
C643   C     0.50137   0.61629   0.74997   0.00000  Uiso   1.00
C644   C     0.50187   0.88428   0.75092   0.00000  Uiso   1.00
C645   C     0.47165   0.59209   0.71283   0.00000  Uiso   1.00
C646   C     0.49484   0.90787   0.79226   0.00000  Uiso   1.00
C647   C     0.47262   0.54608   0.71329   0.00000  Uiso   1.00
C648   C     0.49588   0.95394   0.79246   0.00000  Uiso   1.00
C649   C     0.50336   0.52444   0.75099   0.00000  Uiso   1.00
C650   C     0.50408   0.97639   0.75143   0.00000  Uiso   1.00
C651   C     0.47720   0.71593   0.54797   0.00000  Uiso   1.00
C652   C     0.54156   0.76906   0.95394   0.00000  Uiso   1.00
C653   C     0.47714   0.71567   0.59746   0.00000  Uiso   1.00
C654   C     0.54131   0.76865   0.90438   0.00000  Uiso   1.00
N655   N     0.50000   0.74999   0.62623   0.00000  Uiso   1.00
N656   N     0.50000   0.75001   0.87376   0.00000  Uiso   1.00
C657   C     0.52290   0.78472   0.60630   0.00000  Uiso   1.00
C658   C     0.45847   0.73208   0.89167   0.00000  Uiso   1.00
C659   C     0.52304   0.78616   0.55671   0.00000  Uiso   1.00
C660   C     0.45717   0.73256   0.94105   0.00000  Uiso   1.00
C661   C     0.49965   0.75142   0.52649   0.00000  Uiso   1.00
C662   C     0.49920   0.75129   0.97326   0.00000  Uiso   1.00
H663   H     0.65767   0.74980   0.69446   0.00000  Uiso   1.00
H664   H     0.34232   0.75027   0.80558   0.00000  Uiso   1.00
H665   H     0.55697   0.53209   0.81745   0.00000  Uiso   1.00
H666   H     0.51879   0.97024   0.67871   0.00000  Uiso   1.00
H667   H     0.44674   0.60869   0.68438   0.00000  Uiso   1.00
H668   H     0.48797   0.89083   0.82410   0.00000  Uiso   1.00
H669   H     0.44886   0.52736   0.68477   0.00000  Uiso   1.00
H670   H     0.48937   0.97206   0.82420   0.00000  Uiso   1.00
H671   H     0.45959   0.68804   0.52647   0.00000  Uiso   1.00
H672   H     0.57513   0.78328   0.97713   0.00000  Uiso   1.00
N673   N     0.45259   0.67880   0.61678   0.00000  Uiso   1.00
O674   O     0.41057   0.68532   0.63581   0.00000  Uiso   1.00
O675   O     0.46292   0.63851   0.60370   0.00000  Uiso   1.00
N676   N     0.58485   0.78846   0.88668   0.00000  Uiso   1.00
O677   O     0.63228   0.77551   0.90295   0.00000  Uiso   1.00
O678   O     0.57853   0.82578   0.86383   0.00000  Uiso   1.00
H679   H     0.54106   0.81170   0.62881   0.00000  Uiso   1.00
H680   H     0.42588   0.71750   0.86764   0.00000  Uiso   1.00
H681   H     0.54079   0.81464   0.54221   0.00000  Uiso   1.00
H682   H     0.42307   0.71875   0.95373   0.00000  Uiso   1.00
O683   O     0.83334   0.68453   0.78974   0.00000  Uiso   1.00
O684   O     0.83333   0.81546   0.71026   0.00000  Uiso   1.00
O685   O     0.83334   0.68453   0.71026   0.00000  Uiso   1.00
O686   O     0.83333   0.81547   0.78974   0.00000  Uiso   1.00
C687   C     0.83346   0.66401   0.74983   0.00000  Uiso   1.00
C688   C     0.83370   0.83618   0.75030   0.00000  Uiso   1.00
O689   O     0.75725   0.75000   0.78044   0.00000  Uiso   1.00
O690   O     0.90942   0.75000   0.71955   0.00000  Uiso   1.00
O691   O     0.75725   0.74999   0.70096   0.00000  Uiso   1.00
O692   O     0.90942   0.75000   0.79903   0.00000  Uiso   1.00
C693   C     0.73367   0.74997   0.73748   0.00000  Uiso   1.00
C694   C     0.93300   0.75005   0.76253   0.00000  Uiso   1.00
Zn695  Zn    0.83333   0.75000   0.80307   0.00000  Uiso   1.00
Zn696  Zn    0.83333   0.74999   0.69693   0.00000  Uiso   1.00
C697   C     0.67854   0.74995   0.73081   0.00000  Uiso   1.00
C698   C     0.98812   0.75010   0.76922   0.00000  Uiso   1.00
C699   C     0.86621   0.54873   0.78836   0.00000  Uiso   1.00
C700   C     0.84514   0.95293   0.71037   0.00000  Uiso   1.00
C701   C     0.86505   0.59477   0.78793   0.00000  Uiso   1.00
C702   C     0.84396   0.90693   0.71006   0.00000  Uiso   1.00
H703   H     0.88816   0.61356   0.81678   0.00000  Uiso   1.00
H704   H     0.85001   0.88922   0.67795   0.00000  Uiso   1.00
C705   C     0.83471   0.61629   0.74997   0.00000  Uiso   1.00
C706   C     0.83521   0.88428   0.75092   0.00000  Uiso   1.00
C707   C     0.80498   0.59209   0.71283   0.00000  Uiso   1.00
C708   C     0.82818   0.90787   0.79226   0.00000  Uiso   1.00
C709   C     0.80595   0.54608   0.71329   0.00000  Uiso   1.00
C710   C     0.82921   0.95394   0.79246   0.00000  Uiso   1.00
C711   C     0.83670   0.52444   0.75099   0.00000  Uiso   1.00
C712   C     0.83741   0.97639   0.75143   0.00000  Uiso   1.00
C713   C     0.81054   0.71593   0.54797   0.00000  Uiso   1.00
C714   C     0.87490   0.76906   0.95394   0.00000  Uiso   1.00
C715   C     0.81047   0.71567   0.59746   0.00000  Uiso   1.00
C716   C     0.87464   0.76865   0.90438   0.00000  Uiso   1.00
N717   N     0.83333   0.74999   0.62623   0.00000  Uiso   1.00
N718   N     0.83333   0.75001   0.87376   0.00000  Uiso   1.00
C719   C     0.85624   0.78472   0.60630   0.00000  Uiso   1.00
C720   C     0.79180   0.73208   0.89167   0.00000  Uiso   1.00
C721   C     0.85637   0.78616   0.55671   0.00000  Uiso   1.00
C722   C     0.79051   0.73256   0.94105   0.00000  Uiso   1.00
C723   C     0.83298   0.75142   0.52649   0.00000  Uiso   1.00
C724   C     0.83253   0.75129   0.97326   0.00000  Uiso   1.00
H725   H     0.99101   0.74980   0.69446   0.00000  Uiso   1.00
H726   H     0.67565   0.75027   0.80558   0.00000  Uiso   1.00
H727   H     0.89031   0.53209   0.81745   0.00000  Uiso   1.00
H728   H     0.85213   0.97024   0.67871   0.00000  Uiso   1.00
H729   H     0.78007   0.60869   0.68438   0.00000  Uiso   1.00
H730   H     0.82130   0.89083   0.82410   0.00000  Uiso   1.00
H731   H     0.78220   0.52736   0.68477   0.00000  Uiso   1.00
H732   H     0.82271   0.97206   0.82420   0.00000  Uiso   1.00
H733   H     0.79293   0.68804   0.52647   0.00000  Uiso   1.00
H734   H     0.90846   0.78328   0.97713   0.00000  Uiso   1.00
N735   N     0.78592   0.67880   0.61678   0.00000  Uiso   1.00
O736   O     0.74390   0.68532   0.63581   0.00000  Uiso   1.00
O737   O     0.79625   0.63851   0.60370   0.00000  Uiso   1.00
N738   N     0.91819   0.78846   0.88668   0.00000  Uiso   1.00
O739   O     0.96562   0.77551   0.90295   0.00000  Uiso   1.00
O740   O     0.91186   0.82578   0.86383   0.00000  Uiso   1.00
H741   H     0.87439   0.81170   0.62881   0.00000  Uiso   1.00
H742   H     0.75922   0.71750   0.86764   0.00000  Uiso   1.00
H743   H     0.87413   0.81464   0.54221   0.00000  Uiso   1.00
H744   H     0.75640   0.71875   0.95373   0.00000  Uiso   1.00
loop_
_geom_bond_atom_site_label_1
_geom_bond_atom_site_label_2
_geom_bond_distance
_geom_bond_site_symmetry_2
_ccdc_geom_bond_type
O1     C5      1.284   .     A
O1     Zn13    1.995   .     S
O2     C6      1.289   .     A
O2     Zn14    1.995   .     S
O3     C5      1.289   .     A
O3     Zn14    2.004   .     S
O4     C6      1.290   .     A
O4     Zn13    2.004   .     S
C5     C23     1.432   .     S
C6     C24     1.443   .     S
O7     C11     1.276   .     A
O7     Zn13    1.965   .     S
O8     C12     1.277   .     A
O8     Zn14    1.965   .     S
O9     Zn14    1.982   .     S
O9     C11     1.283   .     A
O10    C12     1.283   .     A
O10    Zn13    1.982   .     S
C11    C15     1.403   .     S
C12    C16     1.403   .     S
Zn13   N36     2.010   .     S
Zn14   N35     2.010   .     S
C15    C140    1.333   1_455 S
C15    H167    1.088   1_455 S
C16    C77     1.333   .     S
C16    H106    1.088   .     S
C17    C29     1.398   .     A
C17    C19     1.381   .     A
C17    H45     1.084   .     S
C18    C30     1.397   .     A
C18    H46     1.084   .     S
C18    C20     1.380   .     A
C19    C23     1.398   .     A
C19    H21     1.084   .     S
C20    H22     1.083   .     S
C20    C24     1.401   .     A
C23    C25     1.395   .     A
C24    C26     1.401   .     A
C25    H47     1.080   .     S
C25    C27     1.380   .     A
C26    C28     1.382   .     A
C26    H48     1.083   .     S
C27    C29     1.399   .     A
C27    H49     1.084   .     S
C28    C30     1.398   .     A
C28    H50     1.084   .     S
C29    C216    1.442   1_545 S
C30    C215    1.442   .     S
C31    C33     1.408   .     A
C31    H51     1.083   .     S
C31    C41     1.399   .     A
C32    H52     1.083   .     S
C32    C42     1.401   .     A
C32    C34     1.408   .     A
C33    N35     1.376   .     A
C33    N53     1.428   .     S
C34    N56     1.428   .     S
C34    N36     1.375   .     A
N35    C37     1.366   .     A
N36    C38     1.364   .     A
C37    C39     1.412   .     A
C37    H59     1.081   .     S
C38    C40     1.410   .     A
C38    H60     1.081   .     S
C39    C41     1.411   .     A
C39    H61     1.082   .     S
C40    H62     1.082   .     S
C40    C42     1.412   .     A
C41    C414    1.512   1_554 S
C42    C413    1.512   .     S
H43    C77     1.088   .     S
H44    C140    1.088   1_455 S
N53    O54     1.299   .     A
N53    O55     1.301   .     A
N56    O58     1.300   .     A
N56    O57     1.301   .     A
O63    C67     1.284   .     A
O63    Zn75    1.995   .     S
O64    C68     1.289   .     A
O64    Zn76    1.995   .     S
O65    C67     1.289   .     A
O65    Zn76    2.004   .     S
O66    C68     1.290   .     A
O66    Zn75    2.004   .     S
C67    C85     1.432   .     S
C68    C86     1.443   .     S
O69    C73     1.276   .     A
O69    Zn75    1.965   .     S
O70    C74     1.277   .     A
O70    Zn76    1.965   .     S
O71    Zn76    1.982   .     S
O71    C73     1.283   .     A
O72    C74     1.283   .     A
O72    Zn75    1.982   .     S
C73    C77     1.403   .     S
C74    C78     1.403   .     S
Zn75   N98     2.010   .     S
Zn76   N97     2.010   .     S
C78    C139    1.333   .     S
C78    H168    1.088   .     S
C79    C91     1.398   .     A
C79    C81     1.381   .     A
C79    H107    1.084   .     S
C80    C92     1.397   .     A
C80    H108    1.084   .     S
C80    C82     1.380   .     A
C81    C85     1.398   .     A
C81    H83     1.084   .     S
C82    H84     1.083   .     S
C82    C86     1.401   .     A
C85    C87     1.395   .     A
C86    C88     1.401   .     A
C87    H109    1.080   .     S
C87    C89     1.380   .     A
C88    C90     1.382   .     A
C88    H110    1.083   .     S
C89    C91     1.399   .     A
C89    H111    1.084   .     S
C90    C92     1.398   .     A
C90    H112    1.084   .     S
C91    C278    1.442   1_545 S
C92    C277    1.442   .     S
C93    C95     1.408   .     A
C93    H113    1.083   .     S
C93    C103    1.399   .     A
C94    H114    1.083   .     S
C94    C104    1.401   .     A
C94    C96     1.408   .     A
C95    N97     1.376   .     A
C95    N115    1.428   .     S
C96    N118    1.428   .     S
C96    N98     1.375   .     A
N97    C99     1.366   .     A
N98    C100    1.364   .     A
C99    C101    1.412   .     A
C99    H121    1.081   .     S
C100   C102    1.410   .     A
C100   H122    1.081   .     S
C101   C103    1.411   .     A
C101   H123    1.082   .     S
C102   H124    1.082   .     S
C102   C104    1.412   .     A
C103   C476    1.512   1_554 S
C104   C475    1.512   .     S
H105   C139    1.088   .     S
N115   O116    1.299   .     A
N115   O117    1.301   .     A
N118   O120    1.300   .     A
N118   O119    1.301   .     A
O125   C129    1.284   .     A
O125   Zn137   1.995   .     S
O126   C130    1.289   .     A
O126   Zn138   1.995   .     S
O127   C129    1.289   .     A
O127   Zn138   2.004   .     S
O128   C130    1.290   .     A
O128   Zn137   2.004   .     S
C129   C147    1.432   .     S
C130   C148    1.443   .     S
O131   C135    1.276   .     A
O131   Zn137   1.965   .     S
O132   C136    1.277   .     A
O132   Zn138   1.965   .     S
O133   Zn138   1.982   .     S
O133   C135    1.283   .     A
O134   C136    1.283   .     A
O134   Zn137   1.982   .     S
C135   C139    1.403   .     S
C136   C140    1.403   .     S
Zn137  N160    2.010   .     S
Zn138  N159    2.010   .     S
C140   C15     1.333   1_655 S
C140   H44     1.088   1_655 S
C141   C153    1.398   .     A
C141   C143    1.381   .     A
C141   H169    1.084   .     S
C142   C154    1.397   .     A
C142   H170    1.084   .     S
C142   C144    1.380   .     A
C143   C147    1.398   .     A
C143   H145    1.084   .     S
C144   H146    1.083   .     S
C144   C148    1.401   .     A
C147   C149    1.395   .     A
C148   C150    1.401   .     A
C149   H171    1.080   .     S
C149   C151    1.380   .     A
C150   C152    1.382   .     A
C150   H172    1.083   .     S
C151   C153    1.399   .     A
C151   H173    1.084   .     S
C152   C154    1.398   .     A
C152   H174    1.084   .     S
C153   C340    1.442   1_545 S
C154   C339    1.442   .     S
C155   C157    1.408   .     A
C155   H175    1.083   .     S
C155   C165    1.399   .     A
C156   H176    1.083   .     S
C156   C166    1.401   .     A
C156   C158    1.408   .     A
C157   N159    1.376   .     A
C157   N177    1.428   .     S
C158   N180    1.428   .     S
C158   N160    1.375   .     A
N159   C161    1.366   .     A
N160   C162    1.364   .     A
C161   C163    1.412   .     A
C161   H183    1.081   .     S
C162   C164    1.410   .     A
C162   H184    1.081   .     S
C163   C165    1.411   .     A
C163   H185    1.082   .     S
C164   H186    1.082   .     S
C164   C166    1.412   .     A
C165   C538    1.512   1_554 S
C166   C537    1.512   .     S
H167   C15     1.088   1_655 S
N177   O178    1.299   .     A
N177   O179    1.301   .     A
N180   O182    1.300   .     A
N180   O181    1.301   .     A
O187   C191    1.284   .     A
O187   Zn199   1.995   .     S
O188   C192    1.289   .     A
O188   Zn200   1.995   .     S
O189   C191    1.289   .     A
O189   Zn200   2.004   .     S
O190   C192    1.290   .     A
O190   Zn199   2.004   .     S
C191   C209    1.432   .     S
C192   C210    1.443   .     S
O193   C197    1.276   .     A
O193   Zn199   1.965   .     S
O194   C198    1.277   .     A
O194   Zn200   1.965   .     S
O195   Zn200   1.982   .     S
O195   C197    1.283   .     A
O196   C198    1.283   .     A
O196   Zn199   1.982   .     S
C197   C201    1.403   .     S
C198   C202    1.403   .     S
Zn199  N222    2.010   .     S
Zn200  N221    2.010   .     S
C201   C326    1.333   1_455 S
C201   H353    1.088   1_455 S
C202   C263    1.333   .     S
C202   H292    1.088   .     S
C203   C215    1.398   .     A
C203   C205    1.381   .     A
C203   H231    1.084   .     S
C204   C216    1.397   .     A
C204   H232    1.084   .     S
C204   C206    1.380   .     A
C205   C209    1.398   .     A
C205   H207    1.084   .     S
C206   H208    1.083   .     S
C206   C210    1.401   .     A
C209   C211    1.395   .     A
C210   C212    1.401   .     A
C211   H233    1.080   .     S
C211   C213    1.380   .     A
C212   C214    1.382   .     A
C212   H234    1.083   .     S
C213   C215    1.399   .     A
C213   H235    1.084   .     S
C214   C216    1.398   .     A
C214   H236    1.084   .     S
C216   C29     1.442   1_565 S
C217   C219    1.408   .     A
C217   H237    1.083   .     S
C217   C227    1.399   .     A
C218   H238    1.083   .     S
C218   C228    1.401   .     A
C218   C220    1.408   .     A
C219   N221    1.376   .     A
C219   N239    1.428   .     S
C220   N242    1.428   .     S
C220   N222    1.375   .     A
N221   C223    1.366   .     A
N222   C224    1.364   .     A
C223   C225    1.412   .     A
C223   H245    1.081   .     S
C224   C226    1.410   .     A
C224   H246    1.081   .     S
C225   C227    1.411   .     A
C225   H247    1.082   .     S
C226   H248    1.082   .     S
C226   C228    1.412   .     A
C227   C600    1.512   1_554 S
C228   C599    1.512   .     S
H229   C263    1.088   .     S
H230   C326    1.088   1_455 S
N239   O240    1.299   .     A
N239   O241    1.301   .     A
N242   O244    1.300   .     A
N242   O243    1.301   .     A
O249   C253    1.284   .     A
O249   Zn261   1.995   .     S
O250   C254    1.289   .     A
O250   Zn262   1.995   .     S
O251   C253    1.289   .     A
O251   Zn262   2.004   .     S
O252   C254    1.290   .     A
O252   Zn261   2.004   .     S
C253   C271    1.432   .     S
C254   C272    1.443   .     S
O255   C259    1.276   .     A
O255   Zn261   1.965   .     S
O256   C260    1.277   .     A
O256   Zn262   1.965   .     S
O257   Zn262   1.982   .     S
O257   C259    1.283   .     A
O258   C260    1.283   .     A
O258   Zn261   1.982   .     S
C259   C263    1.403   .     S
C260   C264    1.403   .     S
Zn261  N284    2.010   .     S
Zn262  N283    2.010   .     S
C264   C325    1.333   .     S
C264   H354    1.088   .     S
C265   C277    1.398   .     A
C265   C267    1.381   .     A
C265   H293    1.084   .     S
C266   C278    1.397   .     A
C266   H294    1.084   .     S
C266   C268    1.380   .     A
C267   C271    1.398   .     A
C267   H269    1.084   .     S
C268   H270    1.083   .     S
C268   C272    1.401   .     A
C271   C273    1.395   .     A
C272   C274    1.401   .     A
C273   H295    1.080   .     S
C273   C275    1.380   .     A
C274   C276    1.382   .     A
C274   H296    1.083   .     S
C275   C277    1.399   .     A
C275   H297    1.084   .     S
C276   C278    1.398   .     A
C276   H298    1.084   .     S
C278   C91     1.442   1_565 S
C279   C281    1.408   .     A
C279   H299    1.083   .     S
C279   C289    1.399   .     A
C280   H300    1.083   .     S
C280   C290    1.401   .     A
C280   C282    1.408   .     A
C281   N283    1.376   .     A
C281   N301    1.428   .     S
C282   N304    1.428   .     S
C282   N284    1.375   .     A
N283   C285    1.366   .     A
N284   C286    1.364   .     A
C285   C287    1.412   .     A
C285   H307    1.081   .     S
C286   C288    1.410   .     A
C286   H308    1.081   .     S
C287   C289    1.411   .     A
C287   H309    1.082   .     S
C288   H310    1.082   .     S
C288   C290    1.412   .     A
C289   C662    1.512   1_554 S
C290   C661    1.512   .     S
H291   C325    1.088   .     S
N301   O302    1.299   .     A
N301   O303    1.301   .     A
N304   O306    1.300   .     A
N304   O305    1.301   .     A
O311   C315    1.284   .     A
O311   Zn323   1.995   .     S
O312   C316    1.289   .     A
O312   Zn324   1.995   .     S
O313   C315    1.289   .     A
O313   Zn324   2.004   .     S
O314   C316    1.290   .     A
O314   Zn323   2.004   .     S
C315   C333    1.432   .     S
C316   C334    1.443   .     S
O317   C321    1.276   .     A
O317   Zn323   1.965   .     S
O318   C322    1.277   .     A
O318   Zn324   1.965   .     S
O319   Zn324   1.982   .     S
O319   C321    1.283   .     A
O320   C322    1.283   .     A
O320   Zn323   1.982   .     S
C321   C325    1.403   .     S
C322   C326    1.403   .     S
Zn323  N346    2.010   .     S
Zn324  N345    2.010   .     S
C326   C201    1.333   1_655 S
C326   H230    1.088   1_655 S
C327   C339    1.398   .     A
C327   C329    1.381   .     A
C327   H355    1.084   .     S
C328   C340    1.397   .     A
C328   H356    1.084   .     S
C328   C330    1.380   .     A
C329   C333    1.398   .     A
C329   H331    1.084   .     S
C330   H332    1.083   .     S
C330   C334    1.401   .     A
C333   C335    1.395   .     A
C334   C336    1.401   .     A
C335   H357    1.080   .     S
C335   C337    1.380   .     A
C336   C338    1.382   .     A
C336   H358    1.083   .     S
C337   C339    1.399   .     A
C337   H359    1.084   .     S
C338   C340    1.398   .     A
C338   H360    1.084   .     S
C340   C153    1.442   1_565 S
C341   C343    1.408   .     A
C341   H361    1.083   .     S
C341   C351    1.399   .     A
C342   H362    1.083   .     S
C342   C352    1.401   .     A
C342   C344    1.408   .     A
C343   N345    1.376   .     A
C343   N363    1.428   .     S
C344   N366    1.428   .     S
C344   N346    1.375   .     A
N345   C347    1.366   .     A
N346   C348    1.364   .     A
C347   C349    1.412   .     A
C347   H369    1.081   .     S
C348   C350    1.410   .     A
C348   H370    1.081   .     S
C349   C351    1.411   .     A
C349   H371    1.082   .     S
C350   H372    1.082   .     S
C350   C352    1.412   .     A
C351   C724    1.512   1_554 S
C352   C723    1.512   .     S
H353   C201    1.088   1_655 S
N363   O364    1.299   .     A
N363   O365    1.301   .     A
N366   O368    1.300   .     A
N366   O367    1.301   .     A
O373   C377    1.284   .     A
O373   Zn385   1.995   .     S
O374   C378    1.289   .     A
O374   Zn386   1.995   .     S
O375   C377    1.289   .     A
O375   Zn386   2.004   .     S
O376   C378    1.290   .     A
O376   Zn385   2.004   .     S
C377   C395    1.432   .     S
C378   C396    1.443   .     S
O379   C383    1.276   .     A
O379   Zn385   1.965   .     S
O380   C384    1.277   .     A
O380   Zn386   1.965   .     S
O381   Zn386   1.982   .     S
O381   C383    1.283   .     A
O382   C384    1.283   .     A
O382   Zn385   1.982   .     S
C383   C387    1.403   .     S
C384   C388    1.403   .     S
Zn385  N408    2.010   .     S
Zn386  N407    2.010   .     S
C387   C512    1.333   1_455 S
C387   H539    1.088   1_455 S
C388   C449    1.333   .     S
C388   H478    1.088   .     S
C389   C401    1.398   .     A
C389   C391    1.381   .     A
C389   H417    1.084   .     S
C390   C402    1.397   .     A
C390   H418    1.084   .     S
C390   C392    1.380   .     A
C391   C395    1.398   .     A
C391   H393    1.084   .     S
C392   H394    1.083   .     S
C392   C396    1.401   .     A
C395   C397    1.395   .     A
C396   C398    1.401   .     A
C397   H419    1.080   .     S
C397   C399    1.380   .     A
C398   C400    1.382   .     A
C398   H420    1.083   .     S
C399   C401    1.399   .     A
C399   H421    1.084   .     S
C400   C402    1.398   .     A
C400   H422    1.084   .     S
C401   C588    1.442   1_545 S
C402   C587    1.442   .     S
C403   C405    1.408   .     A
C403   H423    1.083   .     S
C403   C413    1.399   .     A
C404   H424    1.083   .     S
C404   C414    1.401   .     A
C404   C406    1.408   .     A
C405   N407    1.376   .     A
C405   N425    1.428   .     S
C406   N428    1.428   .     S
C406   N408    1.375   .     A
N407   C409    1.366   .     A
N408   C410    1.364   .     A
C409   C411    1.412   .     A
C409   H431    1.081   .     S
C410   C412    1.410   .     A
C410   H432    1.081   .     S
C411   C413    1.411   .     A
C411   H433    1.082   .     S
C412   H434    1.082   .     S
C412   C414    1.412   .     A
C414   C41     1.512   1_556 S
H415   C449    1.088   .     S
H416   C512    1.088   1_455 S
N425   O426    1.299   .     A
N425   O427    1.301   .     A
N428   O430    1.300   .     A
N428   O429    1.301   .     A
O435   C439    1.284   .     A
O435   Zn447   1.995   .     S
O436   C440    1.289   .     A
O436   Zn448   1.995   .     S
O437   C439    1.289   .     A
O437   Zn448   2.004   .     S
O438   C440    1.290   .     A
O438   Zn447   2.004   .     S
C439   C457    1.432   .     S
C440   C458    1.443   .     S
O441   C445    1.276   .     A
O441   Zn447   1.965   .     S
O442   C446    1.277   .     A
O442   Zn448   1.965   .     S
O443   Zn448   1.982   .     S
O443   C445    1.283   .     A
O444   C446    1.283   .     A
O444   Zn447   1.982   .     S
C445   C449    1.403   .     S
C446   C450    1.403   .     S
Zn447  N470    2.010   .     S
Zn448  N469    2.010   .     S
C450   C511    1.333   .     S
C450   H540    1.088   .     S
C451   C463    1.398   .     A
C451   C453    1.381   .     A
C451   H479    1.084   .     S
C452   C464    1.397   .     A
C452   H480    1.084   .     S
C452   C454    1.380   .     A
C453   C457    1.398   .     A
C453   H455    1.084   .     S
C454   H456    1.083   .     S
C454   C458    1.401   .     A
C457   C459    1.395   .     A
C458   C460    1.401   .     A
C459   H481    1.080   .     S
C459   C461    1.380   .     A
C460   C462    1.382   .     A
C460   H482    1.083   .     S
C461   C463    1.399   .     A
C461   H483    1.084   .     S
C462   C464    1.398   .     A
C462   H484    1.084   .     S
C463   C650    1.442   1_545 S
C464   C649    1.442   .     S
C465   C467    1.408   .     A
C465   H485    1.083   .     S
C465   C475    1.399   .     A
C466   H486    1.083   .     S
C466   C476    1.401   .     A
C466   C468    1.408   .     A
C467   N469    1.376   .     A
C467   N487    1.428   .     S
C468   N490    1.428   .     S
C468   N470    1.375   .     A
N469   C471    1.366   .     A
N470   C472    1.364   .     A
C471   C473    1.412   .     A
C471   H493    1.081   .     S
C472   C474    1.410   .     A
C472   H494    1.081   .     S
C473   C475    1.411   .     A
C473   H495    1.082   .     S
C474   H496    1.082   .     S
C474   C476    1.412   .     A
C476   C103    1.512   1_556 S
H477   C511    1.088   .     S
N487   O488    1.299   .     A
N487   O489    1.301   .     A
N490   O492    1.300   .     A
N490   O491    1.301   .     A
O497   C501    1.284   .     A
O497   Zn509   1.995   .     S
O498   C502    1.289   .     A
O498   Zn510   1.995   .     S
O499   C501    1.289   .     A
O499   Zn510   2.004   .     S
O500   C502    1.290   .     A
O500   Zn509   2.004   .     S
C501   C519    1.432   .     S
C502   C520    1.443   .     S
O503   C507    1.276   .     A
O503   Zn509   1.965   .     S
O504   C508    1.277   .     A
O504   Zn510   1.965   .     S
O505   Zn510   1.982   .     S
O505   C507    1.283   .     A
O506   C508    1.283   .     A
O506   Zn509   1.982   .     S
C507   C511    1.403   .     S
C508   C512    1.403   .     S
Zn509  N532    2.010   .     S
Zn510  N531    2.010   .     S
C512   C387    1.333   1_655 S
C512   H416    1.088   1_655 S
C513   C525    1.398   .     A
C513   C515    1.381   .     A
C513   H541    1.084   .     S
C514   C526    1.397   .     A
C514   H542    1.084   .     S
C514   C516    1.380   .     A
C515   C519    1.398   .     A
C515   H517    1.084   .     S
C516   H518    1.083   .     S
C516   C520    1.401   .     A
C519   C521    1.395   .     A
C520   C522    1.401   .     A
C521   H543    1.080   .     S
C521   C523    1.380   .     A
C522   C524    1.382   .     A
C522   H544    1.083   .     S
C523   C525    1.399   .     A
C523   H545    1.084   .     S
C524   C526    1.398   .     A
C524   H546    1.084   .     S
C525   C712    1.442   1_545 S
C526   C711    1.442   .     S
C527   C529    1.408   .     A
C527   H547    1.083   .     S
C527   C537    1.399   .     A
C528   H548    1.083   .     S
C528   C538    1.401   .     A
C528   C530    1.408   .     A
C529   N531    1.376   .     A
C529   N549    1.428   .     S
C530   N552    1.428   .     S
C530   N532    1.375   .     A
N531   C533    1.366   .     A
N532   C534    1.364   .     A
C533   C535    1.412   .     A
C533   H555    1.081   .     S
C534   C536    1.410   .     A
C534   H556    1.081   .     S
C535   C537    1.411   .     A
C535   H557    1.082   .     S
C536   H558    1.082   .     S
C536   C538    1.412   .     A
C538   C165    1.512   1_556 S
H539   C387    1.088   1_655 S
N549   O550    1.299   .     A
N549   O551    1.301   .     A
N552   O554    1.300   .     A
N552   O553    1.301   .     A
O559   C563    1.284   .     A
O559   Zn571   1.995   .     S
O560   C564    1.289   .     A
O560   Zn572   1.995   .     S
O561   C563    1.289   .     A
O561   Zn572   2.004   .     S
O562   C564    1.290   .     A
O562   Zn571   2.004   .     S
C563   C581    1.432   .     S
C564   C582    1.443   .     S
O565   C569    1.276   .     A
O565   Zn571   1.965   .     S
O566   C570    1.277   .     A
O566   Zn572   1.965   .     S
O567   Zn572   1.982   .     S
O567   C569    1.283   .     A
O568   C570    1.283   .     A
O568   Zn571   1.982   .     S
C569   C573    1.403   .     S
C570   C574    1.403   .     S
Zn571  N594    2.010   .     S
Zn572  N593    2.010   .     S
C573   C698    1.333   1_455 S
C573   H725    1.088   1_455 S
C574   C635    1.333   .     S
C574   H664    1.088   .     S
C575   C587    1.398   .     A
C575   C577    1.381   .     A
C575   H603    1.084   .     S
C576   C588    1.397   .     A
C576   H604    1.084   .     S
C576   C578    1.380   .     A
C577   C581    1.398   .     A
C577   H579    1.084   .     S
C578   H580    1.083   .     S
C578   C582    1.401   .     A
C581   C583    1.395   .     A
C582   C584    1.401   .     A
C583   H605    1.080   .     S
C583   C585    1.380   .     A
C584   C586    1.382   .     A
C584   H606    1.083   .     S
C585   C587    1.399   .     A
C585   H607    1.084   .     S
C586   C588    1.398   .     A
C586   H608    1.084   .     S
C588   C401    1.442   1_565 S
C589   C591    1.408   .     A
C589   H609    1.083   .     S
C589   C599    1.399   .     A
C590   H610    1.083   .     S
C590   C600    1.401   .     A
C590   C592    1.408   .     A
C591   N593    1.376   .     A
C591   N611    1.428   .     S
C592   N614    1.428   .     S
C592   N594    1.375   .     A
N593   C595    1.366   .     A
N594   C596    1.364   .     A
C595   C597    1.412   .     A
C595   H617    1.081   .     S
C596   C598    1.410   .     A
C596   H618    1.081   .     S
C597   C599    1.411   .     A
C597   H619    1.082   .     S
C598   H620    1.082   .     S
C598   C600    1.412   .     A
C600   C227    1.512   1_556 S
H601   C635    1.088   .     S
H602   C698    1.088   1_455 S
N611   O612    1.299   .     A
N611   O613    1.301   .     A
N614   O616    1.300   .     A
N614   O615    1.301   .     A
O621   C625    1.284   .     A
O621   Zn633   1.995   .     S
O622   C626    1.289   .     A
O622   Zn634   1.995   .     S
O623   C625    1.289   .     A
O623   Zn634   2.004   .     S
O624   C626    1.290   .     A
O624   Zn633   2.004   .     S
C625   C643    1.432   .     S
C626   C644    1.443   .     S
O627   C631    1.276   .     A
O627   Zn633   1.965   .     S
O628   C632    1.277   .     A
O628   Zn634   1.965   .     S
O629   Zn634   1.982   .     S
O629   C631    1.283   .     A
O630   C632    1.283   .     A
O630   Zn633   1.982   .     S
C631   C635    1.403   .     S
C632   C636    1.403   .     S
Zn633  N656    2.010   .     S
Zn634  N655    2.010   .     S
C636   C697    1.333   .     S
C636   H726    1.088   .     S
C637   C649    1.398   .     A
C637   C639    1.381   .     A
C637   H665    1.084   .     S
C638   C650    1.397   .     A
C638   H666    1.084   .     S
C638   C640    1.380   .     A
C639   C643    1.398   .     A
C639   H641    1.084   .     S
C640   H642    1.083   .     S
C640   C644    1.401   .     A
C643   C645    1.395   .     A
C644   C646    1.401   .     A
C645   H667    1.080   .     S
C645   C647    1.380   .     A
C646   C648    1.382   .     A
C646   H668    1.083   .     S
C647   C649    1.399   .     A
C647   H669    1.084   .     S
C648   C650    1.398   .     A
C648   H670    1.084   .     S
C650   C463    1.442   1_565 S
C651   C653    1.408   .     A
C651   H671    1.083   .     S
C651   C661    1.399   .     A
C652   H672    1.083   .     S
C652   C662    1.401   .     A
C652   C654    1.408   .     A
C653   N655    1.376   .     A
C653   N673    1.428   .     S
C654   N676    1.428   .     S
C654   N656    1.375   .     A
N655   C657    1.366   .     A
N656   C658    1.364   .     A
C657   C659    1.412   .     A
C657   H679    1.081   .     S
C658   C660    1.410   .     A
C658   H680    1.081   .     S
C659   C661    1.411   .     A
C659   H681    1.082   .     S
C660   H682    1.082   .     S
C660   C662    1.412   .     A
C662   C289    1.512   1_556 S
H663   C697    1.088   .     S
N673   O674    1.299   .     A
N673   O675    1.301   .     A
N676   O678    1.300   .     A
N676   O677    1.301   .     A
O683   C687    1.284   .     A
O683   Zn695   1.995   .     S
O684   C688    1.289   .     A
O684   Zn696   1.995   .     S
O685   C687    1.289   .     A
O685   Zn696   2.004   .     S
O686   C688    1.290   .     A
O686   Zn695   2.004   .     S
C687   C705    1.432   .     S
C688   C706    1.443   .     S
O689   C693    1.276   .     A
O689   Zn695   1.965   .     S
O690   C694    1.277   .     A
O690   Zn696   1.965   .     S
O691   Zn696   1.982   .     S
O691   C693    1.283   .     A
O692   C694    1.283   .     A
O692   Zn695   1.982   .     S
C693   C697    1.403   .     S
C694   C698    1.403   .     S
Zn695  N718    2.010   .     S
Zn696  N717    2.010   .     S
C698   C573    1.333   1_655 S
C698   H602    1.088   1_655 S
C699   C711    1.398   .     A
C699   C701    1.381   .     A
C699   H727    1.084   .     S
C700   C712    1.397   .     A
C700   H728    1.084   .     S
C700   C702    1.380   .     A
C701   C705    1.398   .     A
C701   H703    1.084   .     S
C702   H704    1.083   .     S
C702   C706    1.401   .     A
C705   C707    1.395   .     A
C706   C708    1.401   .     A
C707   H729    1.080   .     S
C707   C709    1.380   .     A
C708   C710    1.382   .     A
C708   H730    1.083   .     S
C709   C711    1.399   .     A
C709   H731    1.084   .     S
C710   C712    1.398   .     A
C710   H732    1.084   .     S
C712   C525    1.442   1_565 S
C713   C715    1.408   .     A
C713   H733    1.083   .     S
C713   C723    1.399   .     A
C714   H734    1.083   .     S
C714   C724    1.401   .     A
C714   C716    1.408   .     A
C715   N717    1.376   .     A
C715   N735    1.428   .     S
C716   N738    1.428   .     S
C716   N718    1.375   .     A
N717   C719    1.366   .     A
N718   C720    1.364   .     A
C719   C721    1.412   .     A
C719   H741    1.081   .     S
C720   C722    1.410   .     A
C720   H742    1.081   .     S
C721   C723    1.411   .     A
C721   H743    1.082   .     S
C722   H744    1.082   .     S
C722   C724    1.412   .     A
C724   C351    1.512   1_556 S
H725   C573    1.088   1_655 S
N735   O736    1.299   .     A
N735   O737    1.301   .     A
N738   O740    1.300   .     A
N738   O739    1.301   .     A
