data_str_m3_o1_o18_pcu_sym.187
_audit_creation_date              2020-01-03
_audit_creation_method            'Materials Studio'
_symmetry_space_group_name_H-M    'P1'
_symmetry_Int_Tables_number       1
_symmetry_cell_setting            triclinic
loop_
_symmetry_equiv_pos_as_xyz
  x,y,z
_cell_length_a                    29.7143
_cell_length_b                    31.9142
_cell_length_c                    30.9954
_cell_angle_alpha                 90.4526
_cell_angle_beta                  66.7643
_cell_angle_gamma                 89.1795
loop_
_atom_site_label
_atom_site_type_symbol
_atom_site_fract_x
_atom_site_fract_y
_atom_site_fract_z
_atom_site_U_iso_or_equiv
_atom_site_adp_type
_atom_site_occupancy
C1     C     0.16669   0.24651   0.24923   0.00000  Uiso   1.00
C2     C     0.16667   0.08681   0.25071   0.00000  Uiso   1.00
C3     C     0.10634   0.16771   0.05471   0.00000  Uiso   1.00
C4     C     0.21350   0.20873   0.45467   0.00000  Uiso   1.00
C5     C     0.07234   0.16239   0.03480   0.00000  Uiso   1.00
C6     C     0.24738   0.21393   0.47486   0.00000  Uiso   1.00
C7     C     0.17823   0.31093   0.28293   0.00000  Uiso   1.00
C8     C     0.15519   0.02238   0.21693   0.00000  Uiso   1.00
C9     C     0.17873   0.02075   0.28445   0.00000  Uiso   1.00
C10    C     0.15476   0.31255   0.21537   0.00000  Uiso   1.00
C11    C     0.16718   0.04264   0.25090   0.00000  Uiso   1.00
C12    C     0.16622   0.29067   0.24898   0.00000  Uiso   1.00
C13    C     0.32439   0.14563   0.21553   0.00000  Uiso   1.00
C14    C     0.00900   0.18796   0.28428   0.00000  Uiso   1.00
C15    C     0.03864   0.14559   0.21605   0.00000  Uiso   1.00
C16    C     0.29471   0.18785   0.28386   0.00000  Uiso   1.00
C17    C     0.13582   0.16728   0.33817   0.00000  Uiso   1.00
C18    C     0.19748   0.16685   0.16184   0.00000  Uiso   1.00
C19    C     0.11615   0.16982   0.38938   0.00000  Uiso   1.00
C20    C     0.21628   0.17239   0.11115   0.00000  Uiso   1.00
C21    C     0.05341   0.15686   0.46594   0.00000  Uiso   1.00
C22    C     0.27169   0.20475   0.04029   0.00000  Uiso   1.00
C23    C     0.06843   0.15796   0.41733   0.00000  Uiso   1.00
C24    C     0.26075   0.19193   0.08624   0.00000  Uiso   1.00
C25    C     0.14768   0.18255   0.41027   0.00000  Uiso   1.00
C26    C     0.18406   0.16450   0.08953   0.00000  Uiso   1.00
C27    C     0.13387   0.18116   0.45881   0.00000  Uiso   1.00
C28    C     0.19165   0.18109   0.04580   0.00000  Uiso   1.00
C29    C     0.08617   0.16720   0.48674   0.00000  Uiso   1.00
C30    C     0.23722   0.19983   0.02005   0.00000  Uiso   1.00
C31    C     0.16761   0.19000   0.47966   0.00000  Uiso   1.00
C32    C     0.15516   0.17916   0.02713   0.00000  Uiso   1.00
H33    H     0.03560   0.15286   0.05685   0.00000  Uiso   1.00
H34    H     0.28187   0.22873   0.45480   0.00000  Uiso   1.00
H35    H     0.15221   0.14616   0.10834   0.00000  Uiso   1.00
H36    H     0.18422   0.19102   0.38754   0.00000  Uiso   1.00
H37    H     0.28597   0.19866   0.10270   0.00000  Uiso   1.00
H38    H     0.04361   0.14787   0.40165   0.00000  Uiso   1.00
H39    H     0.01696   0.14613   0.48709   0.00000  Uiso   1.00
H40    H     0.30620   0.21988   0.02123   0.00000  Uiso   1.00
H41    H     0.09296   0.16355   0.09217   0.00000  Uiso   1.00
H42    H     0.22376   0.22111   0.41990   0.00000  Uiso   1.00
H43    H     0.18663   0.29289   0.30845   0.00000  Uiso   1.00
H44    H     0.14678   0.04041   0.19142   0.00000  Uiso   1.00
H45    H     0.06867   0.12896   0.18896   0.00000  Uiso   1.00
H46    H     0.26471   0.20460   0.31085   0.00000  Uiso   1.00
N47    N     0.04759   0.16668   0.25001   0.00000  Uiso   1.00
N48    N     0.28574   0.16666   0.24999   0.00000  Uiso   1.00
O49    O     0.12846   0.22775   0.25001   0.00000  Uiso   1.00
O50    O     0.20488   0.10558   0.25000   0.00000  Uiso   1.00
O51    O     0.20490   0.22774   0.25000   0.00000  Uiso   1.00
O52    O     0.12843   0.10559   0.25000   0.00000  Uiso   1.00
O53    O     0.10661   0.16667   0.31613   0.00000  Uiso   1.00
O54    O     0.22672   0.16666   0.18388   0.00000  Uiso   1.00
O55    O     0.18305   0.16666   0.31612   0.00000  Uiso   1.00
O56    O     0.15028   0.16667   0.18388   0.00000  Uiso   1.00
Zn57   Zn    0.11562   0.16667   0.25000   0.00000  Uiso   1.00
Zn58   Zn    0.21771   0.16666   0.25000   0.00000  Uiso   1.00
C59    C     0.18981   0.04256   0.32247   0.00000  Uiso   1.00
H60    H     0.22480   0.05949   0.30675   0.00000  Uiso   1.00
H61    H     0.15971   0.06511   0.34213   0.00000  Uiso   1.00
H62    H     0.19349   0.01997   0.34803   0.00000  Uiso   1.00
C63    C     0.14386   0.29070   0.17725   0.00000  Uiso   1.00
H64    H     0.17408   0.26825   0.15759   0.00000  Uiso   1.00
H65    H     0.10894   0.27365   0.19287   0.00000  Uiso   1.00
H66    H     0.14015   0.31329   0.15171   0.00000  Uiso   1.00
C67    C     0.31790   0.12339   0.17560   0.00000  Uiso   1.00
H68    H     0.01747   0.10409   0.15454   0.00000  Uiso   1.00
H69    H     0.28666   0.10195   0.18869   0.00000  Uiso   1.00
H70    H     0.31282   0.14671   0.15157   0.00000  Uiso   1.00
C71    C     0.01560   0.21093   0.32373   0.00000  Uiso   1.00
H72    H     0.31601   0.23028   0.34461   0.00000  Uiso   1.00
H73    H     0.02089   0.18809   0.34802   0.00000  Uiso   1.00
H74    H     0.04671   0.23246   0.31021   0.00000  Uiso   1.00
C75    C     0.50002   0.24651   0.24923   0.00000  Uiso   1.00
C76    C     0.50001   0.08681   0.25071   0.00000  Uiso   1.00
C77    C     0.43967   0.16771   0.05471   0.00000  Uiso   1.00
C78    C     0.54684   0.20873   0.45467   0.00000  Uiso   1.00
C79    C     0.40567   0.16239   0.03480   0.00000  Uiso   1.00
C80    C     0.58071   0.21393   0.47486   0.00000  Uiso   1.00
C81    C     0.51156   0.31093   0.28293   0.00000  Uiso   1.00
C82    C     0.48853   0.02238   0.21693   0.00000  Uiso   1.00
C83    C     0.51206   0.02075   0.28445   0.00000  Uiso   1.00
C84    C     0.48809   0.31255   0.21537   0.00000  Uiso   1.00
C85    C     0.50052   0.04264   0.25090   0.00000  Uiso   1.00
C86    C     0.49956   0.29067   0.24898   0.00000  Uiso   1.00
C87    C     0.65773   0.14563   0.21553   0.00000  Uiso   1.00
C88    C     0.34233   0.18796   0.28428   0.00000  Uiso   1.00
C89    C     0.37197   0.14559   0.21605   0.00000  Uiso   1.00
C90    C     0.62805   0.18785   0.28386   0.00000  Uiso   1.00
C91    C     0.46916   0.16728   0.33817   0.00000  Uiso   1.00
C92    C     0.53082   0.16685   0.16184   0.00000  Uiso   1.00
C93    C     0.44948   0.16982   0.38938   0.00000  Uiso   1.00
C94    C     0.54961   0.17239   0.11115   0.00000  Uiso   1.00
C95    C     0.38674   0.15686   0.46594   0.00000  Uiso   1.00
C96    C     0.60502   0.20475   0.04029   0.00000  Uiso   1.00
C97    C     0.40176   0.15796   0.41733   0.00000  Uiso   1.00
C98    C     0.59409   0.19193   0.08624   0.00000  Uiso   1.00
C99    C     0.48101   0.18255   0.41027   0.00000  Uiso   1.00
C100   C     0.51740   0.16450   0.08953   0.00000  Uiso   1.00
C101   C     0.46720   0.18116   0.45881   0.00000  Uiso   1.00
C102   C     0.52499   0.18109   0.04580   0.00000  Uiso   1.00
C103   C     0.41950   0.16720   0.48674   0.00000  Uiso   1.00
C104   C     0.57056   0.19983   0.02005   0.00000  Uiso   1.00
C105   C     0.50095   0.19000   0.47966   0.00000  Uiso   1.00
C106   C     0.48849   0.17916   0.02713   0.00000  Uiso   1.00
H107   H     0.36894   0.15286   0.05685   0.00000  Uiso   1.00
H108   H     0.61520   0.22873   0.45480   0.00000  Uiso   1.00
H109   H     0.48555   0.14616   0.10834   0.00000  Uiso   1.00
H110   H     0.51756   0.19102   0.38754   0.00000  Uiso   1.00
H111   H     0.61930   0.19866   0.10270   0.00000  Uiso   1.00
H112   H     0.37695   0.14787   0.40165   0.00000  Uiso   1.00
H113   H     0.35029   0.14613   0.48709   0.00000  Uiso   1.00
H114   H     0.63953   0.21988   0.02123   0.00000  Uiso   1.00
H115   H     0.42629   0.16355   0.09217   0.00000  Uiso   1.00
H116   H     0.55709   0.22111   0.41990   0.00000  Uiso   1.00
H117   H     0.51997   0.29289   0.30845   0.00000  Uiso   1.00
H118   H     0.48011   0.04041   0.19142   0.00000  Uiso   1.00
H119   H     0.40201   0.12896   0.18896   0.00000  Uiso   1.00
H120   H     0.59805   0.20460   0.31085   0.00000  Uiso   1.00
N121   N     0.38093   0.16668   0.25001   0.00000  Uiso   1.00
N122   N     0.61907   0.16666   0.24999   0.00000  Uiso   1.00
O123   O     0.46179   0.22775   0.25001   0.00000  Uiso   1.00
O124   O     0.53821   0.10558   0.25000   0.00000  Uiso   1.00
O125   O     0.53823   0.22774   0.25000   0.00000  Uiso   1.00
O126   O     0.46177   0.10559   0.25000   0.00000  Uiso   1.00
O127   O     0.43994   0.16667   0.31613   0.00000  Uiso   1.00
O128   O     0.56006   0.16666   0.18388   0.00000  Uiso   1.00
O129   O     0.51639   0.16666   0.31612   0.00000  Uiso   1.00
O130   O     0.48361   0.16667   0.18388   0.00000  Uiso   1.00
Zn131  Zn    0.44896   0.16667   0.25000   0.00000  Uiso   1.00
Zn132  Zn    0.55104   0.16666   0.25000   0.00000  Uiso   1.00
C133   C     0.52314   0.04256   0.32247   0.00000  Uiso   1.00
H134   H     0.55814   0.05949   0.30675   0.00000  Uiso   1.00
H135   H     0.49305   0.06511   0.34213   0.00000  Uiso   1.00
H136   H     0.52682   0.01997   0.34803   0.00000  Uiso   1.00
C137   C     0.47720   0.29070   0.17725   0.00000  Uiso   1.00
H138   H     0.50741   0.26825   0.15759   0.00000  Uiso   1.00
H139   H     0.44228   0.27365   0.19287   0.00000  Uiso   1.00
H140   H     0.47348   0.31329   0.15171   0.00000  Uiso   1.00
C141   C     0.65124   0.12339   0.17560   0.00000  Uiso   1.00
H142   H     0.35081   0.10409   0.15454   0.00000  Uiso   1.00
H143   H     0.62000   0.10195   0.18869   0.00000  Uiso   1.00
H144   H     0.64615   0.14671   0.15157   0.00000  Uiso   1.00
C145   C     0.34894   0.21093   0.32373   0.00000  Uiso   1.00
H146   H     0.64934   0.23028   0.34461   0.00000  Uiso   1.00
H147   H     0.35422   0.18809   0.34802   0.00000  Uiso   1.00
H148   H     0.38005   0.23246   0.31021   0.00000  Uiso   1.00
C149   C     0.83335   0.24651   0.24923   0.00000  Uiso   1.00
C150   C     0.83334   0.08681   0.25071   0.00000  Uiso   1.00
C151   C     0.77301   0.16771   0.05471   0.00000  Uiso   1.00
C152   C     0.88017   0.20873   0.45467   0.00000  Uiso   1.00
C153   C     0.73901   0.16239   0.03480   0.00000  Uiso   1.00
C154   C     0.91404   0.21393   0.47486   0.00000  Uiso   1.00
C155   C     0.84490   0.31093   0.28293   0.00000  Uiso   1.00
C156   C     0.82186   0.02238   0.21693   0.00000  Uiso   1.00
C157   C     0.84539   0.02075   0.28445   0.00000  Uiso   1.00
C158   C     0.82143   0.31255   0.21537   0.00000  Uiso   1.00
C159   C     0.83385   0.04264   0.25090   0.00000  Uiso   1.00
C160   C     0.83289   0.29067   0.24898   0.00000  Uiso   1.00
C161   C     0.99106   0.14563   0.21553   0.00000  Uiso   1.00
C162   C     0.67566   0.18796   0.28428   0.00000  Uiso   1.00
C163   C     0.70531   0.14559   0.21605   0.00000  Uiso   1.00
C164   C     0.96138   0.18785   0.28386   0.00000  Uiso   1.00
C165   C     0.80249   0.16728   0.33817   0.00000  Uiso   1.00
C166   C     0.86415   0.16685   0.16184   0.00000  Uiso   1.00
C167   C     0.78281   0.16982   0.38938   0.00000  Uiso   1.00
C168   C     0.88294   0.17239   0.11115   0.00000  Uiso   1.00
C169   C     0.72007   0.15686   0.46594   0.00000  Uiso   1.00
C170   C     0.93836   0.20475   0.04029   0.00000  Uiso   1.00
C171   C     0.73510   0.15796   0.41733   0.00000  Uiso   1.00
C172   C     0.92742   0.19193   0.08624   0.00000  Uiso   1.00
C173   C     0.81434   0.18255   0.41027   0.00000  Uiso   1.00
C174   C     0.85073   0.16450   0.08953   0.00000  Uiso   1.00
C175   C     0.80054   0.18116   0.45881   0.00000  Uiso   1.00
C176   C     0.85832   0.18109   0.04580   0.00000  Uiso   1.00
C177   C     0.75284   0.16720   0.48674   0.00000  Uiso   1.00
C178   C     0.90389   0.19983   0.02005   0.00000  Uiso   1.00
C179   C     0.83428   0.19000   0.47966   0.00000  Uiso   1.00
C180   C     0.82183   0.17916   0.02713   0.00000  Uiso   1.00
H181   H     0.70227   0.15286   0.05685   0.00000  Uiso   1.00
H182   H     0.94854   0.22873   0.45480   0.00000  Uiso   1.00
H183   H     0.81888   0.14616   0.10834   0.00000  Uiso   1.00
H184   H     0.85089   0.19102   0.38754   0.00000  Uiso   1.00
H185   H     0.95263   0.19866   0.10270   0.00000  Uiso   1.00
H186   H     0.71028   0.14787   0.40165   0.00000  Uiso   1.00
H187   H     0.68362   0.14613   0.48709   0.00000  Uiso   1.00
H188   H     0.97287   0.21988   0.02123   0.00000  Uiso   1.00
H189   H     0.75963   0.16355   0.09217   0.00000  Uiso   1.00
H190   H     0.89043   0.22111   0.41990   0.00000  Uiso   1.00
H191   H     0.85330   0.29289   0.30845   0.00000  Uiso   1.00
H192   H     0.81345   0.04041   0.19142   0.00000  Uiso   1.00
H193   H     0.73534   0.12896   0.18896   0.00000  Uiso   1.00
H194   H     0.93138   0.20460   0.31085   0.00000  Uiso   1.00
N195   N     0.71426   0.16668   0.25001   0.00000  Uiso   1.00
N196   N     0.95241   0.16666   0.24999   0.00000  Uiso   1.00
O197   O     0.79512   0.22775   0.25001   0.00000  Uiso   1.00
O198   O     0.87154   0.10558   0.25000   0.00000  Uiso   1.00
O199   O     0.87157   0.22774   0.25000   0.00000  Uiso   1.00
O200   O     0.79510   0.10559   0.25000   0.00000  Uiso   1.00
O201   O     0.77328   0.16667   0.31613   0.00000  Uiso   1.00
O202   O     0.89339   0.16666   0.18388   0.00000  Uiso   1.00
O203   O     0.84972   0.16666   0.31612   0.00000  Uiso   1.00
O204   O     0.81695   0.16667   0.18388   0.00000  Uiso   1.00
Zn205  Zn    0.78229   0.16667   0.25000   0.00000  Uiso   1.00
Zn206  Zn    0.88438   0.16666   0.25000   0.00000  Uiso   1.00
C207   C     0.85648   0.04256   0.32247   0.00000  Uiso   1.00
H208   H     0.89147   0.05949   0.30675   0.00000  Uiso   1.00
H209   H     0.82638   0.06511   0.34213   0.00000  Uiso   1.00
H210   H     0.86015   0.01997   0.34803   0.00000  Uiso   1.00
C211   C     0.81053   0.29070   0.17725   0.00000  Uiso   1.00
H212   H     0.84074   0.26825   0.15759   0.00000  Uiso   1.00
H213   H     0.77561   0.27365   0.19287   0.00000  Uiso   1.00
H214   H     0.80682   0.31329   0.15171   0.00000  Uiso   1.00
C215   C     0.98457   0.12339   0.17560   0.00000  Uiso   1.00
H216   H     0.68414   0.10409   0.15454   0.00000  Uiso   1.00
H217   H     0.95333   0.10195   0.18869   0.00000  Uiso   1.00
H218   H     0.97948   0.14671   0.15157   0.00000  Uiso   1.00
C219   C     0.68227   0.21093   0.32373   0.00000  Uiso   1.00
H220   H     0.98268   0.23028   0.34461   0.00000  Uiso   1.00
H221   H     0.68756   0.18809   0.34802   0.00000  Uiso   1.00
H222   H     0.71338   0.23246   0.31021   0.00000  Uiso   1.00
C223   C     0.16669   0.57984   0.24923   0.00000  Uiso   1.00
C224   C     0.16667   0.42015   0.25071   0.00000  Uiso   1.00
C225   C     0.10634   0.50105   0.05471   0.00000  Uiso   1.00
C226   C     0.21350   0.54207   0.45467   0.00000  Uiso   1.00
C227   C     0.07234   0.49572   0.03480   0.00000  Uiso   1.00
C228   C     0.24738   0.54727   0.47486   0.00000  Uiso   1.00
C229   C     0.17823   0.64426   0.28293   0.00000  Uiso   1.00
C230   C     0.15519   0.35571   0.21693   0.00000  Uiso   1.00
C231   C     0.17873   0.35408   0.28445   0.00000  Uiso   1.00
C232   C     0.15476   0.64588   0.21537   0.00000  Uiso   1.00
C233   C     0.16718   0.37597   0.25090   0.00000  Uiso   1.00
C234   C     0.16622   0.62400   0.24898   0.00000  Uiso   1.00
C235   C     0.32439   0.47896   0.21553   0.00000  Uiso   1.00
C236   C     0.00900   0.52130   0.28428   0.00000  Uiso   1.00
C237   C     0.03864   0.47892   0.21605   0.00000  Uiso   1.00
C238   C     0.29471   0.52118   0.28386   0.00000  Uiso   1.00
C239   C     0.13582   0.50061   0.33817   0.00000  Uiso   1.00
C240   C     0.19748   0.50018   0.16184   0.00000  Uiso   1.00
C241   C     0.11615   0.50315   0.38938   0.00000  Uiso   1.00
C242   C     0.21628   0.50572   0.11115   0.00000  Uiso   1.00
C243   C     0.05341   0.49019   0.46594   0.00000  Uiso   1.00
C244   C     0.27169   0.53808   0.04029   0.00000  Uiso   1.00
C245   C     0.06843   0.49129   0.41733   0.00000  Uiso   1.00
C246   C     0.26075   0.52526   0.08624   0.00000  Uiso   1.00
C247   C     0.14768   0.51589   0.41027   0.00000  Uiso   1.00
C248   C     0.18406   0.49783   0.08953   0.00000  Uiso   1.00
C249   C     0.13387   0.51450   0.45881   0.00000  Uiso   1.00
C250   C     0.19165   0.51443   0.04580   0.00000  Uiso   1.00
C251   C     0.08617   0.50053   0.48674   0.00000  Uiso   1.00
C252   C     0.23722   0.53316   0.02005   0.00000  Uiso   1.00
C253   C     0.16761   0.52333   0.47966   0.00000  Uiso   1.00
C254   C     0.15516   0.51250   0.02713   0.00000  Uiso   1.00
H255   H     0.03560   0.48620   0.05685   0.00000  Uiso   1.00
H256   H     0.28187   0.56206   0.45480   0.00000  Uiso   1.00
H257   H     0.15221   0.47950   0.10834   0.00000  Uiso   1.00
H258   H     0.18422   0.52435   0.38754   0.00000  Uiso   1.00
H259   H     0.28597   0.53199   0.10270   0.00000  Uiso   1.00
H260   H     0.04361   0.48120   0.40165   0.00000  Uiso   1.00
H261   H     0.01696   0.47947   0.48709   0.00000  Uiso   1.00
H262   H     0.30620   0.55321   0.02123   0.00000  Uiso   1.00
H263   H     0.09296   0.49688   0.09217   0.00000  Uiso   1.00
H264   H     0.22376   0.55444   0.41990   0.00000  Uiso   1.00
H265   H     0.18663   0.62622   0.30845   0.00000  Uiso   1.00
H266   H     0.14678   0.37375   0.19142   0.00000  Uiso   1.00
H267   H     0.06867   0.46229   0.18896   0.00000  Uiso   1.00
H268   H     0.26471   0.53793   0.31085   0.00000  Uiso   1.00
N269   N     0.04759   0.50001   0.25001   0.00000  Uiso   1.00
N270   N     0.28574   0.49999   0.24999   0.00000  Uiso   1.00
O271   O     0.12846   0.56108   0.25001   0.00000  Uiso   1.00
O272   O     0.20488   0.43892   0.25000   0.00000  Uiso   1.00
O273   O     0.20490   0.56107   0.25000   0.00000  Uiso   1.00
O274   O     0.12843   0.43893   0.25000   0.00000  Uiso   1.00
O275   O     0.10661   0.50001   0.31613   0.00000  Uiso   1.00
O276   O     0.22672   0.49999   0.18388   0.00000  Uiso   1.00
O277   O     0.18305   0.50000   0.31612   0.00000  Uiso   1.00
O278   O     0.15028   0.50000   0.18388   0.00000  Uiso   1.00
Zn279  Zn    0.11562   0.50001   0.25000   0.00000  Uiso   1.00
Zn280  Zn    0.21771   0.49999   0.25000   0.00000  Uiso   1.00
C281   C     0.18981   0.37589   0.32247   0.00000  Uiso   1.00
H282   H     0.22480   0.39283   0.30675   0.00000  Uiso   1.00
H283   H     0.15971   0.39845   0.34213   0.00000  Uiso   1.00
H284   H     0.19349   0.35330   0.34803   0.00000  Uiso   1.00
C285   C     0.14386   0.62404   0.17725   0.00000  Uiso   1.00
H286   H     0.17408   0.60158   0.15759   0.00000  Uiso   1.00
H287   H     0.10894   0.60698   0.19287   0.00000  Uiso   1.00
H288   H     0.14015   0.64662   0.15171   0.00000  Uiso   1.00
C289   C     0.31790   0.45672   0.17560   0.00000  Uiso   1.00
H290   H     0.01747   0.43742   0.15454   0.00000  Uiso   1.00
H291   H     0.28666   0.43528   0.18869   0.00000  Uiso   1.00
H292   H     0.31282   0.48004   0.15157   0.00000  Uiso   1.00
C293   C     0.01560   0.54426   0.32373   0.00000  Uiso   1.00
H294   H     0.31601   0.56362   0.34461   0.00000  Uiso   1.00
H295   H     0.02089   0.52143   0.34802   0.00000  Uiso   1.00
H296   H     0.04671   0.56579   0.31021   0.00000  Uiso   1.00
C297   C     0.50002   0.57984   0.24923   0.00000  Uiso   1.00
C298   C     0.50001   0.42015   0.25071   0.00000  Uiso   1.00
C299   C     0.43967   0.50105   0.05471   0.00000  Uiso   1.00
C300   C     0.54684   0.54207   0.45467   0.00000  Uiso   1.00
C301   C     0.40567   0.49572   0.03480   0.00000  Uiso   1.00
C302   C     0.58071   0.54727   0.47486   0.00000  Uiso   1.00
C303   C     0.51156   0.64426   0.28293   0.00000  Uiso   1.00
C304   C     0.48853   0.35571   0.21693   0.00000  Uiso   1.00
C305   C     0.51206   0.35408   0.28445   0.00000  Uiso   1.00
C306   C     0.48809   0.64588   0.21537   0.00000  Uiso   1.00
C307   C     0.50052   0.37597   0.25090   0.00000  Uiso   1.00
C308   C     0.49956   0.62400   0.24898   0.00000  Uiso   1.00
C309   C     0.65773   0.47896   0.21553   0.00000  Uiso   1.00
C310   C     0.34233   0.52130   0.28428   0.00000  Uiso   1.00
C311   C     0.37197   0.47892   0.21605   0.00000  Uiso   1.00
C312   C     0.62805   0.52118   0.28386   0.00000  Uiso   1.00
C313   C     0.46916   0.50061   0.33817   0.00000  Uiso   1.00
C314   C     0.53082   0.50018   0.16184   0.00000  Uiso   1.00
C315   C     0.44948   0.50315   0.38938   0.00000  Uiso   1.00
C316   C     0.54961   0.50572   0.11115   0.00000  Uiso   1.00
C317   C     0.38674   0.49019   0.46594   0.00000  Uiso   1.00
C318   C     0.60502   0.53808   0.04029   0.00000  Uiso   1.00
C319   C     0.40176   0.49129   0.41733   0.00000  Uiso   1.00
C320   C     0.59409   0.52526   0.08624   0.00000  Uiso   1.00
C321   C     0.48101   0.51589   0.41027   0.00000  Uiso   1.00
C322   C     0.51740   0.49783   0.08953   0.00000  Uiso   1.00
C323   C     0.46720   0.51450   0.45881   0.00000  Uiso   1.00
C324   C     0.52499   0.51443   0.04580   0.00000  Uiso   1.00
C325   C     0.41950   0.50053   0.48674   0.00000  Uiso   1.00
C326   C     0.57056   0.53316   0.02005   0.00000  Uiso   1.00
C327   C     0.50095   0.52333   0.47966   0.00000  Uiso   1.00
C328   C     0.48849   0.51250   0.02713   0.00000  Uiso   1.00
H329   H     0.36894   0.48620   0.05685   0.00000  Uiso   1.00
H330   H     0.61520   0.56206   0.45480   0.00000  Uiso   1.00
H331   H     0.48555   0.47950   0.10834   0.00000  Uiso   1.00
H332   H     0.51756   0.52435   0.38754   0.00000  Uiso   1.00
H333   H     0.61930   0.53199   0.10270   0.00000  Uiso   1.00
H334   H     0.37695   0.48120   0.40165   0.00000  Uiso   1.00
H335   H     0.35029   0.47947   0.48709   0.00000  Uiso   1.00
H336   H     0.63953   0.55321   0.02123   0.00000  Uiso   1.00
H337   H     0.42629   0.49688   0.09217   0.00000  Uiso   1.00
H338   H     0.55709   0.55444   0.41990   0.00000  Uiso   1.00
H339   H     0.51997   0.62622   0.30845   0.00000  Uiso   1.00
H340   H     0.48011   0.37375   0.19142   0.00000  Uiso   1.00
H341   H     0.40201   0.46229   0.18896   0.00000  Uiso   1.00
H342   H     0.59805   0.53793   0.31085   0.00000  Uiso   1.00
N343   N     0.38093   0.50001   0.25001   0.00000  Uiso   1.00
N344   N     0.61907   0.49999   0.24999   0.00000  Uiso   1.00
O345   O     0.46179   0.56108   0.25001   0.00000  Uiso   1.00
O346   O     0.53821   0.43892   0.25000   0.00000  Uiso   1.00
O347   O     0.53823   0.56107   0.25000   0.00000  Uiso   1.00
O348   O     0.46177   0.43893   0.25000   0.00000  Uiso   1.00
O349   O     0.43994   0.50001   0.31613   0.00000  Uiso   1.00
O350   O     0.56006   0.49999   0.18388   0.00000  Uiso   1.00
O351   O     0.51639   0.50000   0.31612   0.00000  Uiso   1.00
O352   O     0.48361   0.50000   0.18388   0.00000  Uiso   1.00
Zn353  Zn    0.44896   0.50001   0.25000   0.00000  Uiso   1.00
Zn354  Zn    0.55104   0.49999   0.25000   0.00000  Uiso   1.00
C355   C     0.52314   0.37589   0.32247   0.00000  Uiso   1.00
H356   H     0.55814   0.39283   0.30675   0.00000  Uiso   1.00
H357   H     0.49305   0.39845   0.34213   0.00000  Uiso   1.00
H358   H     0.52682   0.35330   0.34803   0.00000  Uiso   1.00
C359   C     0.47720   0.62404   0.17725   0.00000  Uiso   1.00
H360   H     0.50741   0.60158   0.15759   0.00000  Uiso   1.00
H361   H     0.44228   0.60698   0.19287   0.00000  Uiso   1.00
H362   H     0.47348   0.64662   0.15171   0.00000  Uiso   1.00
C363   C     0.65124   0.45672   0.17560   0.00000  Uiso   1.00
H364   H     0.35081   0.43742   0.15454   0.00000  Uiso   1.00
H365   H     0.62000   0.43528   0.18869   0.00000  Uiso   1.00
H366   H     0.64615   0.48004   0.15157   0.00000  Uiso   1.00
C367   C     0.34894   0.54426   0.32373   0.00000  Uiso   1.00
H368   H     0.64934   0.56362   0.34461   0.00000  Uiso   1.00
H369   H     0.35422   0.52143   0.34802   0.00000  Uiso   1.00
H370   H     0.38005   0.56579   0.31021   0.00000  Uiso   1.00
C371   C     0.83335   0.57984   0.24923   0.00000  Uiso   1.00
C372   C     0.83334   0.42015   0.25071   0.00000  Uiso   1.00
C373   C     0.77301   0.50105   0.05471   0.00000  Uiso   1.00
C374   C     0.88017   0.54207   0.45467   0.00000  Uiso   1.00
C375   C     0.73901   0.49572   0.03480   0.00000  Uiso   1.00
C376   C     0.91404   0.54727   0.47486   0.00000  Uiso   1.00
C377   C     0.84490   0.64426   0.28293   0.00000  Uiso   1.00
C378   C     0.82186   0.35571   0.21693   0.00000  Uiso   1.00
C379   C     0.84539   0.35408   0.28445   0.00000  Uiso   1.00
C380   C     0.82143   0.64588   0.21537   0.00000  Uiso   1.00
C381   C     0.83385   0.37597   0.25090   0.00000  Uiso   1.00
C382   C     0.83289   0.62400   0.24898   0.00000  Uiso   1.00
C383   C     0.99106   0.47896   0.21553   0.00000  Uiso   1.00
C384   C     0.67566   0.52130   0.28428   0.00000  Uiso   1.00
C385   C     0.70531   0.47892   0.21605   0.00000  Uiso   1.00
C386   C     0.96138   0.52118   0.28386   0.00000  Uiso   1.00
C387   C     0.80249   0.50061   0.33817   0.00000  Uiso   1.00
C388   C     0.86415   0.50018   0.16184   0.00000  Uiso   1.00
C389   C     0.78281   0.50315   0.38938   0.00000  Uiso   1.00
C390   C     0.88294   0.50572   0.11115   0.00000  Uiso   1.00
C391   C     0.72007   0.49019   0.46594   0.00000  Uiso   1.00
C392   C     0.93836   0.53808   0.04029   0.00000  Uiso   1.00
C393   C     0.73510   0.49129   0.41733   0.00000  Uiso   1.00
C394   C     0.92742   0.52526   0.08624   0.00000  Uiso   1.00
C395   C     0.81434   0.51589   0.41027   0.00000  Uiso   1.00
C396   C     0.85073   0.49783   0.08953   0.00000  Uiso   1.00
C397   C     0.80054   0.51450   0.45881   0.00000  Uiso   1.00
C398   C     0.85832   0.51443   0.04580   0.00000  Uiso   1.00
C399   C     0.75284   0.50053   0.48674   0.00000  Uiso   1.00
C400   C     0.90389   0.53316   0.02005   0.00000  Uiso   1.00
C401   C     0.83428   0.52333   0.47966   0.00000  Uiso   1.00
C402   C     0.82183   0.51250   0.02713   0.00000  Uiso   1.00
H403   H     0.70227   0.48620   0.05685   0.00000  Uiso   1.00
H404   H     0.94854   0.56206   0.45480   0.00000  Uiso   1.00
H405   H     0.81888   0.47950   0.10834   0.00000  Uiso   1.00
H406   H     0.85089   0.52435   0.38754   0.00000  Uiso   1.00
H407   H     0.95263   0.53199   0.10270   0.00000  Uiso   1.00
H408   H     0.71028   0.48120   0.40165   0.00000  Uiso   1.00
H409   H     0.68362   0.47947   0.48709   0.00000  Uiso   1.00
H410   H     0.97287   0.55321   0.02123   0.00000  Uiso   1.00
H411   H     0.75963   0.49688   0.09217   0.00000  Uiso   1.00
H412   H     0.89043   0.55444   0.41990   0.00000  Uiso   1.00
H413   H     0.85330   0.62622   0.30845   0.00000  Uiso   1.00
H414   H     0.81345   0.37375   0.19142   0.00000  Uiso   1.00
H415   H     0.73534   0.46229   0.18896   0.00000  Uiso   1.00
H416   H     0.93138   0.53793   0.31085   0.00000  Uiso   1.00
N417   N     0.71426   0.50001   0.25001   0.00000  Uiso   1.00
N418   N     0.95241   0.49999   0.24999   0.00000  Uiso   1.00
O419   O     0.79512   0.56108   0.25001   0.00000  Uiso   1.00
O420   O     0.87154   0.43892   0.25000   0.00000  Uiso   1.00
O421   O     0.87157   0.56107   0.25000   0.00000  Uiso   1.00
O422   O     0.79510   0.43893   0.25000   0.00000  Uiso   1.00
O423   O     0.77328   0.50001   0.31613   0.00000  Uiso   1.00
O424   O     0.89339   0.49999   0.18388   0.00000  Uiso   1.00
O425   O     0.84972   0.50000   0.31612   0.00000  Uiso   1.00
O426   O     0.81695   0.50000   0.18388   0.00000  Uiso   1.00
Zn427  Zn    0.78229   0.50001   0.25000   0.00000  Uiso   1.00
Zn428  Zn    0.88438   0.49999   0.25000   0.00000  Uiso   1.00
C429   C     0.85648   0.37589   0.32247   0.00000  Uiso   1.00
H430   H     0.89147   0.39283   0.30675   0.00000  Uiso   1.00
H431   H     0.82638   0.39845   0.34213   0.00000  Uiso   1.00
H432   H     0.86015   0.35330   0.34803   0.00000  Uiso   1.00
C433   C     0.81053   0.62404   0.17725   0.00000  Uiso   1.00
H434   H     0.84074   0.60158   0.15759   0.00000  Uiso   1.00
H435   H     0.77561   0.60698   0.19287   0.00000  Uiso   1.00
H436   H     0.80682   0.64662   0.15171   0.00000  Uiso   1.00
C437   C     0.98457   0.45672   0.17560   0.00000  Uiso   1.00
H438   H     0.68414   0.43742   0.15454   0.00000  Uiso   1.00
H439   H     0.95333   0.43528   0.18869   0.00000  Uiso   1.00
H440   H     0.97948   0.48004   0.15157   0.00000  Uiso   1.00
C441   C     0.68227   0.54426   0.32373   0.00000  Uiso   1.00
H442   H     0.98268   0.56362   0.34461   0.00000  Uiso   1.00
H443   H     0.68756   0.52143   0.34802   0.00000  Uiso   1.00
H444   H     0.71338   0.56579   0.31021   0.00000  Uiso   1.00
C445   C     0.16669   0.91318   0.24923   0.00000  Uiso   1.00
C446   C     0.16667   0.75348   0.25071   0.00000  Uiso   1.00
C447   C     0.10634   0.83438   0.05471   0.00000  Uiso   1.00
C448   C     0.21350   0.87540   0.45467   0.00000  Uiso   1.00
C449   C     0.07234   0.82905   0.03480   0.00000  Uiso   1.00
C450   C     0.24738   0.88060   0.47486   0.00000  Uiso   1.00
C451   C     0.17823   0.97759   0.28293   0.00000  Uiso   1.00
C452   C     0.15519   0.68905   0.21693   0.00000  Uiso   1.00
C453   C     0.17873   0.68741   0.28445   0.00000  Uiso   1.00
C454   C     0.15476   0.97921   0.21537   0.00000  Uiso   1.00
C455   C     0.16718   0.70931   0.25090   0.00000  Uiso   1.00
C456   C     0.16622   0.95734   0.24898   0.00000  Uiso   1.00
C457   C     0.32439   0.81230   0.21553   0.00000  Uiso   1.00
C458   C     0.00900   0.85463   0.28428   0.00000  Uiso   1.00
C459   C     0.03864   0.81226   0.21605   0.00000  Uiso   1.00
C460   C     0.29471   0.85451   0.28386   0.00000  Uiso   1.00
C461   C     0.13582   0.83395   0.33817   0.00000  Uiso   1.00
C462   C     0.19748   0.83351   0.16184   0.00000  Uiso   1.00
C463   C     0.11615   0.83649   0.38938   0.00000  Uiso   1.00
C464   C     0.21628   0.83905   0.11115   0.00000  Uiso   1.00
C465   C     0.05341   0.82352   0.46594   0.00000  Uiso   1.00
C466   C     0.27169   0.87142   0.04029   0.00000  Uiso   1.00
C467   C     0.06843   0.82463   0.41733   0.00000  Uiso   1.00
C468   C     0.26075   0.85860   0.08624   0.00000  Uiso   1.00
C469   C     0.14768   0.84922   0.41027   0.00000  Uiso   1.00
C470   C     0.18406   0.83116   0.08953   0.00000  Uiso   1.00
C471   C     0.13387   0.84783   0.45881   0.00000  Uiso   1.00
C472   C     0.19165   0.84776   0.04580   0.00000  Uiso   1.00
C473   C     0.08617   0.83387   0.48674   0.00000  Uiso   1.00
C474   C     0.23722   0.86649   0.02005   0.00000  Uiso   1.00
C475   C     0.16761   0.85666   0.47966   0.00000  Uiso   1.00
C476   C     0.15516   0.84583   0.02713   0.00000  Uiso   1.00
H477   H     0.03560   0.81953   0.05685   0.00000  Uiso   1.00
H478   H     0.28187   0.89539   0.45480   0.00000  Uiso   1.00
H479   H     0.15221   0.81283   0.10834   0.00000  Uiso   1.00
H480   H     0.18422   0.85769   0.38754   0.00000  Uiso   1.00
H481   H     0.28597   0.86533   0.10270   0.00000  Uiso   1.00
H482   H     0.04361   0.81453   0.40165   0.00000  Uiso   1.00
H483   H     0.01696   0.81280   0.48709   0.00000  Uiso   1.00
H484   H     0.30620   0.88655   0.02123   0.00000  Uiso   1.00
H485   H     0.09296   0.83021   0.09217   0.00000  Uiso   1.00
H486   H     0.22376   0.88778   0.41990   0.00000  Uiso   1.00
H487   H     0.18663   0.95956   0.30845   0.00000  Uiso   1.00
H488   H     0.14678   0.70708   0.19142   0.00000  Uiso   1.00
H489   H     0.06867   0.79563   0.18896   0.00000  Uiso   1.00
H490   H     0.26471   0.87127   0.31085   0.00000  Uiso   1.00
N491   N     0.04759   0.83334   0.25001   0.00000  Uiso   1.00
N492   N     0.28574   0.83332   0.24999   0.00000  Uiso   1.00
O493   O     0.12846   0.89442   0.25001   0.00000  Uiso   1.00
O494   O     0.20488   0.77225   0.25000   0.00000  Uiso   1.00
O495   O     0.20490   0.89441   0.25000   0.00000  Uiso   1.00
O496   O     0.12843   0.77226   0.25000   0.00000  Uiso   1.00
O497   O     0.10661   0.83334   0.31613   0.00000  Uiso   1.00
O498   O     0.22672   0.83333   0.18388   0.00000  Uiso   1.00
O499   O     0.18305   0.83333   0.31612   0.00000  Uiso   1.00
O500   O     0.15028   0.83334   0.18388   0.00000  Uiso   1.00
Zn501  Zn    0.11562   0.83334   0.25000   0.00000  Uiso   1.00
Zn502  Zn    0.21771   0.83333   0.25000   0.00000  Uiso   1.00
C503   C     0.18981   0.70923   0.32247   0.00000  Uiso   1.00
H504   H     0.22480   0.72616   0.30675   0.00000  Uiso   1.00
H505   H     0.15971   0.73178   0.34213   0.00000  Uiso   1.00
H506   H     0.19349   0.68664   0.34803   0.00000  Uiso   1.00
C507   C     0.14386   0.95737   0.17725   0.00000  Uiso   1.00
H508   H     0.17408   0.93491   0.15759   0.00000  Uiso   1.00
H509   H     0.10894   0.94031   0.19287   0.00000  Uiso   1.00
H510   H     0.14015   0.97996   0.15171   0.00000  Uiso   1.00
C511   C     0.31790   0.79006   0.17560   0.00000  Uiso   1.00
H512   H     0.01747   0.77075   0.15454   0.00000  Uiso   1.00
H513   H     0.28666   0.76862   0.18869   0.00000  Uiso   1.00
H514   H     0.31282   0.81337   0.15157   0.00000  Uiso   1.00
C515   C     0.01560   0.87760   0.32373   0.00000  Uiso   1.00
H516   H     0.31601   0.89695   0.34461   0.00000  Uiso   1.00
H517   H     0.02089   0.85476   0.34802   0.00000  Uiso   1.00
H518   H     0.04671   0.89912   0.31021   0.00000  Uiso   1.00
C519   C     0.50002   0.91318   0.24923   0.00000  Uiso   1.00
C520   C     0.50001   0.75348   0.25071   0.00000  Uiso   1.00
C521   C     0.43967   0.83438   0.05471   0.00000  Uiso   1.00
C522   C     0.54684   0.87540   0.45467   0.00000  Uiso   1.00
C523   C     0.40567   0.82905   0.03480   0.00000  Uiso   1.00
C524   C     0.58071   0.88060   0.47486   0.00000  Uiso   1.00
C525   C     0.51156   0.97759   0.28293   0.00000  Uiso   1.00
C526   C     0.48853   0.68905   0.21693   0.00000  Uiso   1.00
C527   C     0.51206   0.68741   0.28445   0.00000  Uiso   1.00
C528   C     0.48809   0.97921   0.21537   0.00000  Uiso   1.00
C529   C     0.50052   0.70931   0.25090   0.00000  Uiso   1.00
C530   C     0.49956   0.95734   0.24898   0.00000  Uiso   1.00
C531   C     0.65773   0.81230   0.21553   0.00000  Uiso   1.00
C532   C     0.34233   0.85463   0.28428   0.00000  Uiso   1.00
C533   C     0.37197   0.81226   0.21605   0.00000  Uiso   1.00
C534   C     0.62805   0.85451   0.28386   0.00000  Uiso   1.00
C535   C     0.46916   0.83395   0.33817   0.00000  Uiso   1.00
C536   C     0.53082   0.83351   0.16184   0.00000  Uiso   1.00
C537   C     0.44948   0.83649   0.38938   0.00000  Uiso   1.00
C538   C     0.54961   0.83905   0.11115   0.00000  Uiso   1.00
C539   C     0.38674   0.82352   0.46594   0.00000  Uiso   1.00
C540   C     0.60502   0.87142   0.04029   0.00000  Uiso   1.00
C541   C     0.40176   0.82463   0.41733   0.00000  Uiso   1.00
C542   C     0.59409   0.85860   0.08624   0.00000  Uiso   1.00
C543   C     0.48101   0.84922   0.41027   0.00000  Uiso   1.00
C544   C     0.51740   0.83116   0.08953   0.00000  Uiso   1.00
C545   C     0.46720   0.84783   0.45881   0.00000  Uiso   1.00
C546   C     0.52499   0.84776   0.04580   0.00000  Uiso   1.00
C547   C     0.41950   0.83387   0.48674   0.00000  Uiso   1.00
C548   C     0.57056   0.86649   0.02005   0.00000  Uiso   1.00
C549   C     0.50095   0.85666   0.47966   0.00000  Uiso   1.00
C550   C     0.48849   0.84583   0.02713   0.00000  Uiso   1.00
H551   H     0.36894   0.81953   0.05685   0.00000  Uiso   1.00
H552   H     0.61520   0.89539   0.45480   0.00000  Uiso   1.00
H553   H     0.48555   0.81283   0.10834   0.00000  Uiso   1.00
H554   H     0.51756   0.85769   0.38754   0.00000  Uiso   1.00
H555   H     0.61930   0.86533   0.10270   0.00000  Uiso   1.00
H556   H     0.37695   0.81453   0.40165   0.00000  Uiso   1.00
H557   H     0.35029   0.81280   0.48709   0.00000  Uiso   1.00
H558   H     0.63953   0.88655   0.02123   0.00000  Uiso   1.00
H559   H     0.42629   0.83021   0.09217   0.00000  Uiso   1.00
H560   H     0.55709   0.88778   0.41990   0.00000  Uiso   1.00
H561   H     0.51997   0.95956   0.30845   0.00000  Uiso   1.00
H562   H     0.48011   0.70708   0.19142   0.00000  Uiso   1.00
H563   H     0.40201   0.79563   0.18896   0.00000  Uiso   1.00
H564   H     0.59805   0.87127   0.31085   0.00000  Uiso   1.00
N565   N     0.38093   0.83334   0.25001   0.00000  Uiso   1.00
N566   N     0.61907   0.83332   0.24999   0.00000  Uiso   1.00
O567   O     0.46179   0.89442   0.25001   0.00000  Uiso   1.00
O568   O     0.53821   0.77225   0.25000   0.00000  Uiso   1.00
O569   O     0.53823   0.89441   0.25000   0.00000  Uiso   1.00
O570   O     0.46177   0.77226   0.25000   0.00000  Uiso   1.00
O571   O     0.43994   0.83334   0.31613   0.00000  Uiso   1.00
O572   O     0.56006   0.83333   0.18388   0.00000  Uiso   1.00
O573   O     0.51639   0.83333   0.31612   0.00000  Uiso   1.00
O574   O     0.48361   0.83334   0.18388   0.00000  Uiso   1.00
Zn575  Zn    0.44896   0.83334   0.25000   0.00000  Uiso   1.00
Zn576  Zn    0.55104   0.83333   0.25000   0.00000  Uiso   1.00
C577   C     0.52314   0.70923   0.32247   0.00000  Uiso   1.00
H578   H     0.55814   0.72616   0.30675   0.00000  Uiso   1.00
H579   H     0.49305   0.73178   0.34213   0.00000  Uiso   1.00
H580   H     0.52682   0.68664   0.34803   0.00000  Uiso   1.00
C581   C     0.47720   0.95737   0.17725   0.00000  Uiso   1.00
H582   H     0.50741   0.93491   0.15759   0.00000  Uiso   1.00
H583   H     0.44228   0.94031   0.19287   0.00000  Uiso   1.00
H584   H     0.47348   0.97996   0.15171   0.00000  Uiso   1.00
C585   C     0.65124   0.79006   0.17560   0.00000  Uiso   1.00
H586   H     0.35081   0.77075   0.15454   0.00000  Uiso   1.00
H587   H     0.62000   0.76862   0.18869   0.00000  Uiso   1.00
H588   H     0.64615   0.81337   0.15157   0.00000  Uiso   1.00
C589   C     0.34894   0.87760   0.32373   0.00000  Uiso   1.00
H590   H     0.64934   0.89695   0.34461   0.00000  Uiso   1.00
H591   H     0.35422   0.85476   0.34802   0.00000  Uiso   1.00
H592   H     0.38005   0.89912   0.31021   0.00000  Uiso   1.00
C593   C     0.83335   0.91318   0.24923   0.00000  Uiso   1.00
C594   C     0.83334   0.75348   0.25071   0.00000  Uiso   1.00
C595   C     0.77301   0.83438   0.05471   0.00000  Uiso   1.00
C596   C     0.88017   0.87540   0.45467   0.00000  Uiso   1.00
C597   C     0.73901   0.82905   0.03480   0.00000  Uiso   1.00
C598   C     0.91404   0.88060   0.47486   0.00000  Uiso   1.00
C599   C     0.84490   0.97759   0.28293   0.00000  Uiso   1.00
C600   C     0.82186   0.68905   0.21693   0.00000  Uiso   1.00
C601   C     0.84539   0.68741   0.28445   0.00000  Uiso   1.00
C602   C     0.82143   0.97921   0.21537   0.00000  Uiso   1.00
C603   C     0.83385   0.70931   0.25090   0.00000  Uiso   1.00
C604   C     0.83289   0.95734   0.24898   0.00000  Uiso   1.00
C605   C     0.99106   0.81230   0.21553   0.00000  Uiso   1.00
C606   C     0.67566   0.85463   0.28428   0.00000  Uiso   1.00
C607   C     0.70531   0.81226   0.21605   0.00000  Uiso   1.00
C608   C     0.96138   0.85451   0.28386   0.00000  Uiso   1.00
C609   C     0.80249   0.83395   0.33817   0.00000  Uiso   1.00
C610   C     0.86415   0.83351   0.16184   0.00000  Uiso   1.00
C611   C     0.78281   0.83649   0.38938   0.00000  Uiso   1.00
C612   C     0.88294   0.83905   0.11115   0.00000  Uiso   1.00
C613   C     0.72007   0.82352   0.46594   0.00000  Uiso   1.00
C614   C     0.93836   0.87142   0.04029   0.00000  Uiso   1.00
C615   C     0.73510   0.82463   0.41733   0.00000  Uiso   1.00
C616   C     0.92742   0.85860   0.08624   0.00000  Uiso   1.00
C617   C     0.81434   0.84922   0.41027   0.00000  Uiso   1.00
C618   C     0.85073   0.83116   0.08953   0.00000  Uiso   1.00
C619   C     0.80054   0.84783   0.45881   0.00000  Uiso   1.00
C620   C     0.85832   0.84776   0.04580   0.00000  Uiso   1.00
C621   C     0.75284   0.83387   0.48674   0.00000  Uiso   1.00
C622   C     0.90389   0.86649   0.02005   0.00000  Uiso   1.00
C623   C     0.83428   0.85666   0.47966   0.00000  Uiso   1.00
C624   C     0.82183   0.84583   0.02713   0.00000  Uiso   1.00
H625   H     0.70227   0.81953   0.05685   0.00000  Uiso   1.00
H626   H     0.94854   0.89539   0.45480   0.00000  Uiso   1.00
H627   H     0.81888   0.81283   0.10834   0.00000  Uiso   1.00
H628   H     0.85089   0.85769   0.38754   0.00000  Uiso   1.00
H629   H     0.95263   0.86533   0.10270   0.00000  Uiso   1.00
H630   H     0.71028   0.81453   0.40165   0.00000  Uiso   1.00
H631   H     0.68362   0.81280   0.48709   0.00000  Uiso   1.00
H632   H     0.97287   0.88655   0.02123   0.00000  Uiso   1.00
H633   H     0.75963   0.83021   0.09217   0.00000  Uiso   1.00
H634   H     0.89043   0.88778   0.41990   0.00000  Uiso   1.00
H635   H     0.85330   0.95956   0.30845   0.00000  Uiso   1.00
H636   H     0.81345   0.70708   0.19142   0.00000  Uiso   1.00
H637   H     0.73534   0.79563   0.18896   0.00000  Uiso   1.00
H638   H     0.93138   0.87127   0.31085   0.00000  Uiso   1.00
N639   N     0.71426   0.83334   0.25001   0.00000  Uiso   1.00
N640   N     0.95241   0.83332   0.24999   0.00000  Uiso   1.00
O641   O     0.79512   0.89442   0.25001   0.00000  Uiso   1.00
O642   O     0.87154   0.77225   0.25000   0.00000  Uiso   1.00
O643   O     0.87157   0.89441   0.25000   0.00000  Uiso   1.00
O644   O     0.79510   0.77226   0.25000   0.00000  Uiso   1.00
O645   O     0.77328   0.83334   0.31613   0.00000  Uiso   1.00
O646   O     0.89339   0.83333   0.18388   0.00000  Uiso   1.00
O647   O     0.84972   0.83333   0.31612   0.00000  Uiso   1.00
O648   O     0.81695   0.83334   0.18388   0.00000  Uiso   1.00
Zn649  Zn    0.78229   0.83334   0.25000   0.00000  Uiso   1.00
Zn650  Zn    0.88438   0.83333   0.25000   0.00000  Uiso   1.00
C651   C     0.85648   0.70923   0.32247   0.00000  Uiso   1.00
H652   H     0.89147   0.72616   0.30675   0.00000  Uiso   1.00
H653   H     0.82638   0.73178   0.34213   0.00000  Uiso   1.00
H654   H     0.86015   0.68664   0.34803   0.00000  Uiso   1.00
C655   C     0.81053   0.95737   0.17725   0.00000  Uiso   1.00
H656   H     0.84074   0.93491   0.15759   0.00000  Uiso   1.00
H657   H     0.77561   0.94031   0.19287   0.00000  Uiso   1.00
H658   H     0.80682   0.97996   0.15171   0.00000  Uiso   1.00
C659   C     0.98457   0.79006   0.17560   0.00000  Uiso   1.00
H660   H     0.68414   0.77075   0.15454   0.00000  Uiso   1.00
H661   H     0.95333   0.76862   0.18869   0.00000  Uiso   1.00
H662   H     0.97948   0.81337   0.15157   0.00000  Uiso   1.00
C663   C     0.68227   0.87760   0.32373   0.00000  Uiso   1.00
H664   H     0.98268   0.89695   0.34461   0.00000  Uiso   1.00
H665   H     0.68756   0.85476   0.34802   0.00000  Uiso   1.00
H666   H     0.71338   0.89912   0.31021   0.00000  Uiso   1.00
C667   C     0.16669   0.24651   0.74923   0.00000  Uiso   1.00
C668   C     0.16667   0.08681   0.75071   0.00000  Uiso   1.00
C669   C     0.10634   0.16771   0.55471   0.00000  Uiso   1.00
C670   C     0.21350   0.20873   0.95467   0.00000  Uiso   1.00
C671   C     0.07234   0.16239   0.53480   0.00000  Uiso   1.00
C672   C     0.24738   0.21393   0.97486   0.00000  Uiso   1.00
C673   C     0.17823   0.31093   0.78293   0.00000  Uiso   1.00
C674   C     0.15519   0.02238   0.71693   0.00000  Uiso   1.00
C675   C     0.17873   0.02075   0.78445   0.00000  Uiso   1.00
C676   C     0.15476   0.31255   0.71537   0.00000  Uiso   1.00
C677   C     0.16718   0.04264   0.75090   0.00000  Uiso   1.00
C678   C     0.16622   0.29067   0.74898   0.00000  Uiso   1.00
C679   C     0.32439   0.14563   0.71553   0.00000  Uiso   1.00
C680   C     0.00900   0.18796   0.78428   0.00000  Uiso   1.00
C681   C     0.03864   0.14559   0.71605   0.00000  Uiso   1.00
C682   C     0.29471   0.18785   0.78386   0.00000  Uiso   1.00
C683   C     0.13582   0.16728   0.83817   0.00000  Uiso   1.00
C684   C     0.19748   0.16685   0.66184   0.00000  Uiso   1.00
C685   C     0.11615   0.16982   0.88938   0.00000  Uiso   1.00
C686   C     0.21628   0.17239   0.61115   0.00000  Uiso   1.00
C687   C     0.05341   0.15686   0.96594   0.00000  Uiso   1.00
C688   C     0.27169   0.20475   0.54029   0.00000  Uiso   1.00
C689   C     0.06843   0.15796   0.91733   0.00000  Uiso   1.00
C690   C     0.26075   0.19193   0.58624   0.00000  Uiso   1.00
C691   C     0.14768   0.18255   0.91027   0.00000  Uiso   1.00
C692   C     0.18406   0.16450   0.58953   0.00000  Uiso   1.00
C693   C     0.13387   0.18116   0.95881   0.00000  Uiso   1.00
C694   C     0.19165   0.18109   0.54580   0.00000  Uiso   1.00
C695   C     0.08617   0.16720   0.98674   0.00000  Uiso   1.00
C696   C     0.23722   0.19983   0.52005   0.00000  Uiso   1.00
C697   C     0.16761   0.19000   0.97966   0.00000  Uiso   1.00
C698   C     0.15516   0.17916   0.52713   0.00000  Uiso   1.00
H699   H     0.03560   0.15286   0.55685   0.00000  Uiso   1.00
H700   H     0.28187   0.22873   0.95480   0.00000  Uiso   1.00
H701   H     0.15221   0.14616   0.60834   0.00000  Uiso   1.00
H702   H     0.18422   0.19102   0.88754   0.00000  Uiso   1.00
H703   H     0.28597   0.19866   0.60270   0.00000  Uiso   1.00
H704   H     0.04361   0.14787   0.90165   0.00000  Uiso   1.00
H705   H     0.01696   0.14613   0.98709   0.00000  Uiso   1.00
H706   H     0.30620   0.21988   0.52123   0.00000  Uiso   1.00
H707   H     0.09296   0.16355   0.59217   0.00000  Uiso   1.00
H708   H     0.22376   0.22111   0.91990   0.00000  Uiso   1.00
H709   H     0.18663   0.29289   0.80845   0.00000  Uiso   1.00
H710   H     0.14678   0.04041   0.69142   0.00000  Uiso   1.00
H711   H     0.06867   0.12896   0.68896   0.00000  Uiso   1.00
H712   H     0.26471   0.20460   0.81085   0.00000  Uiso   1.00
N713   N     0.04759   0.16668   0.75001   0.00000  Uiso   1.00
N714   N     0.28574   0.16666   0.74999   0.00000  Uiso   1.00
O715   O     0.12846   0.22775   0.75001   0.00000  Uiso   1.00
O716   O     0.20488   0.10558   0.75000   0.00000  Uiso   1.00
O717   O     0.20490   0.22774   0.75000   0.00000  Uiso   1.00
O718   O     0.12843   0.10559   0.75000   0.00000  Uiso   1.00
O719   O     0.10661   0.16667   0.81613   0.00000  Uiso   1.00
O720   O     0.22672   0.16666   0.68388   0.00000  Uiso   1.00
O721   O     0.18305   0.16666   0.81612   0.00000  Uiso   1.00
O722   O     0.15028   0.16667   0.68388   0.00000  Uiso   1.00
Zn723  Zn    0.11562   0.16667   0.75000   0.00000  Uiso   1.00
Zn724  Zn    0.21771   0.16666   0.75000   0.00000  Uiso   1.00
C725   C     0.18981   0.04256   0.82247   0.00000  Uiso   1.00
H726   H     0.22480   0.05949   0.80675   0.00000  Uiso   1.00
H727   H     0.15971   0.06511   0.84213   0.00000  Uiso   1.00
H728   H     0.19349   0.01997   0.84803   0.00000  Uiso   1.00
C729   C     0.14386   0.29070   0.67725   0.00000  Uiso   1.00
H730   H     0.17408   0.26825   0.65759   0.00000  Uiso   1.00
H731   H     0.10894   0.27365   0.69287   0.00000  Uiso   1.00
H732   H     0.14015   0.31329   0.65171   0.00000  Uiso   1.00
C733   C     0.31790   0.12339   0.67560   0.00000  Uiso   1.00
H734   H     0.01747   0.10409   0.65454   0.00000  Uiso   1.00
H735   H     0.28666   0.10195   0.68869   0.00000  Uiso   1.00
H736   H     0.31282   0.14671   0.65157   0.00000  Uiso   1.00
C737   C     0.01560   0.21093   0.82373   0.00000  Uiso   1.00
H738   H     0.31601   0.23028   0.84461   0.00000  Uiso   1.00
H739   H     0.02089   0.18809   0.84802   0.00000  Uiso   1.00
H740   H     0.04671   0.23246   0.81021   0.00000  Uiso   1.00
C741   C     0.50002   0.24651   0.74923   0.00000  Uiso   1.00
C742   C     0.50001   0.08681   0.75071   0.00000  Uiso   1.00
C743   C     0.43967   0.16771   0.55471   0.00000  Uiso   1.00
C744   C     0.54684   0.20873   0.95467   0.00000  Uiso   1.00
C745   C     0.40567   0.16239   0.53480   0.00000  Uiso   1.00
C746   C     0.58071   0.21393   0.97486   0.00000  Uiso   1.00
C747   C     0.51156   0.31093   0.78293   0.00000  Uiso   1.00
C748   C     0.48853   0.02238   0.71693   0.00000  Uiso   1.00
C749   C     0.51206   0.02075   0.78445   0.00000  Uiso   1.00
C750   C     0.48809   0.31255   0.71537   0.00000  Uiso   1.00
C751   C     0.50052   0.04264   0.75090   0.00000  Uiso   1.00
C752   C     0.49956   0.29067   0.74898   0.00000  Uiso   1.00
C753   C     0.65773   0.14563   0.71553   0.00000  Uiso   1.00
C754   C     0.34233   0.18796   0.78428   0.00000  Uiso   1.00
C755   C     0.37197   0.14559   0.71605   0.00000  Uiso   1.00
C756   C     0.62805   0.18785   0.78386   0.00000  Uiso   1.00
C757   C     0.46916   0.16728   0.83817   0.00000  Uiso   1.00
C758   C     0.53082   0.16685   0.66184   0.00000  Uiso   1.00
C759   C     0.44948   0.16982   0.88938   0.00000  Uiso   1.00
C760   C     0.54961   0.17239   0.61115   0.00000  Uiso   1.00
C761   C     0.38674   0.15686   0.96594   0.00000  Uiso   1.00
C762   C     0.60502   0.20475   0.54029   0.00000  Uiso   1.00
C763   C     0.40176   0.15796   0.91733   0.00000  Uiso   1.00
C764   C     0.59409   0.19193   0.58624   0.00000  Uiso   1.00
C765   C     0.48101   0.18255   0.91027   0.00000  Uiso   1.00
C766   C     0.51740   0.16450   0.58953   0.00000  Uiso   1.00
C767   C     0.46720   0.18116   0.95881   0.00000  Uiso   1.00
C768   C     0.52499   0.18109   0.54580   0.00000  Uiso   1.00
C769   C     0.41950   0.16720   0.98674   0.00000  Uiso   1.00
C770   C     0.57056   0.19983   0.52005   0.00000  Uiso   1.00
C771   C     0.50095   0.19000   0.97966   0.00000  Uiso   1.00
C772   C     0.48849   0.17916   0.52713   0.00000  Uiso   1.00
H773   H     0.36894   0.15286   0.55685   0.00000  Uiso   1.00
H774   H     0.61520   0.22873   0.95480   0.00000  Uiso   1.00
H775   H     0.48555   0.14616   0.60834   0.00000  Uiso   1.00
H776   H     0.51756   0.19102   0.88754   0.00000  Uiso   1.00
H777   H     0.61930   0.19866   0.60270   0.00000  Uiso   1.00
H778   H     0.37695   0.14787   0.90165   0.00000  Uiso   1.00
H779   H     0.35029   0.14613   0.98709   0.00000  Uiso   1.00
H780   H     0.63953   0.21988   0.52123   0.00000  Uiso   1.00
H781   H     0.42629   0.16355   0.59217   0.00000  Uiso   1.00
H782   H     0.55709   0.22111   0.91990   0.00000  Uiso   1.00
H783   H     0.51997   0.29289   0.80845   0.00000  Uiso   1.00
H784   H     0.48011   0.04041   0.69142   0.00000  Uiso   1.00
H785   H     0.40201   0.12896   0.68896   0.00000  Uiso   1.00
H786   H     0.59805   0.20460   0.81085   0.00000  Uiso   1.00
N787   N     0.38093   0.16668   0.75001   0.00000  Uiso   1.00
N788   N     0.61907   0.16666   0.74999   0.00000  Uiso   1.00
O789   O     0.46179   0.22775   0.75001   0.00000  Uiso   1.00
O790   O     0.53821   0.10558   0.75000   0.00000  Uiso   1.00
O791   O     0.53823   0.22774   0.75000   0.00000  Uiso   1.00
O792   O     0.46177   0.10559   0.75000   0.00000  Uiso   1.00
O793   O     0.43994   0.16667   0.81613   0.00000  Uiso   1.00
O794   O     0.56006   0.16666   0.68388   0.00000  Uiso   1.00
O795   O     0.51639   0.16666   0.81612   0.00000  Uiso   1.00
O796   O     0.48361   0.16667   0.68388   0.00000  Uiso   1.00
Zn797  Zn    0.44896   0.16667   0.75000   0.00000  Uiso   1.00
Zn798  Zn    0.55104   0.16666   0.75000   0.00000  Uiso   1.00
C799   C     0.52314   0.04256   0.82247   0.00000  Uiso   1.00
H800   H     0.55814   0.05949   0.80675   0.00000  Uiso   1.00
H801   H     0.49305   0.06511   0.84213   0.00000  Uiso   1.00
H802   H     0.52682   0.01997   0.84803   0.00000  Uiso   1.00
C803   C     0.47720   0.29070   0.67725   0.00000  Uiso   1.00
H804   H     0.50741   0.26825   0.65759   0.00000  Uiso   1.00
H805   H     0.44228   0.27365   0.69287   0.00000  Uiso   1.00
H806   H     0.47348   0.31329   0.65171   0.00000  Uiso   1.00
C807   C     0.65124   0.12339   0.67560   0.00000  Uiso   1.00
H808   H     0.35081   0.10409   0.65454   0.00000  Uiso   1.00
H809   H     0.62000   0.10195   0.68869   0.00000  Uiso   1.00
H810   H     0.64615   0.14671   0.65157   0.00000  Uiso   1.00
C811   C     0.34894   0.21093   0.82373   0.00000  Uiso   1.00
H812   H     0.64934   0.23028   0.84461   0.00000  Uiso   1.00
H813   H     0.35422   0.18809   0.84802   0.00000  Uiso   1.00
H814   H     0.38005   0.23246   0.81021   0.00000  Uiso   1.00
C815   C     0.83335   0.24651   0.74923   0.00000  Uiso   1.00
C816   C     0.83334   0.08681   0.75071   0.00000  Uiso   1.00
C817   C     0.77301   0.16771   0.55471   0.00000  Uiso   1.00
C818   C     0.88017   0.20873   0.95467   0.00000  Uiso   1.00
C819   C     0.73901   0.16239   0.53480   0.00000  Uiso   1.00
C820   C     0.91404   0.21393   0.97486   0.00000  Uiso   1.00
C821   C     0.84490   0.31093   0.78293   0.00000  Uiso   1.00
C822   C     0.82186   0.02238   0.71693   0.00000  Uiso   1.00
C823   C     0.84539   0.02075   0.78445   0.00000  Uiso   1.00
C824   C     0.82143   0.31255   0.71537   0.00000  Uiso   1.00
C825   C     0.83385   0.04264   0.75090   0.00000  Uiso   1.00
C826   C     0.83289   0.29067   0.74898   0.00000  Uiso   1.00
C827   C     0.99106   0.14563   0.71553   0.00000  Uiso   1.00
C828   C     0.67566   0.18796   0.78428   0.00000  Uiso   1.00
C829   C     0.70531   0.14559   0.71605   0.00000  Uiso   1.00
C830   C     0.96138   0.18785   0.78386   0.00000  Uiso   1.00
C831   C     0.80249   0.16728   0.83817   0.00000  Uiso   1.00
C832   C     0.86415   0.16685   0.66184   0.00000  Uiso   1.00
C833   C     0.78281   0.16982   0.88938   0.00000  Uiso   1.00
C834   C     0.88294   0.17239   0.61115   0.00000  Uiso   1.00
C835   C     0.72007   0.15686   0.96594   0.00000  Uiso   1.00
C836   C     0.93836   0.20475   0.54029   0.00000  Uiso   1.00
C837   C     0.73510   0.15796   0.91733   0.00000  Uiso   1.00
C838   C     0.92742   0.19193   0.58624   0.00000  Uiso   1.00
C839   C     0.81434   0.18255   0.91027   0.00000  Uiso   1.00
C840   C     0.85073   0.16450   0.58953   0.00000  Uiso   1.00
C841   C     0.80054   0.18116   0.95881   0.00000  Uiso   1.00
C842   C     0.85832   0.18109   0.54580   0.00000  Uiso   1.00
C843   C     0.75284   0.16720   0.98674   0.00000  Uiso   1.00
C844   C     0.90389   0.19983   0.52005   0.00000  Uiso   1.00
C845   C     0.83428   0.19000   0.97966   0.00000  Uiso   1.00
C846   C     0.82183   0.17916   0.52713   0.00000  Uiso   1.00
H847   H     0.70227   0.15286   0.55685   0.00000  Uiso   1.00
H848   H     0.94854   0.22873   0.95480   0.00000  Uiso   1.00
H849   H     0.81888   0.14616   0.60834   0.00000  Uiso   1.00
H850   H     0.85089   0.19102   0.88754   0.00000  Uiso   1.00
H851   H     0.95263   0.19866   0.60270   0.00000  Uiso   1.00
H852   H     0.71028   0.14787   0.90165   0.00000  Uiso   1.00
H853   H     0.68362   0.14613   0.98709   0.00000  Uiso   1.00
H854   H     0.97287   0.21988   0.52123   0.00000  Uiso   1.00
H855   H     0.75963   0.16355   0.59217   0.00000  Uiso   1.00
H856   H     0.89043   0.22111   0.91990   0.00000  Uiso   1.00
H857   H     0.85330   0.29289   0.80845   0.00000  Uiso   1.00
H858   H     0.81345   0.04041   0.69142   0.00000  Uiso   1.00
H859   H     0.73534   0.12896   0.68896   0.00000  Uiso   1.00
H860   H     0.93138   0.20460   0.81085   0.00000  Uiso   1.00
N861   N     0.71426   0.16668   0.75001   0.00000  Uiso   1.00
N862   N     0.95241   0.16666   0.74999   0.00000  Uiso   1.00
O863   O     0.79512   0.22775   0.75001   0.00000  Uiso   1.00
O864   O     0.87154   0.10558   0.75000   0.00000  Uiso   1.00
O865   O     0.87157   0.22774   0.75000   0.00000  Uiso   1.00
O866   O     0.79510   0.10559   0.75000   0.00000  Uiso   1.00
O867   O     0.77328   0.16667   0.81613   0.00000  Uiso   1.00
O868   O     0.89339   0.16666   0.68388   0.00000  Uiso   1.00
O869   O     0.84972   0.16666   0.81612   0.00000  Uiso   1.00
O870   O     0.81695   0.16667   0.68388   0.00000  Uiso   1.00
Zn871  Zn    0.78229   0.16667   0.75000   0.00000  Uiso   1.00
Zn872  Zn    0.88438   0.16666   0.75000   0.00000  Uiso   1.00
C873   C     0.85648   0.04256   0.82247   0.00000  Uiso   1.00
H874   H     0.89147   0.05949   0.80675   0.00000  Uiso   1.00
H875   H     0.82638   0.06511   0.84213   0.00000  Uiso   1.00
H876   H     0.86015   0.01997   0.84803   0.00000  Uiso   1.00
C877   C     0.81053   0.29070   0.67725   0.00000  Uiso   1.00
H878   H     0.84074   0.26825   0.65759   0.00000  Uiso   1.00
H879   H     0.77561   0.27365   0.69287   0.00000  Uiso   1.00
H880   H     0.80682   0.31329   0.65171   0.00000  Uiso   1.00
C881   C     0.98457   0.12339   0.67560   0.00000  Uiso   1.00
H882   H     0.68414   0.10409   0.65454   0.00000  Uiso   1.00
H883   H     0.95333   0.10195   0.68869   0.00000  Uiso   1.00
H884   H     0.97948   0.14671   0.65157   0.00000  Uiso   1.00
C885   C     0.68227   0.21093   0.82373   0.00000  Uiso   1.00
H886   H     0.98268   0.23028   0.84461   0.00000  Uiso   1.00
H887   H     0.68756   0.18809   0.84802   0.00000  Uiso   1.00
H888   H     0.71338   0.23246   0.81021   0.00000  Uiso   1.00
C889   C     0.16669   0.57984   0.74923   0.00000  Uiso   1.00
C890   C     0.16667   0.42015   0.75071   0.00000  Uiso   1.00
C891   C     0.10634   0.50105   0.55471   0.00000  Uiso   1.00
C892   C     0.21350   0.54207   0.95467   0.00000  Uiso   1.00
C893   C     0.07234   0.49572   0.53480   0.00000  Uiso   1.00
C894   C     0.24738   0.54727   0.97486   0.00000  Uiso   1.00
C895   C     0.17823   0.64426   0.78293   0.00000  Uiso   1.00
C896   C     0.15519   0.35571   0.71693   0.00000  Uiso   1.00
C897   C     0.17873   0.35408   0.78445   0.00000  Uiso   1.00
C898   C     0.15476   0.64588   0.71537   0.00000  Uiso   1.00
C899   C     0.16718   0.37597   0.75090   0.00000  Uiso   1.00
C900   C     0.16622   0.62400   0.74898   0.00000  Uiso   1.00
C901   C     0.32439   0.47896   0.71553   0.00000  Uiso   1.00
C902   C     0.00900   0.52130   0.78428   0.00000  Uiso   1.00
C903   C     0.03864   0.47892   0.71605   0.00000  Uiso   1.00
C904   C     0.29471   0.52118   0.78386   0.00000  Uiso   1.00
C905   C     0.13582   0.50061   0.83817   0.00000  Uiso   1.00
C906   C     0.19748   0.50018   0.66184   0.00000  Uiso   1.00
C907   C     0.11615   0.50315   0.88938   0.00000  Uiso   1.00
C908   C     0.21628   0.50572   0.61115   0.00000  Uiso   1.00
C909   C     0.05341   0.49019   0.96594   0.00000  Uiso   1.00
C910   C     0.27169   0.53808   0.54029   0.00000  Uiso   1.00
C911   C     0.06843   0.49129   0.91733   0.00000  Uiso   1.00
C912   C     0.26075   0.52526   0.58624   0.00000  Uiso   1.00
C913   C     0.14768   0.51589   0.91027   0.00000  Uiso   1.00
C914   C     0.18406   0.49783   0.58953   0.00000  Uiso   1.00
C915   C     0.13387   0.51450   0.95881   0.00000  Uiso   1.00
C916   C     0.19165   0.51443   0.54580   0.00000  Uiso   1.00
C917   C     0.08617   0.50053   0.98674   0.00000  Uiso   1.00
C918   C     0.23722   0.53316   0.52005   0.00000  Uiso   1.00
C919   C     0.16761   0.52333   0.97966   0.00000  Uiso   1.00
C920   C     0.15516   0.51250   0.52713   0.00000  Uiso   1.00
H921   H     0.03560   0.48620   0.55685   0.00000  Uiso   1.00
H922   H     0.28187   0.56206   0.95480   0.00000  Uiso   1.00
H923   H     0.15221   0.47950   0.60834   0.00000  Uiso   1.00
H924   H     0.18422   0.52435   0.88754   0.00000  Uiso   1.00
H925   H     0.28597   0.53199   0.60270   0.00000  Uiso   1.00
H926   H     0.04361   0.48120   0.90165   0.00000  Uiso   1.00
H927   H     0.01696   0.47947   0.98709   0.00000  Uiso   1.00
H928   H     0.30620   0.55321   0.52123   0.00000  Uiso   1.00
H929   H     0.09296   0.49688   0.59217   0.00000  Uiso   1.00
H930   H     0.22376   0.55444   0.91990   0.00000  Uiso   1.00
H931   H     0.18663   0.62622   0.80845   0.00000  Uiso   1.00
H932   H     0.14678   0.37375   0.69142   0.00000  Uiso   1.00
H933   H     0.06867   0.46229   0.68896   0.00000  Uiso   1.00
H934   H     0.26471   0.53793   0.81085   0.00000  Uiso   1.00
N935   N     0.04759   0.50001   0.75001   0.00000  Uiso   1.00
N936   N     0.28574   0.49999   0.74999   0.00000  Uiso   1.00
O937   O     0.12846   0.56108   0.75001   0.00000  Uiso   1.00
O938   O     0.20488   0.43892   0.75000   0.00000  Uiso   1.00
O939   O     0.20490   0.56107   0.75000   0.00000  Uiso   1.00
O940   O     0.12843   0.43893   0.75000   0.00000  Uiso   1.00
O941   O     0.10661   0.50001   0.81613   0.00000  Uiso   1.00
O942   O     0.22672   0.49999   0.68388   0.00000  Uiso   1.00
O943   O     0.18305   0.50000   0.81612   0.00000  Uiso   1.00
O944   O     0.15028   0.50000   0.68388   0.00000  Uiso   1.00
Zn945  Zn    0.11562   0.50001   0.75000   0.00000  Uiso   1.00
Zn946  Zn    0.21771   0.49999   0.75000   0.00000  Uiso   1.00
C947   C     0.18981   0.37589   0.82247   0.00000  Uiso   1.00
H948   H     0.22480   0.39283   0.80675   0.00000  Uiso   1.00
H949   H     0.15971   0.39845   0.84213   0.00000  Uiso   1.00
H950   H     0.19349   0.35330   0.84803   0.00000  Uiso   1.00
C951   C     0.14386   0.62404   0.67725   0.00000  Uiso   1.00
H952   H     0.17408   0.60158   0.65759   0.00000  Uiso   1.00
H953   H     0.10894   0.60698   0.69287   0.00000  Uiso   1.00
H954   H     0.14015   0.64662   0.65171   0.00000  Uiso   1.00
C955   C     0.31790   0.45672   0.67560   0.00000  Uiso   1.00
H956   H     0.01747   0.43742   0.65454   0.00000  Uiso   1.00
H957   H     0.28666   0.43528   0.68869   0.00000  Uiso   1.00
H958   H     0.31282   0.48004   0.65157   0.00000  Uiso   1.00
C959   C     0.01560   0.54426   0.82373   0.00000  Uiso   1.00
H960   H     0.31601   0.56362   0.84461   0.00000  Uiso   1.00
H961   H     0.02089   0.52143   0.84802   0.00000  Uiso   1.00
H962   H     0.04671   0.56579   0.81021   0.00000  Uiso   1.00
C963   C     0.50002   0.57984   0.74923   0.00000  Uiso   1.00
C964   C     0.50001   0.42015   0.75071   0.00000  Uiso   1.00
C965   C     0.43967   0.50105   0.55471   0.00000  Uiso   1.00
C966   C     0.54684   0.54207   0.95467   0.00000  Uiso   1.00
C967   C     0.40567   0.49572   0.53480   0.00000  Uiso   1.00
C968   C     0.58071   0.54727   0.97486   0.00000  Uiso   1.00
C969   C     0.51156   0.64426   0.78293   0.00000  Uiso   1.00
C970   C     0.48853   0.35571   0.71693   0.00000  Uiso   1.00
C971   C     0.51206   0.35408   0.78445   0.00000  Uiso   1.00
C972   C     0.48809   0.64588   0.71537   0.00000  Uiso   1.00
C973   C     0.50052   0.37597   0.75090   0.00000  Uiso   1.00
C974   C     0.49956   0.62400   0.74898   0.00000  Uiso   1.00
C975   C     0.65773   0.47896   0.71553   0.00000  Uiso   1.00
C976   C     0.34233   0.52130   0.78428   0.00000  Uiso   1.00
C977   C     0.37197   0.47892   0.71605   0.00000  Uiso   1.00
C978   C     0.62805   0.52118   0.78386   0.00000  Uiso   1.00
C979   C     0.46916   0.50061   0.83817   0.00000  Uiso   1.00
C980   C     0.53082   0.50018   0.66184   0.00000  Uiso   1.00
C981   C     0.44948   0.50315   0.88938   0.00000  Uiso   1.00
C982   C     0.54961   0.50572   0.61115   0.00000  Uiso   1.00
C983   C     0.38674   0.49019   0.96594   0.00000  Uiso   1.00
C984   C     0.60502   0.53808   0.54029   0.00000  Uiso   1.00
C985   C     0.40176   0.49129   0.91733   0.00000  Uiso   1.00
C986   C     0.59409   0.52526   0.58624   0.00000  Uiso   1.00
C987   C     0.48101   0.51589   0.91027   0.00000  Uiso   1.00
C988   C     0.51740   0.49783   0.58953   0.00000  Uiso   1.00
C989   C     0.46720   0.51450   0.95881   0.00000  Uiso   1.00
C990   C     0.52499   0.51443   0.54580   0.00000  Uiso   1.00
C991   C     0.41950   0.50053   0.98674   0.00000  Uiso   1.00
C992   C     0.57056   0.53316   0.52005   0.00000  Uiso   1.00
C993   C     0.50095   0.52333   0.97966   0.00000  Uiso   1.00
C994   C     0.48849   0.51250   0.52713   0.00000  Uiso   1.00
H995   H     0.36894   0.48620   0.55685   0.00000  Uiso   1.00
H996   H     0.61520   0.56206   0.95480   0.00000  Uiso   1.00
H997   H     0.48555   0.47950   0.60834   0.00000  Uiso   1.00
H998   H     0.51756   0.52435   0.88754   0.00000  Uiso   1.00
H999   H     0.61930   0.53199   0.60270   0.00000  Uiso   1.00
H1000  H     0.37695   0.48120   0.90165   0.00000  Uiso   1.00
H1001  H     0.35029   0.47947   0.98709   0.00000  Uiso   1.00
H1002  H     0.63953   0.55321   0.52123   0.00000  Uiso   1.00
H1003  H     0.42629   0.49688   0.59217   0.00000  Uiso   1.00
H1004  H     0.55709   0.55444   0.91990   0.00000  Uiso   1.00
H1005  H     0.51997   0.62622   0.80845   0.00000  Uiso   1.00
H1006  H     0.48011   0.37375   0.69142   0.00000  Uiso   1.00
H1007  H     0.40201   0.46229   0.68896   0.00000  Uiso   1.00
H1008  H     0.59805   0.53793   0.81085   0.00000  Uiso   1.00
N1009  N     0.38093   0.50001   0.75001   0.00000  Uiso   1.00
N1010  N     0.61907   0.49999   0.74999   0.00000  Uiso   1.00
O1011  O     0.46179   0.56108   0.75001   0.00000  Uiso   1.00
O1012  O     0.53821   0.43892   0.75000   0.00000  Uiso   1.00
O1013  O     0.53823   0.56107   0.75000   0.00000  Uiso   1.00
O1014  O     0.46177   0.43893   0.75000   0.00000  Uiso   1.00
O1015  O     0.43994   0.50001   0.81613   0.00000  Uiso   1.00
O1016  O     0.56006   0.49999   0.68388   0.00000  Uiso   1.00
O1017  O     0.51639   0.50000   0.81612   0.00000  Uiso   1.00
O1018  O     0.48361   0.50000   0.68388   0.00000  Uiso   1.00
Zn1019 Zn    0.44896   0.50001   0.75000   0.00000  Uiso   1.00
Zn1020 Zn    0.55104   0.49999   0.75000   0.00000  Uiso   1.00
C1021  C     0.52314   0.37589   0.82247   0.00000  Uiso   1.00
H1022  H     0.55814   0.39283   0.80675   0.00000  Uiso   1.00
H1023  H     0.49305   0.39845   0.84213   0.00000  Uiso   1.00
H1024  H     0.52682   0.35330   0.84803   0.00000  Uiso   1.00
C1025  C     0.47720   0.62404   0.67725   0.00000  Uiso   1.00
H1026  H     0.50741   0.60158   0.65759   0.00000  Uiso   1.00
H1027  H     0.44228   0.60698   0.69287   0.00000  Uiso   1.00
H1028  H     0.47348   0.64662   0.65171   0.00000  Uiso   1.00
C1029  C     0.65124   0.45672   0.67560   0.00000  Uiso   1.00
H1030  H     0.35081   0.43742   0.65454   0.00000  Uiso   1.00
H1031  H     0.62000   0.43528   0.68869   0.00000  Uiso   1.00
H1032  H     0.64615   0.48004   0.65157   0.00000  Uiso   1.00
C1033  C     0.34894   0.54426   0.82373   0.00000  Uiso   1.00
H1034  H     0.64934   0.56362   0.84461   0.00000  Uiso   1.00
H1035  H     0.35422   0.52143   0.84802   0.00000  Uiso   1.00
H1036  H     0.38005   0.56579   0.81021   0.00000  Uiso   1.00
C1037  C     0.83335   0.57984   0.74923   0.00000  Uiso   1.00
C1038  C     0.83334   0.42015   0.75071   0.00000  Uiso   1.00
C1039  C     0.77301   0.50105   0.55471   0.00000  Uiso   1.00
C1040  C     0.88017   0.54207   0.95467   0.00000  Uiso   1.00
C1041  C     0.73901   0.49572   0.53480   0.00000  Uiso   1.00
C1042  C     0.91404   0.54727   0.97486   0.00000  Uiso   1.00
C1043  C     0.84490   0.64426   0.78293   0.00000  Uiso   1.00
C1044  C     0.82186   0.35571   0.71693   0.00000  Uiso   1.00
C1045  C     0.84539   0.35408   0.78445   0.00000  Uiso   1.00
C1046  C     0.82143   0.64588   0.71537   0.00000  Uiso   1.00
C1047  C     0.83385   0.37597   0.75090   0.00000  Uiso   1.00
C1048  C     0.83289   0.62400   0.74898   0.00000  Uiso   1.00
C1049  C     0.99106   0.47896   0.71553   0.00000  Uiso   1.00
C1050  C     0.67566   0.52130   0.78428   0.00000  Uiso   1.00
C1051  C     0.70531   0.47892   0.71605   0.00000  Uiso   1.00
C1052  C     0.96138   0.52118   0.78386   0.00000  Uiso   1.00
C1053  C     0.80249   0.50061   0.83817   0.00000  Uiso   1.00
C1054  C     0.86415   0.50018   0.66184   0.00000  Uiso   1.00
C1055  C     0.78281   0.50315   0.88938   0.00000  Uiso   1.00
C1056  C     0.88294   0.50572   0.61115   0.00000  Uiso   1.00
C1057  C     0.72007   0.49019   0.96594   0.00000  Uiso   1.00
C1058  C     0.93836   0.53808   0.54029   0.00000  Uiso   1.00
C1059  C     0.73510   0.49129   0.91733   0.00000  Uiso   1.00
C1060  C     0.92742   0.52526   0.58624   0.00000  Uiso   1.00
C1061  C     0.81434   0.51589   0.91027   0.00000  Uiso   1.00
C1062  C     0.85073   0.49783   0.58953   0.00000  Uiso   1.00
C1063  C     0.80054   0.51450   0.95881   0.00000  Uiso   1.00
C1064  C     0.85832   0.51443   0.54580   0.00000  Uiso   1.00
C1065  C     0.75284   0.50053   0.98674   0.00000  Uiso   1.00
C1066  C     0.90389   0.53316   0.52005   0.00000  Uiso   1.00
C1067  C     0.83428   0.52333   0.97966   0.00000  Uiso   1.00
C1068  C     0.82183   0.51250   0.52713   0.00000  Uiso   1.00
H1069  H     0.70227   0.48620   0.55685   0.00000  Uiso   1.00
H1070  H     0.94854   0.56206   0.95480   0.00000  Uiso   1.00
H1071  H     0.81888   0.47950   0.60834   0.00000  Uiso   1.00
H1072  H     0.85089   0.52435   0.88754   0.00000  Uiso   1.00
H1073  H     0.95263   0.53199   0.60270   0.00000  Uiso   1.00
H1074  H     0.71028   0.48120   0.90165   0.00000  Uiso   1.00
H1075  H     0.68362   0.47947   0.98709   0.00000  Uiso   1.00
H1076  H     0.97287   0.55321   0.52123   0.00000  Uiso   1.00
H1077  H     0.75963   0.49688   0.59217   0.00000  Uiso   1.00
H1078  H     0.89043   0.55444   0.91990   0.00000  Uiso   1.00
H1079  H     0.85330   0.62622   0.80845   0.00000  Uiso   1.00
H1080  H     0.81345   0.37375   0.69142   0.00000  Uiso   1.00
H1081  H     0.73534   0.46229   0.68896   0.00000  Uiso   1.00
H1082  H     0.93138   0.53793   0.81085   0.00000  Uiso   1.00
N1083  N     0.71426   0.50001   0.75001   0.00000  Uiso   1.00
N1084  N     0.95241   0.49999   0.74999   0.00000  Uiso   1.00
O1085  O     0.79512   0.56108   0.75001   0.00000  Uiso   1.00
O1086  O     0.87154   0.43892   0.75000   0.00000  Uiso   1.00
O1087  O     0.87157   0.56107   0.75000   0.00000  Uiso   1.00
O1088  O     0.79510   0.43893   0.75000   0.00000  Uiso   1.00
O1089  O     0.77328   0.50001   0.81613   0.00000  Uiso   1.00
O1090  O     0.89339   0.49999   0.68388   0.00000  Uiso   1.00
O1091  O     0.84972   0.50000   0.81612   0.00000  Uiso   1.00
O1092  O     0.81695   0.50000   0.68388   0.00000  Uiso   1.00
Zn1093 Zn    0.78229   0.50001   0.75000   0.00000  Uiso   1.00
Zn1094 Zn    0.88438   0.49999   0.75000   0.00000  Uiso   1.00
C1095  C     0.85648   0.37589   0.82247   0.00000  Uiso   1.00
H1096  H     0.89147   0.39283   0.80675   0.00000  Uiso   1.00
H1097  H     0.82638   0.39845   0.84213   0.00000  Uiso   1.00
H1098  H     0.86015   0.35330   0.84803   0.00000  Uiso   1.00
C1099  C     0.81053   0.62404   0.67725   0.00000  Uiso   1.00
H1100  H     0.84074   0.60158   0.65759   0.00000  Uiso   1.00
H1101  H     0.77561   0.60698   0.69287   0.00000  Uiso   1.00
H1102  H     0.80682   0.64662   0.65171   0.00000  Uiso   1.00
C1103  C     0.98457   0.45672   0.67560   0.00000  Uiso   1.00
H1104  H     0.68414   0.43742   0.65454   0.00000  Uiso   1.00
H1105  H     0.95333   0.43528   0.68869   0.00000  Uiso   1.00
H1106  H     0.97948   0.48004   0.65157   0.00000  Uiso   1.00
C1107  C     0.68227   0.54426   0.82373   0.00000  Uiso   1.00
H1108  H     0.98268   0.56362   0.84461   0.00000  Uiso   1.00
H1109  H     0.68756   0.52143   0.84802   0.00000  Uiso   1.00
H1110  H     0.71338   0.56579   0.81021   0.00000  Uiso   1.00
C1111  C     0.16669   0.91318   0.74923   0.00000  Uiso   1.00
C1112  C     0.16667   0.75348   0.75071   0.00000  Uiso   1.00
C1113  C     0.10634   0.83438   0.55471   0.00000  Uiso   1.00
C1114  C     0.21350   0.87540   0.95467   0.00000  Uiso   1.00
C1115  C     0.07234   0.82905   0.53480   0.00000  Uiso   1.00
C1116  C     0.24738   0.88060   0.97486   0.00000  Uiso   1.00
C1117  C     0.17823   0.97759   0.78293   0.00000  Uiso   1.00
C1118  C     0.15519   0.68905   0.71693   0.00000  Uiso   1.00
C1119  C     0.17873   0.68741   0.78445   0.00000  Uiso   1.00
C1120  C     0.15476   0.97921   0.71537   0.00000  Uiso   1.00
C1121  C     0.16718   0.70931   0.75090   0.00000  Uiso   1.00
C1122  C     0.16622   0.95734   0.74898   0.00000  Uiso   1.00
C1123  C     0.32439   0.81230   0.71553   0.00000  Uiso   1.00
C1124  C     0.00900   0.85463   0.78428   0.00000  Uiso   1.00
C1125  C     0.03864   0.81226   0.71605   0.00000  Uiso   1.00
C1126  C     0.29471   0.85451   0.78386   0.00000  Uiso   1.00
C1127  C     0.13582   0.83395   0.83817   0.00000  Uiso   1.00
C1128  C     0.19748   0.83351   0.66184   0.00000  Uiso   1.00
C1129  C     0.11615   0.83649   0.88938   0.00000  Uiso   1.00
C1130  C     0.21628   0.83905   0.61115   0.00000  Uiso   1.00
C1131  C     0.05341   0.82352   0.96594   0.00000  Uiso   1.00
C1132  C     0.27169   0.87142   0.54029   0.00000  Uiso   1.00
C1133  C     0.06843   0.82463   0.91733   0.00000  Uiso   1.00
C1134  C     0.26075   0.85860   0.58624   0.00000  Uiso   1.00
C1135  C     0.14768   0.84922   0.91027   0.00000  Uiso   1.00
C1136  C     0.18406   0.83116   0.58953   0.00000  Uiso   1.00
C1137  C     0.13387   0.84783   0.95881   0.00000  Uiso   1.00
C1138  C     0.19165   0.84776   0.54580   0.00000  Uiso   1.00
C1139  C     0.08617   0.83387   0.98674   0.00000  Uiso   1.00
C1140  C     0.23722   0.86649   0.52005   0.00000  Uiso   1.00
C1141  C     0.16761   0.85666   0.97966   0.00000  Uiso   1.00
C1142  C     0.15516   0.84583   0.52713   0.00000  Uiso   1.00
H1143  H     0.03560   0.81953   0.55685   0.00000  Uiso   1.00
H1144  H     0.28187   0.89539   0.95480   0.00000  Uiso   1.00
H1145  H     0.15221   0.81283   0.60834   0.00000  Uiso   1.00
H1146  H     0.18422   0.85769   0.88754   0.00000  Uiso   1.00
H1147  H     0.28597   0.86533   0.60270   0.00000  Uiso   1.00
H1148  H     0.04361   0.81453   0.90165   0.00000  Uiso   1.00
H1149  H     0.01696   0.81280   0.98709   0.00000  Uiso   1.00
H1150  H     0.30620   0.88655   0.52123   0.00000  Uiso   1.00
H1151  H     0.09296   0.83021   0.59217   0.00000  Uiso   1.00
H1152  H     0.22376   0.88778   0.91990   0.00000  Uiso   1.00
H1153  H     0.18663   0.95956   0.80845   0.00000  Uiso   1.00
H1154  H     0.14678   0.70708   0.69142   0.00000  Uiso   1.00
H1155  H     0.06867   0.79563   0.68896   0.00000  Uiso   1.00
H1156  H     0.26471   0.87127   0.81085   0.00000  Uiso   1.00
N1157  N     0.04759   0.83334   0.75001   0.00000  Uiso   1.00
N1158  N     0.28574   0.83332   0.74999   0.00000  Uiso   1.00
O1159  O     0.12846   0.89442   0.75001   0.00000  Uiso   1.00
O1160  O     0.20488   0.77225   0.75000   0.00000  Uiso   1.00
O1161  O     0.20490   0.89441   0.75000   0.00000  Uiso   1.00
O1162  O     0.12843   0.77226   0.75000   0.00000  Uiso   1.00
O1163  O     0.10661   0.83334   0.81613   0.00000  Uiso   1.00
O1164  O     0.22672   0.83333   0.68388   0.00000  Uiso   1.00
O1165  O     0.18305   0.83333   0.81612   0.00000  Uiso   1.00
O1166  O     0.15028   0.83334   0.68388   0.00000  Uiso   1.00
Zn1167 Zn    0.11562   0.83334   0.75000   0.00000  Uiso   1.00
Zn1168 Zn    0.21771   0.83333   0.75000   0.00000  Uiso   1.00
C1169  C     0.18981   0.70923   0.82247   0.00000  Uiso   1.00
H1170  H     0.22480   0.72616   0.80675   0.00000  Uiso   1.00
H1171  H     0.15971   0.73178   0.84213   0.00000  Uiso   1.00
H1172  H     0.19349   0.68664   0.84803   0.00000  Uiso   1.00
C1173  C     0.14386   0.95737   0.67725   0.00000  Uiso   1.00
H1174  H     0.17408   0.93491   0.65759   0.00000  Uiso   1.00
H1175  H     0.10894   0.94031   0.69287   0.00000  Uiso   1.00
H1176  H     0.14015   0.97996   0.65171   0.00000  Uiso   1.00
C1177  C     0.31790   0.79006   0.67560   0.00000  Uiso   1.00
H1178  H     0.01747   0.77075   0.65454   0.00000  Uiso   1.00
H1179  H     0.28666   0.76862   0.68869   0.00000  Uiso   1.00
H1180  H     0.31282   0.81337   0.65157   0.00000  Uiso   1.00
C1181  C     0.01560   0.87760   0.82373   0.00000  Uiso   1.00
H1182  H     0.31601   0.89695   0.84461   0.00000  Uiso   1.00
H1183  H     0.02089   0.85476   0.84802   0.00000  Uiso   1.00
H1184  H     0.04671   0.89912   0.81021   0.00000  Uiso   1.00
C1185  C     0.50002   0.91318   0.74923   0.00000  Uiso   1.00
C1186  C     0.50001   0.75348   0.75071   0.00000  Uiso   1.00
C1187  C     0.43967   0.83438   0.55471   0.00000  Uiso   1.00
C1188  C     0.54684   0.87540   0.95467   0.00000  Uiso   1.00
C1189  C     0.40567   0.82905   0.53480   0.00000  Uiso   1.00
C1190  C     0.58071   0.88060   0.97486   0.00000  Uiso   1.00
C1191  C     0.51156   0.97759   0.78293   0.00000  Uiso   1.00
C1192  C     0.48853   0.68905   0.71693   0.00000  Uiso   1.00
C1193  C     0.51206   0.68741   0.78445   0.00000  Uiso   1.00
C1194  C     0.48809   0.97921   0.71537   0.00000  Uiso   1.00
C1195  C     0.50052   0.70931   0.75090   0.00000  Uiso   1.00
C1196  C     0.49956   0.95734   0.74898   0.00000  Uiso   1.00
C1197  C     0.65773   0.81230   0.71553   0.00000  Uiso   1.00
C1198  C     0.34233   0.85463   0.78428   0.00000  Uiso   1.00
C1199  C     0.37197   0.81226   0.71605   0.00000  Uiso   1.00
C1200  C     0.62805   0.85451   0.78386   0.00000  Uiso   1.00
C1201  C     0.46916   0.83395   0.83817   0.00000  Uiso   1.00
C1202  C     0.53082   0.83351   0.66184   0.00000  Uiso   1.00
C1203  C     0.44948   0.83649   0.88938   0.00000  Uiso   1.00
C1204  C     0.54961   0.83905   0.61115   0.00000  Uiso   1.00
C1205  C     0.38674   0.82352   0.96594   0.00000  Uiso   1.00
C1206  C     0.60502   0.87142   0.54029   0.00000  Uiso   1.00
C1207  C     0.40176   0.82463   0.91733   0.00000  Uiso   1.00
C1208  C     0.59409   0.85860   0.58624   0.00000  Uiso   1.00
C1209  C     0.48101   0.84922   0.91027   0.00000  Uiso   1.00
C1210  C     0.51740   0.83116   0.58953   0.00000  Uiso   1.00
C1211  C     0.46720   0.84783   0.95881   0.00000  Uiso   1.00
C1212  C     0.52499   0.84776   0.54580   0.00000  Uiso   1.00
C1213  C     0.41950   0.83387   0.98674   0.00000  Uiso   1.00
C1214  C     0.57056   0.86649   0.52005   0.00000  Uiso   1.00
C1215  C     0.50095   0.85666   0.97966   0.00000  Uiso   1.00
C1216  C     0.48849   0.84583   0.52713   0.00000  Uiso   1.00
H1217  H     0.36894   0.81953   0.55685   0.00000  Uiso   1.00
H1218  H     0.61520   0.89539   0.95480   0.00000  Uiso   1.00
H1219  H     0.48555   0.81283   0.60834   0.00000  Uiso   1.00
H1220  H     0.51756   0.85769   0.88754   0.00000  Uiso   1.00
H1221  H     0.61930   0.86533   0.60270   0.00000  Uiso   1.00
H1222  H     0.37695   0.81453   0.90165   0.00000  Uiso   1.00
H1223  H     0.35029   0.81280   0.98709   0.00000  Uiso   1.00
H1224  H     0.63953   0.88655   0.52123   0.00000  Uiso   1.00
H1225  H     0.42629   0.83021   0.59217   0.00000  Uiso   1.00
H1226  H     0.55709   0.88778   0.91990   0.00000  Uiso   1.00
H1227  H     0.51997   0.95956   0.80845   0.00000  Uiso   1.00
H1228  H     0.48011   0.70708   0.69142   0.00000  Uiso   1.00
H1229  H     0.40201   0.79563   0.68896   0.00000  Uiso   1.00
H1230  H     0.59805   0.87127   0.81085   0.00000  Uiso   1.00
N1231  N     0.38093   0.83334   0.75001   0.00000  Uiso   1.00
N1232  N     0.61907   0.83332   0.74999   0.00000  Uiso   1.00
O1233  O     0.46179   0.89442   0.75001   0.00000  Uiso   1.00
O1234  O     0.53821   0.77225   0.75000   0.00000  Uiso   1.00
O1235  O     0.53823   0.89441   0.75000   0.00000  Uiso   1.00
O1236  O     0.46177   0.77226   0.75000   0.00000  Uiso   1.00
O1237  O     0.43994   0.83334   0.81613   0.00000  Uiso   1.00
O1238  O     0.56006   0.83333   0.68388   0.00000  Uiso   1.00
O1239  O     0.51639   0.83333   0.81612   0.00000  Uiso   1.00
O1240  O     0.48361   0.83334   0.68388   0.00000  Uiso   1.00
Zn1241 Zn    0.44896   0.83334   0.75000   0.00000  Uiso   1.00
Zn1242 Zn    0.55104   0.83333   0.75000   0.00000  Uiso   1.00
C1243  C     0.52314   0.70923   0.82247   0.00000  Uiso   1.00
H1244  H     0.55814   0.72616   0.80675   0.00000  Uiso   1.00
H1245  H     0.49305   0.73178   0.84213   0.00000  Uiso   1.00
H1246  H     0.52682   0.68664   0.84803   0.00000  Uiso   1.00
C1247  C     0.47720   0.95737   0.67725   0.00000  Uiso   1.00
H1248  H     0.50741   0.93491   0.65759   0.00000  Uiso   1.00
H1249  H     0.44228   0.94031   0.69287   0.00000  Uiso   1.00
H1250  H     0.47348   0.97996   0.65171   0.00000  Uiso   1.00
C1251  C     0.65124   0.79006   0.67560   0.00000  Uiso   1.00
H1252  H     0.35081   0.77075   0.65454   0.00000  Uiso   1.00
H1253  H     0.62000   0.76862   0.68869   0.00000  Uiso   1.00
H1254  H     0.64615   0.81337   0.65157   0.00000  Uiso   1.00
C1255  C     0.34894   0.87760   0.82373   0.00000  Uiso   1.00
H1256  H     0.64934   0.89695   0.84461   0.00000  Uiso   1.00
H1257  H     0.35422   0.85476   0.84802   0.00000  Uiso   1.00
H1258  H     0.38005   0.89912   0.81021   0.00000  Uiso   1.00
C1259  C     0.83335   0.91318   0.74923   0.00000  Uiso   1.00
C1260  C     0.83334   0.75348   0.75071   0.00000  Uiso   1.00
C1261  C     0.77301   0.83438   0.55471   0.00000  Uiso   1.00
C1262  C     0.88017   0.87540   0.95467   0.00000  Uiso   1.00
C1263  C     0.73901   0.82905   0.53480   0.00000  Uiso   1.00
C1264  C     0.91404   0.88060   0.97486   0.00000  Uiso   1.00
C1265  C     0.84490   0.97759   0.78293   0.00000  Uiso   1.00
C1266  C     0.82186   0.68905   0.71693   0.00000  Uiso   1.00
C1267  C     0.84539   0.68741   0.78445   0.00000  Uiso   1.00
C1268  C     0.82143   0.97921   0.71537   0.00000  Uiso   1.00
C1269  C     0.83385   0.70931   0.75090   0.00000  Uiso   1.00
C1270  C     0.83289   0.95734   0.74898   0.00000  Uiso   1.00
C1271  C     0.99106   0.81230   0.71553   0.00000  Uiso   1.00
C1272  C     0.67566   0.85463   0.78428   0.00000  Uiso   1.00
C1273  C     0.70531   0.81226   0.71605   0.00000  Uiso   1.00
C1274  C     0.96138   0.85451   0.78386   0.00000  Uiso   1.00
C1275  C     0.80249   0.83395   0.83817   0.00000  Uiso   1.00
C1276  C     0.86415   0.83351   0.66184   0.00000  Uiso   1.00
C1277  C     0.78281   0.83649   0.88938   0.00000  Uiso   1.00
C1278  C     0.88294   0.83905   0.61115   0.00000  Uiso   1.00
C1279  C     0.72007   0.82352   0.96594   0.00000  Uiso   1.00
C1280  C     0.93836   0.87142   0.54029   0.00000  Uiso   1.00
C1281  C     0.73510   0.82463   0.91733   0.00000  Uiso   1.00
C1282  C     0.92742   0.85860   0.58624   0.00000  Uiso   1.00
C1283  C     0.81434   0.84922   0.91027   0.00000  Uiso   1.00
C1284  C     0.85073   0.83116   0.58953   0.00000  Uiso   1.00
C1285  C     0.80054   0.84783   0.95881   0.00000  Uiso   1.00
C1286  C     0.85832   0.84776   0.54580   0.00000  Uiso   1.00
C1287  C     0.75284   0.83387   0.98674   0.00000  Uiso   1.00
C1288  C     0.90389   0.86649   0.52005   0.00000  Uiso   1.00
C1289  C     0.83428   0.85666   0.97966   0.00000  Uiso   1.00
C1290  C     0.82183   0.84583   0.52713   0.00000  Uiso   1.00
H1291  H     0.70227   0.81953   0.55685   0.00000  Uiso   1.00
H1292  H     0.94854   0.89539   0.95480   0.00000  Uiso   1.00
H1293  H     0.81888   0.81283   0.60834   0.00000  Uiso   1.00
H1294  H     0.85089   0.85769   0.88754   0.00000  Uiso   1.00
H1295  H     0.95263   0.86533   0.60270   0.00000  Uiso   1.00
H1296  H     0.71028   0.81453   0.90165   0.00000  Uiso   1.00
H1297  H     0.68362   0.81280   0.98709   0.00000  Uiso   1.00
H1298  H     0.97287   0.88655   0.52123   0.00000  Uiso   1.00
H1299  H     0.75963   0.83021   0.59217   0.00000  Uiso   1.00
H1300  H     0.89043   0.88778   0.91990   0.00000  Uiso   1.00
H1301  H     0.85330   0.95956   0.80845   0.00000  Uiso   1.00
H1302  H     0.81345   0.70708   0.69142   0.00000  Uiso   1.00
H1303  H     0.73534   0.79563   0.68896   0.00000  Uiso   1.00
H1304  H     0.93138   0.87127   0.81085   0.00000  Uiso   1.00
N1305  N     0.71426   0.83334   0.75001   0.00000  Uiso   1.00
N1306  N     0.95241   0.83332   0.74999   0.00000  Uiso   1.00
O1307  O     0.79512   0.89442   0.75001   0.00000  Uiso   1.00
O1308  O     0.87154   0.77225   0.75000   0.00000  Uiso   1.00
O1309  O     0.87157   0.89441   0.75000   0.00000  Uiso   1.00
O1310  O     0.79510   0.77226   0.75000   0.00000  Uiso   1.00
O1311  O     0.77328   0.83334   0.81613   0.00000  Uiso   1.00
O1312  O     0.89339   0.83333   0.68388   0.00000  Uiso   1.00
O1313  O     0.84972   0.83333   0.81612   0.00000  Uiso   1.00
O1314  O     0.81695   0.83334   0.68388   0.00000  Uiso   1.00
Zn1315 Zn    0.78229   0.83334   0.75000   0.00000  Uiso   1.00
Zn1316 Zn    0.88438   0.83333   0.75000   0.00000  Uiso   1.00
C1317  C     0.85648   0.70923   0.82247   0.00000  Uiso   1.00
H1318  H     0.89147   0.72616   0.80675   0.00000  Uiso   1.00
H1319  H     0.82638   0.73178   0.84213   0.00000  Uiso   1.00
H1320  H     0.86015   0.68664   0.84803   0.00000  Uiso   1.00
C1321  C     0.81053   0.95737   0.67725   0.00000  Uiso   1.00
H1322  H     0.84074   0.93491   0.65759   0.00000  Uiso   1.00
H1323  H     0.77561   0.94031   0.69287   0.00000  Uiso   1.00
H1324  H     0.80682   0.97996   0.65171   0.00000  Uiso   1.00
C1325  C     0.98457   0.79006   0.67560   0.00000  Uiso   1.00
H1326  H     0.68414   0.77075   0.65454   0.00000  Uiso   1.00
H1327  H     0.95333   0.76862   0.68869   0.00000  Uiso   1.00
H1328  H     0.97948   0.81337   0.65157   0.00000  Uiso   1.00
C1329  C     0.68227   0.87760   0.82373   0.00000  Uiso   1.00
H1330  H     0.98268   0.89695   0.84461   0.00000  Uiso   1.00
H1331  H     0.68756   0.85476   0.84802   0.00000  Uiso   1.00
H1332  H     0.71338   0.89912   0.81021   0.00000  Uiso   1.00
loop_
_geom_bond_atom_site_label_1
_geom_bond_atom_site_label_2
_geom_bond_distance
_geom_bond_site_symmetry_2
_ccdc_geom_bond_type
C1     O51     1.285   .     A
C1     C12     1.409   .     S
C1     O49     1.284   .     A
C2     O52     1.285   .     A
C2     C11     1.410   .     S
C2     O50     1.284   .     A
C3     C5      1.388   .     A
C3     C32     1.418   .     A
C3     H41     1.079   .     S
C4     C6      1.390   .     A
C4     H42     1.078   .     S
C4     C31     1.419   .     A
C5     H33     1.084   .     S
C5     C695    1.391   1_554 S
C6     H34     1.084   .     S
C6     C696    1.391   .     S
C7     H43     1.086   .     S
C7     C12     1.394   .     A
C7     C231    1.378   .     S
C8     H44     1.085   .     S
C8     C11     1.395   .     A
C8     C454    1.378   1_545 S
C9     C11     1.405   .     A
C9     C59     1.511   .     S
C9     C451    1.378   1_545 S
C10    C63     1.511   .     S
C10    C12     1.405   .     A
C10    C230    1.378   .     S
C13    C67     1.500   .     S
C13    N48     1.382   .     A
C13    C89     1.420   .     S
C14    N47     1.382   .     A
C14    C71     1.500   .     S
C14    C164    1.420   1_455 S
C15    N47     1.359   .     A
C15    H45     1.082   .     S
C15    C161    1.420   1_455 S
C16    N48     1.358   .     A
C16    H46     1.082   .     S
C16    C88     1.420   .     S
C17    O55     1.296   .     A
C17    O53     1.300   .     A
C17    C19     1.460   .     S
C18    C20     1.458   .     S
C18    O56     1.295   .     A
C18    O54     1.300   .     A
C19    C23     1.398   .     A
C19    C25     1.396   .     A
C20    C26     1.392   .     A
C20    C24     1.399   .     A
C21    H39     1.083   .     S
C21    C23     1.394   .     A
C21    C29     1.405   .     A
C22    H40     1.084   .     S
C22    C24     1.396   .     A
C22    C30     1.406   .     A
C23    H38     1.082   .     S
C24    H37     1.083   .     S
C25    C27     1.396   .     A
C25    H36     1.075   .     S
C26    C28     1.394   .     A
C26    H35     1.079   .     S
C27    C31     1.421   .     A
C27    C29     1.419   .     A
C28    C30     1.416   .     A
C28    C32     1.418   .     A
C29    C671    1.391   .     S
C30    C672    1.391   1_554 S
C31    C698    1.415   .     S
C32    C697    1.415   1_554 S
N47    Zn57    2.021   .     S
N48    Zn58    2.021   .     S
O49    Zn57    1.992   .     S
O50    Zn58    1.992   .     S
O51    Zn58    1.981   .     S
O52    Zn57    1.981   .     S
O53    Zn57    1.959   .     S
O54    Zn58    1.959   .     S
O55    Zn58    1.896   .     S
O56    Zn57    1.896   .     S
C59    H61     1.111   .     S
C59    H60     1.110   .     S
C59    H62     1.111   .     S
C63    H65     1.110   .     S
C63    H66     1.111   .     S
C63    H64     1.111   .     S
C67    H70     1.107   .     S
C67    H69     1.105   .     S
C67    H142    1.111   .     S
H68    C215    1.111   1_455 S
C71    H74     1.104   .     S
C71    H73     1.105   .     S
C71    H220    1.111   1_455 S
H72    C145    1.111   .     S
C75    O125    1.285   .     A
C75    C86     1.409   .     S
C75    O123    1.284   .     A
C76    O126    1.285   .     A
C76    C85     1.410   .     S
C76    O124    1.284   .     A
C77    C79     1.388   .     A
C77    C106    1.418   .     A
C77    H115    1.079   .     S
C78    C80     1.390   .     A
C78    H116    1.078   .     S
C78    C105    1.419   .     A
C79    H107    1.084   .     S
C79    C769    1.391   1_554 S
C80    H108    1.084   .     S
C80    C770    1.391   .     S
C81    H117    1.086   .     S
C81    C86     1.394   .     A
C81    C305    1.378   .     S
C82    H118    1.085   .     S
C82    C85     1.395   .     A
C82    C528    1.378   1_545 S
C83    C85     1.405   .     A
C83    C133    1.511   .     S
C83    C525    1.378   1_545 S
C84    C137    1.511   .     S
C84    C86     1.405   .     A
C84    C304    1.378   .     S
C87    C141    1.500   .     S
C87    N122    1.382   .     A
C87    C163    1.420   .     S
C88    N121    1.382   .     A
C88    C145    1.500   .     S
C89    N121    1.359   .     A
C89    H119    1.082   .     S
C90    N122    1.358   .     A
C90    H120    1.082   .     S
C90    C162    1.420   .     S
C91    O129    1.296   .     A
C91    O127    1.300   .     A
C91    C93     1.460   .     S
C92    C94     1.458   .     S
C92    O130    1.295   .     A
C92    O128    1.300   .     A
C93    C97     1.398   .     A
C93    C99     1.396   .     A
C94    C100    1.392   .     A
C94    C98     1.399   .     A
C95    H113    1.083   .     S
C95    C97     1.394   .     A
C95    C103    1.405   .     A
C96    H114    1.084   .     S
C96    C98     1.396   .     A
C96    C104    1.406   .     A
C97    H112    1.082   .     S
C98    H111    1.083   .     S
C99    C101    1.396   .     A
C99    H110    1.075   .     S
C100   C102    1.394   .     A
C100   H109    1.079   .     S
C101   C105    1.421   .     A
C101   C103    1.419   .     A
C102   C104    1.416   .     A
C102   C106    1.418   .     A
C103   C745    1.391   .     S
C104   C746    1.391   1_554 S
C105   C772    1.415   .     S
C106   C771    1.415   1_554 S
N121   Zn131   2.021   .     S
N122   Zn132   2.021   .     S
O123   Zn131   1.992   .     S
O124   Zn132   1.992   .     S
O125   Zn132   1.981   .     S
O126   Zn131   1.981   .     S
O127   Zn131   1.959   .     S
O128   Zn132   1.959   .     S
O129   Zn132   1.896   .     S
O130   Zn131   1.896   .     S
C133   H135    1.111   .     S
C133   H134    1.110   .     S
C133   H136    1.111   .     S
C137   H139    1.110   .     S
C137   H140    1.111   .     S
C137   H138    1.111   .     S
C141   H144    1.107   .     S
C141   H143    1.105   .     S
C141   H216    1.111   .     S
C145   H148    1.104   .     S
C145   H147    1.105   .     S
H146   C219    1.111   .     S
C149   O199    1.285   .     A
C149   C160    1.409   .     S
C149   O197    1.284   .     A
C150   O200    1.285   .     A
C150   C159    1.410   .     S
C150   O198    1.284   .     A
C151   C153    1.388   .     A
C151   C180    1.418   .     A
C151   H189    1.079   .     S
C152   C154    1.390   .     A
C152   H190    1.078   .     S
C152   C179    1.419   .     A
C153   H181    1.084   .     S
C153   C843    1.391   1_554 S
C154   H182    1.084   .     S
C154   C844    1.391   .     S
C155   H191    1.086   .     S
C155   C160    1.394   .     A
C155   C379    1.378   .     S
C156   H192    1.085   .     S
C156   C159    1.395   .     A
C156   C602    1.378   1_545 S
C157   C159    1.405   .     A
C157   C207    1.511   .     S
C157   C599    1.378   1_545 S
C158   C211    1.511   .     S
C158   C160    1.405   .     A
C158   C378    1.378   .     S
C161   C215    1.500   .     S
C161   N196    1.382   .     A
C161   C15     1.420   1_655 S
C162   N195    1.382   .     A
C162   C219    1.500   .     S
C163   N195    1.359   .     A
C163   H193    1.082   .     S
C164   N196    1.358   .     A
C164   H194    1.082   .     S
C164   C14     1.420   1_655 S
C165   O203    1.296   .     A
C165   O201    1.300   .     A
C165   C167    1.460   .     S
C166   C168    1.458   .     S
C166   O204    1.295   .     A
C166   O202    1.300   .     A
C167   C171    1.398   .     A
C167   C173    1.396   .     A
C168   C174    1.392   .     A
C168   C172    1.399   .     A
C169   H187    1.083   .     S
C169   C171    1.394   .     A
C169   C177    1.405   .     A
C170   H188    1.084   .     S
C170   C172    1.396   .     A
C170   C178    1.406   .     A
C171   H186    1.082   .     S
C172   H185    1.083   .     S
C173   C175    1.396   .     A
C173   H184    1.075   .     S
C174   C176    1.394   .     A
C174   H183    1.079   .     S
C175   C179    1.421   .     A
C175   C177    1.419   .     A
C176   C178    1.416   .     A
C176   C180    1.418   .     A
C177   C819    1.391   .     S
C178   C820    1.391   1_554 S
C179   C846    1.415   .     S
C180   C845    1.415   1_554 S
N195   Zn205   2.021   .     S
N196   Zn206   2.021   .     S
O197   Zn205   1.992   .     S
O198   Zn206   1.992   .     S
O199   Zn206   1.981   .     S
O200   Zn205   1.981   .     S
O201   Zn205   1.959   .     S
O202   Zn206   1.959   .     S
O203   Zn206   1.896   .     S
O204   Zn205   1.896   .     S
C207   H209    1.111   .     S
C207   H208    1.110   .     S
C207   H210    1.111   .     S
C211   H213    1.110   .     S
C211   H214    1.111   .     S
C211   H212    1.111   .     S
C215   H218    1.107   .     S
C215   H217    1.105   .     S
C215   H68     1.111   1_655 S
C219   H222    1.104   .     S
C219   H221    1.105   .     S
H220   C71     1.111   1_655 S
C223   O273    1.285   .     A
C223   C234    1.409   .     S
C223   O271    1.284   .     A
C224   O274    1.285   .     A
C224   C233    1.410   .     S
C224   O272    1.284   .     A
C225   C227    1.388   .     A
C225   C254    1.418   .     A
C225   H263    1.079   .     S
C226   C228    1.390   .     A
C226   H264    1.078   .     S
C226   C253    1.419   .     A
C227   H255    1.084   .     S
C227   C917    1.391   1_554 S
C228   H256    1.084   .     S
C228   C918    1.391   .     S
C229   H265    1.086   .     S
C229   C234    1.394   .     A
C229   C453    1.378   .     S
C230   H266    1.085   .     S
C230   C233    1.395   .     A
C231   C233    1.405   .     A
C231   C281    1.511   .     S
C232   C285    1.511   .     S
C232   C234    1.405   .     A
C232   C452    1.378   .     S
C235   C289    1.500   .     S
C235   N270    1.382   .     A
C235   C311    1.420   .     S
C236   N269    1.382   .     A
C236   C293    1.500   .     S
C236   C386    1.420   1_455 S
C237   N269    1.359   .     A
C237   H267    1.082   .     S
C237   C383    1.420   1_455 S
C238   N270    1.358   .     A
C238   H268    1.082   .     S
C238   C310    1.420   .     S
C239   O277    1.296   .     A
C239   O275    1.300   .     A
C239   C241    1.460   .     S
C240   C242    1.458   .     S
C240   O278    1.295   .     A
C240   O276    1.300   .     A
C241   C245    1.398   .     A
C241   C247    1.396   .     A
C242   C248    1.392   .     A
C242   C246    1.399   .     A
C243   H261    1.083   .     S
C243   C245    1.394   .     A
C243   C251    1.405   .     A
C244   H262    1.084   .     S
C244   C246    1.396   .     A
C244   C252    1.406   .     A
C245   H260    1.082   .     S
C246   H259    1.083   .     S
C247   C249    1.396   .     A
C247   H258    1.075   .     S
C248   C250    1.394   .     A
C248   H257    1.079   .     S
C249   C253    1.421   .     A
C249   C251    1.419   .     A
C250   C252    1.416   .     A
C250   C254    1.418   .     A
C251   C893    1.391   .     S
C252   C894    1.391   1_554 S
C253   C920    1.415   .     S
C254   C919    1.415   1_554 S
N269   Zn279   2.021   .     S
N270   Zn280   2.021   .     S
O271   Zn279   1.992   .     S
O272   Zn280   1.992   .     S
O273   Zn280   1.981   .     S
O274   Zn279   1.981   .     S
O275   Zn279   1.959   .     S
O276   Zn280   1.959   .     S
O277   Zn280   1.896   .     S
O278   Zn279   1.896   .     S
C281   H283    1.111   .     S
C281   H282    1.110   .     S
C281   H284    1.111   .     S
C285   H287    1.110   .     S
C285   H288    1.111   .     S
C285   H286    1.111   .     S
C289   H292    1.107   .     S
C289   H291    1.105   .     S
C289   H364    1.111   .     S
H290   C437    1.111   1_455 S
C293   H296    1.104   .     S
C293   H295    1.105   .     S
C293   H442    1.111   1_455 S
H294   C367    1.111   .     S
C297   O347    1.285   .     A
C297   C308    1.409   .     S
C297   O345    1.284   .     A
C298   O348    1.285   .     A
C298   C307    1.410   .     S
C298   O346    1.284   .     A
C299   C301    1.388   .     A
C299   C328    1.418   .     A
C299   H337    1.079   .     S
C300   C302    1.390   .     A
C300   H338    1.078   .     S
C300   C327    1.419   .     A
C301   H329    1.084   .     S
C301   C991    1.391   1_554 S
C302   H330    1.084   .     S
C302   C992    1.391   .     S
C303   H339    1.086   .     S
C303   C308    1.394   .     A
C303   C527    1.378   .     S
C304   H340    1.085   .     S
C304   C307    1.395   .     A
C305   C307    1.405   .     A
C305   C355    1.511   .     S
C306   C359    1.511   .     S
C306   C308    1.405   .     A
C306   C526    1.378   .     S
C309   C363    1.500   .     S
C309   N344    1.382   .     A
C309   C385    1.420   .     S
C310   N343    1.382   .     A
C310   C367    1.500   .     S
C311   N343    1.359   .     A
C311   H341    1.082   .     S
C312   N344    1.358   .     A
C312   H342    1.082   .     S
C312   C384    1.420   .     S
C313   O351    1.296   .     A
C313   O349    1.300   .     A
C313   C315    1.460   .     S
C314   C316    1.458   .     S
C314   O352    1.295   .     A
C314   O350    1.300   .     A
C315   C319    1.398   .     A
C315   C321    1.396   .     A
C316   C322    1.392   .     A
C316   C320    1.399   .     A
C317   H335    1.083   .     S
C317   C319    1.394   .     A
C317   C325    1.405   .     A
C318   H336    1.084   .     S
C318   C320    1.396   .     A
C318   C326    1.406   .     A
C319   H334    1.082   .     S
C320   H333    1.083   .     S
C321   C323    1.396   .     A
C321   H332    1.075   .     S
C322   C324    1.394   .     A
C322   H331    1.079   .     S
C323   C327    1.421   .     A
C323   C325    1.419   .     A
C324   C326    1.416   .     A
C324   C328    1.418   .     A
C325   C967    1.391   .     S
C326   C968    1.391   1_554 S
C327   C994    1.415   .     S
C328   C993    1.415   1_554 S
N343   Zn353   2.021   .     S
N344   Zn354   2.021   .     S
O345   Zn353   1.992   .     S
O346   Zn354   1.992   .     S
O347   Zn354   1.981   .     S
O348   Zn353   1.981   .     S
O349   Zn353   1.959   .     S
O350   Zn354   1.959   .     S
O351   Zn354   1.896   .     S
O352   Zn353   1.896   .     S
C355   H357    1.111   .     S
C355   H356    1.110   .     S
C355   H358    1.111   .     S
C359   H361    1.110   .     S
C359   H362    1.111   .     S
C359   H360    1.111   .     S
C363   H366    1.107   .     S
C363   H365    1.105   .     S
C363   H438    1.111   .     S
C367   H370    1.104   .     S
C367   H369    1.105   .     S
H368   C441    1.111   .     S
C371   O421    1.285   .     A
C371   C382    1.409   .     S
C371   O419    1.284   .     A
C372   O422    1.285   .     A
C372   C381    1.410   .     S
C372   O420    1.284   .     A
C373   C375    1.388   .     A
C373   C402    1.418   .     A
C373   H411    1.079   .     S
C374   C376    1.390   .     A
C374   H412    1.078   .     S
C374   C401    1.419   .     A
C375   H403    1.084   .     S
C375   C1065   1.391   1_554 S
C376   H404    1.084   .     S
C376   C1066   1.391   .     S
C377   H413    1.086   .     S
C377   C382    1.394   .     A
C377   C601    1.378   .     S
C378   H414    1.085   .     S
C378   C381    1.395   .     A
C379   C381    1.405   .     A
C379   C429    1.511   .     S
C380   C433    1.511   .     S
C380   C382    1.405   .     A
C380   C600    1.378   .     S
C383   C437    1.500   .     S
C383   N418    1.382   .     A
C383   C237    1.420   1_655 S
C384   N417    1.382   .     A
C384   C441    1.500   .     S
C385   N417    1.359   .     A
C385   H415    1.082   .     S
C386   N418    1.358   .     A
C386   H416    1.082   .     S
C386   C236    1.420   1_655 S
C387   O425    1.296   .     A
C387   O423    1.300   .     A
C387   C389    1.460   .     S
C388   C390    1.458   .     S
C388   O426    1.295   .     A
C388   O424    1.300   .     A
C389   C393    1.398   .     A
C389   C395    1.396   .     A
C390   C396    1.392   .     A
C390   C394    1.399   .     A
C391   H409    1.083   .     S
C391   C393    1.394   .     A
C391   C399    1.405   .     A
C392   H410    1.084   .     S
C392   C394    1.396   .     A
C392   C400    1.406   .     A
C393   H408    1.082   .     S
C394   H407    1.083   .     S
C395   C397    1.396   .     A
C395   H406    1.075   .     S
C396   C398    1.394   .     A
C396   H405    1.079   .     S
C397   C401    1.421   .     A
C397   C399    1.419   .     A
C398   C400    1.416   .     A
C398   C402    1.418   .     A
C399   C1041   1.391   .     S
C400   C1042   1.391   1_554 S
C401   C1068   1.415   .     S
C402   C1067   1.415   1_554 S
N417   Zn427   2.021   .     S
N418   Zn428   2.021   .     S
O419   Zn427   1.992   .     S
O420   Zn428   1.992   .     S
O421   Zn428   1.981   .     S
O422   Zn427   1.981   .     S
O423   Zn427   1.959   .     S
O424   Zn428   1.959   .     S
O425   Zn428   1.896   .     S
O426   Zn427   1.896   .     S
C429   H431    1.111   .     S
C429   H430    1.110   .     S
C429   H432    1.111   .     S
C433   H435    1.110   .     S
C433   H436    1.111   .     S
C433   H434    1.111   .     S
C437   H440    1.107   .     S
C437   H439    1.105   .     S
C437   H290    1.111   1_655 S
C441   H444    1.104   .     S
C441   H443    1.105   .     S
H442   C293    1.111   1_655 S
C445   O495    1.285   .     A
C445   C456    1.409   .     S
C445   O493    1.284   .     A
C446   O496    1.285   .     A
C446   C455    1.410   .     S
C446   O494    1.284   .     A
C447   C449    1.388   .     A
C447   C476    1.418   .     A
C447   H485    1.079   .     S
C448   C450    1.390   .     A
C448   H486    1.078   .     S
C448   C475    1.419   .     A
C449   H477    1.084   .     S
C449   C1139   1.391   1_554 S
C450   H478    1.084   .     S
C450   C1140   1.391   .     S
C451   H487    1.086   .     S
C451   C456    1.394   .     A
C451   C9      1.378   1_565 S
C452   H488    1.085   .     S
C452   C455    1.395   .     A
C453   C455    1.405   .     A
C453   C503    1.511   .     S
C454   C507    1.511   .     S
C454   C456    1.405   .     A
C454   C8      1.378   1_565 S
C457   C511    1.500   .     S
C457   N492    1.382   .     A
C457   C533    1.420   .     S
C458   N491    1.382   .     A
C458   C515    1.500   .     S
C458   C608    1.420   1_455 S
C459   N491    1.359   .     A
C459   H489    1.082   .     S
C459   C605    1.420   1_455 S
C460   N492    1.358   .     A
C460   H490    1.082   .     S
C460   C532    1.420   .     S
C461   O499    1.296   .     A
C461   O497    1.300   .     A
C461   C463    1.460   .     S
C462   C464    1.458   .     S
C462   O500    1.295   .     A
C462   O498    1.300   .     A
C463   C467    1.398   .     A
C463   C469    1.396   .     A
C464   C470    1.392   .     A
C464   C468    1.399   .     A
C465   H483    1.083   .     S
C465   C467    1.394   .     A
C465   C473    1.405   .     A
C466   H484    1.084   .     S
C466   C468    1.396   .     A
C466   C474    1.406   .     A
C467   H482    1.082   .     S
C468   H481    1.083   .     S
C469   C471    1.396   .     A
C469   H480    1.075   .     S
C470   C472    1.394   .     A
C470   H479    1.079   .     S
C471   C475    1.421   .     A
C471   C473    1.419   .     A
C472   C474    1.416   .     A
C472   C476    1.418   .     A
C473   C1115   1.391   .     S
C474   C1116   1.391   1_554 S
C475   C1142   1.415   .     S
C476   C1141   1.415   1_554 S
N491   Zn501   2.021   .     S
N492   Zn502   2.021   .     S
O493   Zn501   1.992   .     S
O494   Zn502   1.992   .     S
O495   Zn502   1.981   .     S
O496   Zn501   1.981   .     S
O497   Zn501   1.959   .     S
O498   Zn502   1.959   .     S
O499   Zn502   1.896   .     S
O500   Zn501   1.896   .     S
C503   H505    1.111   .     S
C503   H504    1.110   .     S
C503   H506    1.111   .     S
C507   H509    1.110   .     S
C507   H510    1.111   .     S
C507   H508    1.111   .     S
C511   H514    1.107   .     S
C511   H513    1.105   .     S
C511   H586    1.111   .     S
H512   C659    1.111   1_455 S
C515   H518    1.104   .     S
C515   H517    1.105   .     S
C515   H664    1.111   1_455 S
H516   C589    1.111   .     S
C519   O569    1.285   .     A
C519   C530    1.409   .     S
C519   O567    1.284   .     A
C520   O570    1.285   .     A
C520   C529    1.410   .     S
C520   O568    1.284   .     A
C521   C523    1.388   .     A
C521   C550    1.418   .     A
C521   H559    1.079   .     S
C522   C524    1.390   .     A
C522   H560    1.078   .     S
C522   C549    1.419   .     A
C523   H551    1.084   .     S
C523   C1213   1.391   1_554 S
C524   H552    1.084   .     S
C524   C1214   1.391   .     S
C525   H561    1.086   .     S
C525   C530    1.394   .     A
C525   C83     1.378   1_565 S
C526   H562    1.085   .     S
C526   C529    1.395   .     A
C527   C529    1.405   .     A
C527   C577    1.511   .     S
C528   C581    1.511   .     S
C528   C530    1.405   .     A
C528   C82     1.378   1_565 S
C531   C585    1.500   .     S
C531   N566    1.382   .     A
C531   C607    1.420   .     S
C532   N565    1.382   .     A
C532   C589    1.500   .     S
C533   N565    1.359   .     A
C533   H563    1.082   .     S
C534   N566    1.358   .     A
C534   H564    1.082   .     S
C534   C606    1.420   .     S
C535   O573    1.296   .     A
C535   O571    1.300   .     A
C535   C537    1.460   .     S
C536   C538    1.458   .     S
C536   O574    1.295   .     A
C536   O572    1.300   .     A
C537   C541    1.398   .     A
C537   C543    1.396   .     A
C538   C544    1.392   .     A
C538   C542    1.399   .     A
C539   H557    1.083   .     S
C539   C541    1.394   .     A
C539   C547    1.405   .     A
C540   H558    1.084   .     S
C540   C542    1.396   .     A
C540   C548    1.406   .     A
C541   H556    1.082   .     S
C542   H555    1.083   .     S
C543   C545    1.396   .     A
C543   H554    1.075   .     S
C544   C546    1.394   .     A
C544   H553    1.079   .     S
C545   C549    1.421   .     A
C545   C547    1.419   .     A
C546   C548    1.416   .     A
C546   C550    1.418   .     A
C547   C1189   1.391   .     S
C548   C1190   1.391   1_554 S
C549   C1216   1.415   .     S
C550   C1215   1.415   1_554 S
N565   Zn575   2.021   .     S
N566   Zn576   2.021   .     S
O567   Zn575   1.992   .     S
O568   Zn576   1.992   .     S
O569   Zn576   1.981   .     S
O570   Zn575   1.981   .     S
O571   Zn575   1.959   .     S
O572   Zn576   1.959   .     S
O573   Zn576   1.896   .     S
O574   Zn575   1.896   .     S
C577   H579    1.111   .     S
C577   H578    1.110   .     S
C577   H580    1.111   .     S
C581   H583    1.110   .     S
C581   H584    1.111   .     S
C581   H582    1.111   .     S
C585   H588    1.107   .     S
C585   H587    1.105   .     S
C585   H660    1.111   .     S
C589   H592    1.104   .     S
C589   H591    1.105   .     S
H590   C663    1.111   .     S
C593   O643    1.285   .     A
C593   C604    1.409   .     S
C593   O641    1.284   .     A
C594   O644    1.285   .     A
C594   C603    1.410   .     S
C594   O642    1.284   .     A
C595   C597    1.388   .     A
C595   C624    1.418   .     A
C595   H633    1.079   .     S
C596   C598    1.390   .     A
C596   H634    1.078   .     S
C596   C623    1.419   .     A
C597   H625    1.084   .     S
C597   C1287   1.391   1_554 S
C598   H626    1.084   .     S
C598   C1288   1.391   .     S
C599   H635    1.086   .     S
C599   C604    1.394   .     A
C599   C157    1.378   1_565 S
C600   H636    1.085   .     S
C600   C603    1.395   .     A
C601   C603    1.405   .     A
C601   C651    1.511   .     S
C602   C655    1.511   .     S
C602   C604    1.405   .     A
C602   C156    1.378   1_565 S
C605   C659    1.500   .     S
C605   N640    1.382   .     A
C605   C459    1.420   1_655 S
C606   N639    1.382   .     A
C606   C663    1.500   .     S
C607   N639    1.359   .     A
C607   H637    1.082   .     S
C608   N640    1.358   .     A
C608   H638    1.082   .     S
C608   C458    1.420   1_655 S
C609   O647    1.296   .     A
C609   O645    1.300   .     A
C609   C611    1.460   .     S
C610   C612    1.458   .     S
C610   O648    1.295   .     A
C610   O646    1.300   .     A
C611   C615    1.398   .     A
C611   C617    1.396   .     A
C612   C618    1.392   .     A
C612   C616    1.399   .     A
C613   H631    1.083   .     S
C613   C615    1.394   .     A
C613   C621    1.405   .     A
C614   H632    1.084   .     S
C614   C616    1.396   .     A
C614   C622    1.406   .     A
C615   H630    1.082   .     S
C616   H629    1.083   .     S
C617   C619    1.396   .     A
C617   H628    1.075   .     S
C618   C620    1.394   .     A
C618   H627    1.079   .     S
C619   C623    1.421   .     A
C619   C621    1.419   .     A
C620   C622    1.416   .     A
C620   C624    1.418   .     A
C621   C1263   1.391   .     S
C622   C1264   1.391   1_554 S
C623   C1290   1.415   .     S
C624   C1289   1.415   1_554 S
N639   Zn649   2.021   .     S
N640   Zn650   2.021   .     S
O641   Zn649   1.992   .     S
O642   Zn650   1.992   .     S
O643   Zn650   1.981   .     S
O644   Zn649   1.981   .     S
O645   Zn649   1.959   .     S
O646   Zn650   1.959   .     S
O647   Zn650   1.896   .     S
O648   Zn649   1.896   .     S
C651   H653    1.111   .     S
C651   H652    1.110   .     S
C651   H654    1.111   .     S
C655   H657    1.110   .     S
C655   H658    1.111   .     S
C655   H656    1.111   .     S
C659   H662    1.107   .     S
C659   H661    1.105   .     S
C659   H512    1.111   1_655 S
C663   H666    1.104   .     S
C663   H665    1.105   .     S
H664   C515    1.111   1_655 S
C667   O717    1.285   .     A
C667   C678    1.409   .     S
C667   O715    1.284   .     A
C668   O718    1.285   .     A
C668   C677    1.410   .     S
C668   O716    1.284   .     A
C669   C671    1.388   .     A
C669   C698    1.418   .     A
C669   H707    1.079   .     S
C670   C672    1.390   .     A
C670   H708    1.078   .     S
C670   C697    1.419   .     A
C671   H699    1.084   .     S
C672   H700    1.084   .     S
C672   C30     1.391   1_556 S
C673   H709    1.086   .     S
C673   C678    1.394   .     A
C673   C897    1.378   .     S
C674   H710    1.085   .     S
C674   C677    1.395   .     A
C674   C1120   1.378   1_545 S
C675   C677    1.405   .     A
C675   C725    1.511   .     S
C675   C1117   1.378   1_545 S
C676   C729    1.511   .     S
C676   C678    1.405   .     A
C676   C896    1.378   .     S
C679   C733    1.500   .     S
C679   N714    1.382   .     A
C679   C755    1.420   .     S
C680   N713    1.382   .     A
C680   C737    1.500   .     S
C680   C830    1.420   1_455 S
C681   N713    1.359   .     A
C681   H711    1.082   .     S
C681   C827    1.420   1_455 S
C682   N714    1.358   .     A
C682   H712    1.082   .     S
C682   C754    1.420   .     S
C683   O721    1.296   .     A
C683   O719    1.300   .     A
C683   C685    1.460   .     S
C684   C686    1.458   .     S
C684   O722    1.295   .     A
C684   O720    1.300   .     A
C685   C689    1.398   .     A
C685   C691    1.396   .     A
C686   C692    1.392   .     A
C686   C690    1.399   .     A
C687   H705    1.083   .     S
C687   C689    1.394   .     A
C687   C695    1.405   .     A
C688   H706    1.084   .     S
C688   C690    1.396   .     A
C688   C696    1.406   .     A
C689   H704    1.082   .     S
C690   H703    1.083   .     S
C691   C693    1.396   .     A
C691   H702    1.075   .     S
C692   C694    1.394   .     A
C692   H701    1.079   .     S
C693   C697    1.421   .     A
C693   C695    1.419   .     A
C694   C696    1.416   .     A
C694   C698    1.418   .     A
C695   C5      1.391   1_556 S
C697   C32     1.415   1_556 S
N713   Zn723   2.021   .     S
N714   Zn724   2.021   .     S
O715   Zn723   1.992   .     S
O716   Zn724   1.992   .     S
O717   Zn724   1.981   .     S
O718   Zn723   1.981   .     S
O719   Zn723   1.959   .     S
O720   Zn724   1.959   .     S
O721   Zn724   1.896   .     S
O722   Zn723   1.896   .     S
C725   H727    1.111   .     S
C725   H726    1.110   .     S
C725   H728    1.111   .     S
C729   H731    1.110   .     S
C729   H732    1.111   .     S
C729   H730    1.111   .     S
C733   H736    1.107   .     S
C733   H735    1.105   .     S
C733   H808    1.111   .     S
H734   C881    1.111   1_455 S
C737   H740    1.104   .     S
C737   H739    1.105   .     S
C737   H886    1.111   1_455 S
H738   C811    1.111   .     S
C741   O791    1.285   .     A
C741   C752    1.409   .     S
C741   O789    1.284   .     A
C742   O792    1.285   .     A
C742   C751    1.410   .     S
C742   O790    1.284   .     A
C743   C745    1.388   .     A
C743   C772    1.418   .     A
C743   H781    1.079   .     S
C744   C746    1.390   .     A
C744   H782    1.078   .     S
C744   C771    1.419   .     A
C745   H773    1.084   .     S
C746   H774    1.084   .     S
C746   C104    1.391   1_556 S
C747   H783    1.086   .     S
C747   C752    1.394   .     A
C747   C971    1.378   .     S
C748   H784    1.085   .     S
C748   C751    1.395   .     A
C748   C1194   1.378   1_545 S
C749   C751    1.405   .     A
C749   C799    1.511   .     S
C749   C1191   1.378   1_545 S
C750   C803    1.511   .     S
C750   C752    1.405   .     A
C750   C970    1.378   .     S
C753   C807    1.500   .     S
C753   N788    1.382   .     A
C753   C829    1.420   .     S
C754   N787    1.382   .     A
C754   C811    1.500   .     S
C755   N787    1.359   .     A
C755   H785    1.082   .     S
C756   N788    1.358   .     A
C756   H786    1.082   .     S
C756   C828    1.420   .     S
C757   O795    1.296   .     A
C757   O793    1.300   .     A
C757   C759    1.460   .     S
C758   C760    1.458   .     S
C758   O796    1.295   .     A
C758   O794    1.300   .     A
C759   C763    1.398   .     A
C759   C765    1.396   .     A
C760   C766    1.392   .     A
C760   C764    1.399   .     A
C761   H779    1.083   .     S
C761   C763    1.394   .     A
C761   C769    1.405   .     A
C762   H780    1.084   .     S
C762   C764    1.396   .     A
C762   C770    1.406   .     A
C763   H778    1.082   .     S
C764   H777    1.083   .     S
C765   C767    1.396   .     A
C765   H776    1.075   .     S
C766   C768    1.394   .     A
C766   H775    1.079   .     S
C767   C771    1.421   .     A
C767   C769    1.419   .     A
C768   C770    1.416   .     A
C768   C772    1.418   .     A
C769   C79     1.391   1_556 S
C771   C106    1.415   1_556 S
N787   Zn797   2.021   .     S
N788   Zn798   2.021   .     S
O789   Zn797   1.992   .     S
O790   Zn798   1.992   .     S
O791   Zn798   1.981   .     S
O792   Zn797   1.981   .     S
O793   Zn797   1.959   .     S
O794   Zn798   1.959   .     S
O795   Zn798   1.896   .     S
O796   Zn797   1.896   .     S
C799   H801    1.111   .     S
C799   H800    1.110   .     S
C799   H802    1.111   .     S
C803   H805    1.110   .     S
C803   H806    1.111   .     S
C803   H804    1.111   .     S
C807   H810    1.107   .     S
C807   H809    1.105   .     S
C807   H882    1.111   .     S
C811   H814    1.104   .     S
C811   H813    1.105   .     S
H812   C885    1.111   .     S
C815   O865    1.285   .     A
C815   C826    1.409   .     S
C815   O863    1.284   .     A
C816   O866    1.285   .     A
C816   C825    1.410   .     S
C816   O864    1.284   .     A
C817   C819    1.388   .     A
C817   C846    1.418   .     A
C817   H855    1.079   .     S
C818   C820    1.390   .     A
C818   H856    1.078   .     S
C818   C845    1.419   .     A
C819   H847    1.084   .     S
C820   H848    1.084   .     S
C820   C178    1.391   1_556 S
C821   H857    1.086   .     S
C821   C826    1.394   .     A
C821   C1045   1.378   .     S
C822   H858    1.085   .     S
C822   C825    1.395   .     A
C822   C1268   1.378   1_545 S
C823   C825    1.405   .     A
C823   C873    1.511   .     S
C823   C1265   1.378   1_545 S
C824   C877    1.511   .     S
C824   C826    1.405   .     A
C824   C1044   1.378   .     S
C827   C881    1.500   .     S
C827   N862    1.382   .     A
C827   C681    1.420   1_655 S
C828   N861    1.382   .     A
C828   C885    1.500   .     S
C829   N861    1.359   .     A
C829   H859    1.082   .     S
C830   N862    1.358   .     A
C830   H860    1.082   .     S
C830   C680    1.420   1_655 S
C831   O869    1.296   .     A
C831   O867    1.300   .     A
C831   C833    1.460   .     S
C832   C834    1.458   .     S
C832   O870    1.295   .     A
C832   O868    1.300   .     A
C833   C837    1.398   .     A
C833   C839    1.396   .     A
C834   C840    1.392   .     A
C834   C838    1.399   .     A
C835   H853    1.083   .     S
C835   C837    1.394   .     A
C835   C843    1.405   .     A
C836   H854    1.084   .     S
C836   C838    1.396   .     A
C836   C844    1.406   .     A
C837   H852    1.082   .     S
C838   H851    1.083   .     S
C839   C841    1.396   .     A
C839   H850    1.075   .     S
C840   C842    1.394   .     A
C840   H849    1.079   .     S
C841   C845    1.421   .     A
C841   C843    1.419   .     A
C842   C844    1.416   .     A
C842   C846    1.418   .     A
C843   C153    1.391   1_556 S
C845   C180    1.415   1_556 S
N861   Zn871   2.021   .     S
N862   Zn872   2.021   .     S
O863   Zn871   1.992   .     S
O864   Zn872   1.992   .     S
O865   Zn872   1.981   .     S
O866   Zn871   1.981   .     S
O867   Zn871   1.959   .     S
O868   Zn872   1.959   .     S
O869   Zn872   1.896   .     S
O870   Zn871   1.896   .     S
C873   H875    1.111   .     S
C873   H874    1.110   .     S
C873   H876    1.111   .     S
C877   H879    1.110   .     S
C877   H880    1.111   .     S
C877   H878    1.111   .     S
C881   H884    1.107   .     S
C881   H883    1.105   .     S
C881   H734    1.111   1_655 S
C885   H888    1.104   .     S
C885   H887    1.105   .     S
H886   C737    1.111   1_655 S
C889   O939    1.285   .     A
C889   C900    1.409   .     S
C889   O937    1.284   .     A
C890   O940    1.285   .     A
C890   C899    1.410   .     S
C890   O938    1.284   .     A
C891   C893    1.388   .     A
C891   C920    1.418   .     A
C891   H929    1.079   .     S
C892   C894    1.390   .     A
C892   H930    1.078   .     S
C892   C919    1.419   .     A
C893   H921    1.084   .     S
C894   H922    1.084   .     S
C894   C252    1.391   1_556 S
C895   H931    1.086   .     S
C895   C900    1.394   .     A
C895   C1119   1.378   .     S
C896   H932    1.085   .     S
C896   C899    1.395   .     A
C897   C899    1.405   .     A
C897   C947    1.511   .     S
C898   C951    1.511   .     S
C898   C900    1.405   .     A
C898   C1118   1.378   .     S
C901   C955    1.500   .     S
C901   N936    1.382   .     A
C901   C977    1.420   .     S
C902   N935    1.382   .     A
C902   C959    1.500   .     S
C902   C1052   1.420   1_455 S
C903   N935    1.359   .     A
C903   H933    1.082   .     S
C903   C1049   1.420   1_455 S
C904   N936    1.358   .     A
C904   H934    1.082   .     S
C904   C976    1.420   .     S
C905   O943    1.296   .     A
C905   O941    1.300   .     A
C905   C907    1.460   .     S
C906   C908    1.458   .     S
C906   O944    1.295   .     A
C906   O942    1.300   .     A
C907   C911    1.398   .     A
C907   C913    1.396   .     A
C908   C914    1.392   .     A
C908   C912    1.399   .     A
C909   H927    1.083   .     S
C909   C911    1.394   .     A
C909   C917    1.405   .     A
C910   H928    1.084   .     S
C910   C912    1.396   .     A
C910   C918    1.406   .     A
C911   H926    1.082   .     S
C912   H925    1.083   .     S
C913   C915    1.396   .     A
C913   H924    1.075   .     S
C914   C916    1.394   .     A
C914   H923    1.079   .     S
C915   C919    1.421   .     A
C915   C917    1.419   .     A
C916   C918    1.416   .     A
C916   C920    1.418   .     A
C917   C227    1.391   1_556 S
C919   C254    1.415   1_556 S
N935   Zn945   2.021   .     S
N936   Zn946   2.021   .     S
O937   Zn945   1.992   .     S
O938   Zn946   1.992   .     S
O939   Zn946   1.981   .     S
O940   Zn945   1.981   .     S
O941   Zn945   1.959   .     S
O942   Zn946   1.959   .     S
O943   Zn946   1.896   .     S
O944   Zn945   1.896   .     S
C947   H949    1.111   .     S
C947   H948    1.110   .     S
C947   H950    1.111   .     S
C951   H953    1.110   .     S
C951   H954    1.111   .     S
C951   H952    1.111   .     S
C955   H958    1.107   .     S
C955   H957    1.105   .     S
C955   H1030   1.111   .     S
H956   C1103   1.111   1_455 S
C959   H962    1.104   .     S
C959   H961    1.105   .     S
C959   H1108   1.111   1_455 S
H960   C1033   1.111   .     S
C963   O1013   1.285   .     A
C963   C974    1.409   .     S
C963   O1011   1.284   .     A
C964   O1014   1.285   .     A
C964   C973    1.410   .     S
C964   O1012   1.284   .     A
C965   C967    1.388   .     A
C965   C994    1.418   .     A
C965   H1003   1.079   .     S
C966   C968    1.390   .     A
C966   H1004   1.078   .     S
C966   C993    1.419   .     A
C967   H995    1.084   .     S
C968   H996    1.084   .     S
C968   C326    1.391   1_556 S
C969   H1005   1.086   .     S
C969   C974    1.394   .     A
C969   C1193   1.378   .     S
C970   H1006   1.085   .     S
C970   C973    1.395   .     A
C971   C973    1.405   .     A
C971   C1021   1.511   .     S
C972   C1025   1.511   .     S
C972   C974    1.405   .     A
C972   C1192   1.378   .     S
C975   C1029   1.500   .     S
C975   N1010   1.382   .     A
C975   C1051   1.420   .     S
C976   N1009   1.382   .     A
C976   C1033   1.500   .     S
C977   N1009   1.359   .     A
C977   H1007   1.082   .     S
C978   N1010   1.358   .     A
C978   H1008   1.082   .     S
C978   C1050   1.420   .     S
C979   O1017   1.296   .     A
C979   O1015   1.300   .     A
C979   C981    1.460   .     S
C980   C982    1.458   .     S
C980   O1018   1.295   .     A
C980   O1016   1.300   .     A
C981   C985    1.398   .     A
C981   C987    1.396   .     A
C982   C988    1.392   .     A
C982   C986    1.399   .     A
C983   H1001   1.083   .     S
C983   C985    1.394   .     A
C983   C991    1.405   .     A
C984   H1002   1.084   .     S
C984   C986    1.396   .     A
C984   C992    1.406   .     A
C985   H1000   1.082   .     S
C986   H999    1.083   .     S
C987   C989    1.396   .     A
C987   H998    1.075   .     S
C988   C990    1.394   .     A
C988   H997    1.079   .     S
C989   C993    1.421   .     A
C989   C991    1.419   .     A
C990   C992    1.416   .     A
C990   C994    1.418   .     A
C991   C301    1.391   1_556 S
C993   C328    1.415   1_556 S
N1009  Zn1019  2.021   .     S
N1010  Zn1020  2.021   .     S
O1011  Zn1019  1.992   .     S
O1012  Zn1020  1.992   .     S
O1013  Zn1020  1.981   .     S
O1014  Zn1019  1.981   .     S
O1015  Zn1019  1.959   .     S
O1016  Zn1020  1.959   .     S
O1017  Zn1020  1.896   .     S
O1018  Zn1019  1.896   .     S
C1021  H1023   1.111   .     S
C1021  H1022   1.110   .     S
C1021  H1024   1.111   .     S
C1025  H1027   1.110   .     S
C1025  H1028   1.111   .     S
C1025  H1026   1.111   .     S
C1029  H1032   1.107   .     S
C1029  H1031   1.105   .     S
C1029  H1104   1.111   .     S
C1033  H1036   1.104   .     S
C1033  H1035   1.105   .     S
H1034  C1107   1.111   .     S
C1037  O1087   1.285   .     A
C1037  C1048   1.409   .     S
C1037  O1085   1.284   .     A
C1038  O1088   1.285   .     A
C1038  C1047   1.410   .     S
C1038  O1086   1.284   .     A
C1039  C1041   1.388   .     A
C1039  C1068   1.418   .     A
C1039  H1077   1.079   .     S
C1040  C1042   1.390   .     A
C1040  H1078   1.078   .     S
C1040  C1067   1.419   .     A
C1041  H1069   1.084   .     S
C1042  H1070   1.084   .     S
C1042  C400    1.391   1_556 S
C1043  H1079   1.086   .     S
C1043  C1048   1.394   .     A
C1043  C1267   1.378   .     S
C1044  H1080   1.085   .     S
C1044  C1047   1.395   .     A
C1045  C1047   1.405   .     A
C1045  C1095   1.511   .     S
C1046  C1099   1.511   .     S
C1046  C1048   1.405   .     A
C1046  C1266   1.378   .     S
C1049  C1103   1.500   .     S
C1049  N1084   1.382   .     A
C1049  C903    1.420   1_655 S
C1050  N1083   1.382   .     A
C1050  C1107   1.500   .     S
C1051  N1083   1.359   .     A
C1051  H1081   1.082   .     S
C1052  N1084   1.358   .     A
C1052  H1082   1.082   .     S
C1052  C902    1.420   1_655 S
C1053  O1091   1.296   .     A
C1053  O1089   1.300   .     A
C1053  C1055   1.460   .     S
C1054  C1056   1.458   .     S
C1054  O1092   1.295   .     A
C1054  O1090   1.300   .     A
C1055  C1059   1.398   .     A
C1055  C1061   1.396   .     A
C1056  C1062   1.392   .     A
C1056  C1060   1.399   .     A
C1057  H1075   1.083   .     S
C1057  C1059   1.394   .     A
C1057  C1065   1.405   .     A
C1058  H1076   1.084   .     S
C1058  C1060   1.396   .     A
C1058  C1066   1.406   .     A
C1059  H1074   1.082   .     S
C1060  H1073   1.083   .     S
C1061  C1063   1.396   .     A
C1061  H1072   1.075   .     S
C1062  C1064   1.394   .     A
C1062  H1071   1.079   .     S
C1063  C1067   1.421   .     A
C1063  C1065   1.419   .     A
C1064  C1066   1.416   .     A
C1064  C1068   1.418   .     A
C1065  C375    1.391   1_556 S
C1067  C402    1.415   1_556 S
N1083  Zn1093  2.021   .     S
N1084  Zn1094  2.021   .     S
O1085  Zn1093  1.992   .     S
O1086  Zn1094  1.992   .     S
O1087  Zn1094  1.981   .     S
O1088  Zn1093  1.981   .     S
O1089  Zn1093  1.959   .     S
O1090  Zn1094  1.959   .     S
O1091  Zn1094  1.896   .     S
O1092  Zn1093  1.896   .     S
C1095  H1097   1.111   .     S
C1095  H1096   1.110   .     S
C1095  H1098   1.111   .     S
C1099  H1101   1.110   .     S
C1099  H1102   1.111   .     S
C1099  H1100   1.111   .     S
C1103  H1106   1.107   .     S
C1103  H1105   1.105   .     S
C1103  H956    1.111   1_655 S
C1107  H1110   1.104   .     S
C1107  H1109   1.105   .     S
H1108  C959    1.111   1_655 S
C1111  O1161   1.285   .     A
C1111  C1122   1.409   .     S
C1111  O1159   1.284   .     A
C1112  O1162   1.285   .     A
C1112  C1121   1.410   .     S
C1112  O1160   1.284   .     A
C1113  C1115   1.388   .     A
C1113  C1142   1.418   .     A
C1113  H1151   1.079   .     S
C1114  C1116   1.390   .     A
C1114  H1152   1.078   .     S
C1114  C1141   1.419   .     A
C1115  H1143   1.084   .     S
C1116  H1144   1.084   .     S
C1116  C474    1.391   1_556 S
C1117  H1153   1.086   .     S
C1117  C1122   1.394   .     A
C1117  C675    1.378   1_565 S
C1118  H1154   1.085   .     S
C1118  C1121   1.395   .     A
C1119  C1121   1.405   .     A
C1119  C1169   1.511   .     S
C1120  C1173   1.511   .     S
C1120  C1122   1.405   .     A
C1120  C674    1.378   1_565 S
C1123  C1177   1.500   .     S
C1123  N1158   1.382   .     A
C1123  C1199   1.420   .     S
C1124  N1157   1.382   .     A
C1124  C1181   1.500   .     S
C1124  C1274   1.420   1_455 S
C1125  N1157   1.359   .     A
C1125  H1155   1.082   .     S
C1125  C1271   1.420   1_455 S
C1126  N1158   1.358   .     A
C1126  H1156   1.082   .     S
C1126  C1198   1.420   .     S
C1127  O1165   1.296   .     A
C1127  O1163   1.300   .     A
C1127  C1129   1.460   .     S
C1128  C1130   1.458   .     S
C1128  O1166   1.295   .     A
C1128  O1164   1.300   .     A
C1129  C1133   1.398   .     A
C1129  C1135   1.396   .     A
C1130  C1136   1.392   .     A
C1130  C1134   1.399   .     A
C1131  H1149   1.083   .     S
C1131  C1133   1.394   .     A
C1131  C1139   1.405   .     A
C1132  H1150   1.084   .     S
C1132  C1134   1.396   .     A
C1132  C1140   1.406   .     A
C1133  H1148   1.082   .     S
C1134  H1147   1.083   .     S
C1135  C1137   1.396   .     A
C1135  H1146   1.075   .     S
C1136  C1138   1.394   .     A
C1136  H1145   1.079   .     S
C1137  C1141   1.421   .     A
C1137  C1139   1.419   .     A
C1138  C1140   1.416   .     A
C1138  C1142   1.418   .     A
C1139  C449    1.391   1_556 S
C1141  C476    1.415   1_556 S
N1157  Zn1167  2.021   .     S
N1158  Zn1168  2.021   .     S
O1159  Zn1167  1.992   .     S
O1160  Zn1168  1.992   .     S
O1161  Zn1168  1.981   .     S
O1162  Zn1167  1.981   .     S
O1163  Zn1167  1.959   .     S
O1164  Zn1168  1.959   .     S
O1165  Zn1168  1.896   .     S
O1166  Zn1167  1.896   .     S
C1169  H1171   1.111   .     S
C1169  H1170   1.110   .     S
C1169  H1172   1.111   .     S
C1173  H1175   1.110   .     S
C1173  H1176   1.111   .     S
C1173  H1174   1.111   .     S
C1177  H1180   1.107   .     S
C1177  H1179   1.105   .     S
C1177  H1252   1.111   .     S
H1178  C1325   1.111   1_455 S
C1181  H1184   1.104   .     S
C1181  H1183   1.105   .     S
C1181  H1330   1.111   1_455 S
H1182  C1255   1.111   .     S
C1185  O1235   1.285   .     A
C1185  C1196   1.409   .     S
C1185  O1233   1.284   .     A
C1186  O1236   1.285   .     A
C1186  C1195   1.410   .     S
C1186  O1234   1.284   .     A
C1187  C1189   1.388   .     A
C1187  C1216   1.418   .     A
C1187  H1225   1.079   .     S
C1188  C1190   1.390   .     A
C1188  H1226   1.078   .     S
C1188  C1215   1.419   .     A
C1189  H1217   1.084   .     S
C1190  H1218   1.084   .     S
C1190  C548    1.391   1_556 S
C1191  H1227   1.086   .     S
C1191  C1196   1.394   .     A
C1191  C749    1.378   1_565 S
C1192  H1228   1.085   .     S
C1192  C1195   1.395   .     A
C1193  C1195   1.405   .     A
C1193  C1243   1.511   .     S
C1194  C1247   1.511   .     S
C1194  C1196   1.405   .     A
C1194  C748    1.378   1_565 S
C1197  C1251   1.500   .     S
C1197  N1232   1.382   .     A
C1197  C1273   1.420   .     S
C1198  N1231   1.382   .     A
C1198  C1255   1.500   .     S
C1199  N1231   1.359   .     A
C1199  H1229   1.082   .     S
C1200  N1232   1.358   .     A
C1200  H1230   1.082   .     S
C1200  C1272   1.420   .     S
C1201  O1239   1.296   .     A
C1201  O1237   1.300   .     A
C1201  C1203   1.460   .     S
C1202  C1204   1.458   .     S
C1202  O1240   1.295   .     A
C1202  O1238   1.300   .     A
C1203  C1207   1.398   .     A
C1203  C1209   1.396   .     A
C1204  C1210   1.392   .     A
C1204  C1208   1.399   .     A
C1205  H1223   1.083   .     S
C1205  C1207   1.394   .     A
C1205  C1213   1.405   .     A
C1206  H1224   1.084   .     S
C1206  C1208   1.396   .     A
C1206  C1214   1.406   .     A
C1207  H1222   1.082   .     S
C1208  H1221   1.083   .     S
C1209  C1211   1.396   .     A
C1209  H1220   1.075   .     S
C1210  C1212   1.394   .     A
C1210  H1219   1.079   .     S
C1211  C1215   1.421   .     A
C1211  C1213   1.419   .     A
C1212  C1214   1.416   .     A
C1212  C1216   1.418   .     A
C1213  C523    1.391   1_556 S
C1215  C550    1.415   1_556 S
N1231  Zn1241  2.021   .     S
N1232  Zn1242  2.021   .     S
O1233  Zn1241  1.992   .     S
O1234  Zn1242  1.992   .     S
O1235  Zn1242  1.981   .     S
O1236  Zn1241  1.981   .     S
O1237  Zn1241  1.959   .     S
O1238  Zn1242  1.959   .     S
O1239  Zn1242  1.896   .     S
O1240  Zn1241  1.896   .     S
C1243  H1245   1.111   .     S
C1243  H1244   1.110   .     S
C1243  H1246   1.111   .     S
C1247  H1249   1.110   .     S
C1247  H1250   1.111   .     S
C1247  H1248   1.111   .     S
C1251  H1254   1.107   .     S
C1251  H1253   1.105   .     S
C1251  H1326   1.111   .     S
C1255  H1258   1.104   .     S
C1255  H1257   1.105   .     S
H1256  C1329   1.111   .     S
C1259  O1309   1.285   .     A
C1259  C1270   1.409   .     S
C1259  O1307   1.284   .     A
C1260  O1310   1.285   .     A
C1260  C1269   1.410   .     S
C1260  O1308   1.284   .     A
C1261  C1263   1.388   .     A
C1261  C1290   1.418   .     A
C1261  H1299   1.079   .     S
C1262  C1264   1.390   .     A
C1262  H1300   1.078   .     S
C1262  C1289   1.419   .     A
C1263  H1291   1.084   .     S
C1264  H1292   1.084   .     S
C1264  C622    1.391   1_556 S
C1265  H1301   1.086   .     S
C1265  C1270   1.394   .     A
C1265  C823    1.378   1_565 S
C1266  H1302   1.085   .     S
C1266  C1269   1.395   .     A
C1267  C1269   1.405   .     A
C1267  C1317   1.511   .     S
C1268  C1321   1.511   .     S
C1268  C1270   1.405   .     A
C1268  C822    1.378   1_565 S
C1271  C1325   1.500   .     S
C1271  N1306   1.382   .     A
C1271  C1125   1.420   1_655 S
C1272  N1305   1.382   .     A
C1272  C1329   1.500   .     S
C1273  N1305   1.359   .     A
C1273  H1303   1.082   .     S
C1274  N1306   1.358   .     A
C1274  H1304   1.082   .     S
C1274  C1124   1.420   1_655 S
C1275  O1313   1.296   .     A
C1275  O1311   1.300   .     A
C1275  C1277   1.460   .     S
C1276  C1278   1.458   .     S
C1276  O1314   1.295   .     A
C1276  O1312   1.300   .     A
C1277  C1281   1.398   .     A
C1277  C1283   1.396   .     A
C1278  C1284   1.392   .     A
C1278  C1282   1.399   .     A
C1279  H1297   1.083   .     S
C1279  C1281   1.394   .     A
C1279  C1287   1.405   .     A
C1280  H1298   1.084   .     S
C1280  C1282   1.396   .     A
C1280  C1288   1.406   .     A
C1281  H1296   1.082   .     S
C1282  H1295   1.083   .     S
C1283  C1285   1.396   .     A
C1283  H1294   1.075   .     S
C1284  C1286   1.394   .     A
C1284  H1293   1.079   .     S
C1285  C1289   1.421   .     A
C1285  C1287   1.419   .     A
C1286  C1288   1.416   .     A
C1286  C1290   1.418   .     A
C1287  C597    1.391   1_556 S
C1289  C624    1.415   1_556 S
N1305  Zn1315  2.021   .     S
N1306  Zn1316  2.021   .     S
O1307  Zn1315  1.992   .     S
O1308  Zn1316  1.992   .     S
O1309  Zn1316  1.981   .     S
O1310  Zn1315  1.981   .     S
O1311  Zn1315  1.959   .     S
O1312  Zn1316  1.959   .     S
O1313  Zn1316  1.896   .     S
O1314  Zn1315  1.896   .     S
C1317  H1319   1.111   .     S
C1317  H1318   1.110   .     S
C1317  H1320   1.111   .     S
C1321  H1323   1.110   .     S
C1321  H1324   1.111   .     S
C1321  H1322   1.111   .     S
C1325  H1328   1.107   .     S
C1325  H1327   1.105   .     S
C1325  H1178   1.111   1_655 S
C1329  H1332   1.104   .     S
C1329  H1331   1.105   .     S
H1330  C1181   1.111   1_655 S
