data_str_m1_o10_o18_pcu_sym.144
_audit_creation_date              2020-01-03
_audit_creation_method            'Materials Studio'
_symmetry_space_group_name_H-M    'P1'
_symmetry_Int_Tables_number       1
_symmetry_cell_setting            triclinic
loop_
_symmetry_equiv_pos_as_xyz
  x,y,z
_cell_length_a                    32.5910
_cell_length_b                    32.6586
_cell_length_c                    35.5090
_cell_angle_alpha                 97.8555
_cell_angle_beta                  73.4111
_cell_angle_gamma                 97.9418
loop_
_atom_site_label
_atom_site_type_symbol
_atom_site_fract_x
_atom_site_fract_y
_atom_site_fract_z
_atom_site_U_iso_or_equiv
_atom_site_adp_type
_atom_site_occupancy
Zn1    Zn    0.19244   0.14090   0.28277   0.00000  Uiso   1.00
Zn2    Zn    0.13459   0.12378   0.22257   0.00000  Uiso   1.00
Zn3    Zn    0.21166   0.19664   0.21188   0.00000  Uiso   1.00
Zn4    Zn    0.12798   0.20535   0.28277   0.00000  Uiso   1.00
O5     O     0.16667   0.16667   0.25000   0.00000  Uiso   1.00
O6     O     0.06990   0.18960   0.27820   0.00000  Uiso   1.00
O7     O     0.25440   0.15277   0.26767   0.00000  Uiso   1.00
O8     O     0.13800   0.06903   0.23607   0.00000  Uiso   1.00
O9     O     0.20437   0.25527   0.21805   0.00000  Uiso   1.00
O10    O     0.15693   0.12393   0.16625   0.00000  Uiso   1.00
O11    O     0.12687   0.20646   0.33749   0.00000  Uiso   1.00
O12    O     0.21088   0.17493   0.15877   0.00000  Uiso   1.00
O13    O     0.17198   0.16135   0.33749   0.00000  Uiso   1.00
O14    O     0.17849   0.08101   0.27820   0.00000  Uiso   1.00
O15    O     0.14581   0.26136   0.26767   0.00000  Uiso   1.00
O16    O     0.07452   0.13251   0.23607   0.00000  Uiso   1.00
O17    O     0.26785   0.19179   0.21805   0.00000  Uiso   1.00
C18    C     0.05299   0.16048   0.25820   0.00000  Uiso   1.00
C19    C     0.28092   0.17336   0.24148   0.00000  Uiso   1.00
C20    C     0.15579   0.05652   0.25952   0.00000  Uiso   1.00
C21    C     0.17632   0.27753   0.24100   0.00000  Uiso   1.00
C22    C     0.18813   0.14525   0.14409   0.00000  Uiso   1.00
C23    C     0.14463   0.18708   0.35667   0.00000  Uiso   1.00
C24    C     0.12921   0.19038   0.40088   0.00000  Uiso   1.00
C25    C     0.19643   0.13576   0.10157   0.00000  Uiso   1.00
C26    C     0.07557   0.20904   0.46325   0.00000  Uiso   1.00
C27    C     0.08928   0.20586   0.42152   0.00000  Uiso   1.00
C28    C     0.15369   0.17700   0.42295   0.00000  Uiso   1.00
C29    C     0.13476   0.17050   0.46329   0.00000  Uiso   1.00
C30    C     0.09660   0.18879   0.48445   0.00000  Uiso   1.00
C31    C     0.15436   0.14750   0.48330   0.00000  Uiso   1.00
C32    C     0.14447   0.15272   0.02472   0.00000  Uiso   1.00
C33    C     0.10495   0.16853   0.04608   0.00000  Uiso   1.00
C34    C     0.08053   0.18555   0.02593   0.00000  Uiso   1.00
C35    C     0.18055   0.11630   0.46294   0.00000  Uiso   1.00
C36    C     0.20388   0.09675   0.48145   0.00000  Uiso   1.00
C37    C     0.20191   0.10904   0.02166   0.00000  Uiso   1.00
C38    C     0.17254   0.13823   0.04313   0.00000  Uiso   1.00
C39    C     0.22714   0.09252   0.04170   0.00000  Uiso   1.00
C40    C     0.22298   0.10527   0.08177   0.00000  Uiso   1.00
C41    C     0.17282   0.15313   0.08211   0.00000  Uiso   1.00
H42    H     0.15476   0.17850   0.09802   0.00000  Uiso   1.00
H43    H     0.24062   0.09130   0.09749   0.00000  Uiso   1.00
H44    H     0.18114   0.10521   0.43274   0.00000  Uiso   1.00
C45    C     0.32661   0.17426   0.23785   0.00000  Uiso   1.00
H46    H     0.01607   0.18835   0.21301   0.00000  Uiso   1.00
C47    C     0.00751   0.15734   0.26362   0.00000  Uiso   1.00
C48    C     0.17813   0.32155   0.23592   0.00000  Uiso   1.00
C49    C     0.15280   0.01315   0.26423   0.00000  Uiso   1.00
C50    C     0.03662   0.19591   0.04829   0.00000  Uiso   1.00
O51    O     0.03185   0.22432   0.07493   0.00000  Uiso   1.00
O52    O     0.00083   0.17333   0.03841   0.00000  Uiso   1.00
H53    H     0.30596   0.18315   0.05563   0.00000  Uiso   1.00
N54    N     0.25551   0.06197   0.02255   0.00000  Uiso   1.00
H55    H     0.25069   0.03639   0.03802   0.00000  Uiso   1.00
C56    C     0.30043   0.07805   0.01095   0.00000  Uiso   1.00
H57    H     0.31967   0.05324   0.49278   0.00000  Uiso   1.00
H58    H     0.31225   0.08841   0.03749   0.00000  Uiso   1.00
H59    H     0.30511   0.10454   0.49306   0.00000  Uiso   1.00
N60    N     0.31273   0.14228   0.29886   0.00000  Uiso   1.00
H61    H     0.30242   0.16607   0.32030   0.00000  Uiso   1.00
C62    C     0.32578   0.10830   0.31349   0.00000  Uiso   1.00
H63    H     0.29883   0.09602   0.33751   0.00000  Uiso   1.00
H64    H     0.02058   0.11912   0.32538   0.00000  Uiso   1.00
H65    H     0.00068   0.08266   0.28950   0.00000  Uiso   1.00
C66    C     0.20733   0.00357   0.19855   0.00000  Uiso   1.00
O67    O     0.21246   0.31412   0.16758   0.00000  Uiso   1.00
O68    O     0.22950   0.04344   0.19877   0.00000  Uiso   1.00
H69    H     0.24804   0.04989   0.17160   0.00000  Uiso   1.00
N70    N     0.12916   0.33285   0.30186   0.00000  Uiso   1.00
H71    H     0.14830   0.32590   0.31830   0.00000  Uiso   1.00
C72    C     0.09271   0.02120   0.32477   0.00000  Uiso   1.00
H73    H     0.07445   0.00373   0.35016   0.00000  Uiso   1.00
H74    H     0.07084   0.02338   0.30634   0.00000  Uiso   1.00
H75    H     0.10382   0.05285   0.33638   0.00000  Uiso   1.00
N76    N     0.22808   0.06398   0.45963   0.00000  Uiso   1.00
H77    H     0.20888   0.03770   0.45300   0.00000  Uiso   1.00
C78    C     0.26268   0.07553   0.42574   0.00000  Uiso   1.00
H79    H     0.28433   0.05045   0.41577   0.00000  Uiso   1.00
H80    H     0.28184   0.10473   0.43341   0.00000  Uiso   1.00
H81    H     0.24953   0.07966   0.40108   0.00000  Uiso   1.00
N82    N     0.04116   0.23332   0.48371   0.00000  Uiso   1.00
H83    H     0.01552   0.23025   0.47162   0.00000  Uiso   1.00
C84    C     0.05491   0.27604   0.49536   0.00000  Uiso   1.00
H85    H     0.02655   0.29178   0.01343   0.00000  Uiso   1.00
H86    H     0.07051   0.29284   0.46889   0.00000  Uiso   1.00
H87    H     0.07796   0.27740   0.01340   0.00000  Uiso   1.00
C88    C     0.06122   0.21917   0.40020   0.00000  Uiso   1.00
O89    O     0.05943   0.25615   0.39925   0.00000  Uiso   1.00
O90    O     0.03702   0.18915   0.38110   0.00000  Uiso   1.00
H91    H     0.01918   0.20186   0.36745   0.00000  Uiso   1.00
C92    C     0.20130   0.17968   0.40738   0.00000  Uiso   1.00
O93    O     0.22324   0.20887   0.41990   0.00000  Uiso   1.00
O94    O     0.22108   0.14818   0.38052   0.00000  Uiso   1.00
H95    H     0.25330   0.15144   0.37658   0.00000  Uiso   1.00
N96    N     0.08623   0.16054   0.08631   0.00000  Uiso   1.00
H97    H     0.07029   0.18391   0.10477   0.00000  Uiso   1.00
C98    C     0.06352   0.11954   0.09172   0.00000  Uiso   1.00
H99    H     0.05287   0.11528   0.12368   0.00000  Uiso   1.00
H100   H     0.08496   0.09525   0.07625   0.00000  Uiso   1.00
H101   H     0.03477   0.11579   0.08019   0.00000  Uiso   1.00
Zn102  Zn    0.52577   0.14090   0.28277   0.00000  Uiso   1.00
Zn103  Zn    0.46792   0.12378   0.22257   0.00000  Uiso   1.00
Zn104  Zn    0.54500   0.19664   0.21188   0.00000  Uiso   1.00
Zn105  Zn    0.46131   0.20535   0.28277   0.00000  Uiso   1.00
O106   O     0.50000   0.16667   0.25000   0.00000  Uiso   1.00
O107   O     0.40323   0.18960   0.27820   0.00000  Uiso   1.00
O108   O     0.58773   0.15277   0.26767   0.00000  Uiso   1.00
O109   O     0.47133   0.06903   0.23607   0.00000  Uiso   1.00
O110   O     0.53771   0.25527   0.21805   0.00000  Uiso   1.00
O111   O     0.49027   0.12393   0.16625   0.00000  Uiso   1.00
O112   O     0.46020   0.20646   0.33749   0.00000  Uiso   1.00
O113   O     0.54421   0.17493   0.15877   0.00000  Uiso   1.00
O114   O     0.50532   0.16135   0.33749   0.00000  Uiso   1.00
O115   O     0.51182   0.08101   0.27820   0.00000  Uiso   1.00
O116   O     0.47914   0.26136   0.26767   0.00000  Uiso   1.00
O117   O     0.40785   0.13251   0.23607   0.00000  Uiso   1.00
O118   O     0.60119   0.19179   0.21805   0.00000  Uiso   1.00
C119   C     0.38633   0.16048   0.25820   0.00000  Uiso   1.00
C120   C     0.61425   0.17336   0.24148   0.00000  Uiso   1.00
C121   C     0.48913   0.05652   0.25952   0.00000  Uiso   1.00
C122   C     0.50965   0.27753   0.24100   0.00000  Uiso   1.00
C123   C     0.52146   0.14525   0.14409   0.00000  Uiso   1.00
C124   C     0.47796   0.18708   0.35667   0.00000  Uiso   1.00
C125   C     0.46254   0.19038   0.40088   0.00000  Uiso   1.00
C126   C     0.52976   0.13576   0.10157   0.00000  Uiso   1.00
C127   C     0.40890   0.20904   0.46325   0.00000  Uiso   1.00
C128   C     0.42262   0.20586   0.42152   0.00000  Uiso   1.00
C129   C     0.48702   0.17700   0.42295   0.00000  Uiso   1.00
C130   C     0.46809   0.17050   0.46329   0.00000  Uiso   1.00
C131   C     0.42994   0.18879   0.48445   0.00000  Uiso   1.00
C132   C     0.48769   0.14750   0.48330   0.00000  Uiso   1.00
C133   C     0.47780   0.15272   0.02472   0.00000  Uiso   1.00
C134   C     0.43828   0.16853   0.04608   0.00000  Uiso   1.00
C135   C     0.41386   0.18555   0.02593   0.00000  Uiso   1.00
C136   C     0.51389   0.11630   0.46294   0.00000  Uiso   1.00
C137   C     0.53721   0.09675   0.48145   0.00000  Uiso   1.00
C138   C     0.53525   0.10904   0.02166   0.00000  Uiso   1.00
C139   C     0.50588   0.13823   0.04313   0.00000  Uiso   1.00
C140   C     0.56047   0.09252   0.04170   0.00000  Uiso   1.00
C141   C     0.55631   0.10527   0.08177   0.00000  Uiso   1.00
C142   C     0.50615   0.15313   0.08211   0.00000  Uiso   1.00
H143   H     0.48810   0.17850   0.09802   0.00000  Uiso   1.00
H144   H     0.57396   0.09130   0.09749   0.00000  Uiso   1.00
H145   H     0.51448   0.10521   0.43274   0.00000  Uiso   1.00
C146   C     0.65994   0.17426   0.23785   0.00000  Uiso   1.00
H147   H     0.34941   0.18835   0.21301   0.00000  Uiso   1.00
C148   C     0.34084   0.15734   0.26362   0.00000  Uiso   1.00
C149   C     0.51146   0.32155   0.23592   0.00000  Uiso   1.00
C150   C     0.48613   0.01315   0.26423   0.00000  Uiso   1.00
C151   C     0.36995   0.19591   0.04829   0.00000  Uiso   1.00
O152   O     0.36518   0.22432   0.07493   0.00000  Uiso   1.00
O153   O     0.33416   0.17333   0.03841   0.00000  Uiso   1.00
H154   H     0.63930   0.18315   0.05563   0.00000  Uiso   1.00
N155   N     0.58884   0.06197   0.02255   0.00000  Uiso   1.00
H156   H     0.58402   0.03639   0.03802   0.00000  Uiso   1.00
C157   C     0.63377   0.07805   0.01095   0.00000  Uiso   1.00
H158   H     0.65301   0.05324   0.49278   0.00000  Uiso   1.00
H159   H     0.64559   0.08841   0.03749   0.00000  Uiso   1.00
H160   H     0.63844   0.10454   0.49306   0.00000  Uiso   1.00
N161   N     0.64606   0.14228   0.29886   0.00000  Uiso   1.00
H162   H     0.63575   0.16607   0.32030   0.00000  Uiso   1.00
C163   C     0.65912   0.10830   0.31349   0.00000  Uiso   1.00
H164   H     0.63217   0.09602   0.33751   0.00000  Uiso   1.00
H165   H     0.35392   0.11912   0.32538   0.00000  Uiso   1.00
H166   H     0.33401   0.08266   0.28950   0.00000  Uiso   1.00
C167   C     0.54067   0.00357   0.19855   0.00000  Uiso   1.00
O168   O     0.54580   0.31412   0.16758   0.00000  Uiso   1.00
O169   O     0.56283   0.04344   0.19877   0.00000  Uiso   1.00
H170   H     0.58137   0.04989   0.17160   0.00000  Uiso   1.00
N171   N     0.46250   0.33285   0.30186   0.00000  Uiso   1.00
H172   H     0.48164   0.32590   0.31830   0.00000  Uiso   1.00
C173   C     0.42605   0.02120   0.32477   0.00000  Uiso   1.00
H174   H     0.40778   0.00373   0.35016   0.00000  Uiso   1.00
H175   H     0.40417   0.02338   0.30634   0.00000  Uiso   1.00
H176   H     0.43716   0.05285   0.33638   0.00000  Uiso   1.00
N177   N     0.56141   0.06398   0.45963   0.00000  Uiso   1.00
H178   H     0.54222   0.03770   0.45300   0.00000  Uiso   1.00
C179   C     0.59602   0.07553   0.42574   0.00000  Uiso   1.00
H180   H     0.61767   0.05045   0.41577   0.00000  Uiso   1.00
H181   H     0.61517   0.10473   0.43341   0.00000  Uiso   1.00
H182   H     0.58287   0.07966   0.40108   0.00000  Uiso   1.00
N183   N     0.37450   0.23332   0.48371   0.00000  Uiso   1.00
H184   H     0.34886   0.23025   0.47162   0.00000  Uiso   1.00
C185   C     0.38824   0.27604   0.49536   0.00000  Uiso   1.00
H186   H     0.35988   0.29178   0.01343   0.00000  Uiso   1.00
H187   H     0.40385   0.29284   0.46889   0.00000  Uiso   1.00
H188   H     0.41129   0.27740   0.01340   0.00000  Uiso   1.00
C189   C     0.39455   0.21917   0.40020   0.00000  Uiso   1.00
O190   O     0.39276   0.25615   0.39925   0.00000  Uiso   1.00
O191   O     0.37035   0.18915   0.38110   0.00000  Uiso   1.00
H192   H     0.35251   0.20186   0.36745   0.00000  Uiso   1.00
C193   C     0.53463   0.17968   0.40738   0.00000  Uiso   1.00
O194   O     0.55657   0.20887   0.41990   0.00000  Uiso   1.00
O195   O     0.55442   0.14818   0.38052   0.00000  Uiso   1.00
H196   H     0.58663   0.15144   0.37658   0.00000  Uiso   1.00
N197   N     0.41956   0.16054   0.08631   0.00000  Uiso   1.00
H198   H     0.40362   0.18391   0.10477   0.00000  Uiso   1.00
C199   C     0.39685   0.11954   0.09172   0.00000  Uiso   1.00
H200   H     0.38620   0.11528   0.12368   0.00000  Uiso   1.00
H201   H     0.41830   0.09525   0.07625   0.00000  Uiso   1.00
H202   H     0.36810   0.11579   0.08019   0.00000  Uiso   1.00
Zn203  Zn    0.85910   0.14090   0.28277   0.00000  Uiso   1.00
Zn204  Zn    0.80125   0.12378   0.22257   0.00000  Uiso   1.00
Zn205  Zn    0.87833   0.19664   0.21188   0.00000  Uiso   1.00
Zn206  Zn    0.79465   0.20535   0.28277   0.00000  Uiso   1.00
O207   O     0.83333   0.16667   0.25000   0.00000  Uiso   1.00
O208   O     0.73656   0.18960   0.27820   0.00000  Uiso   1.00
O209   O     0.92106   0.15277   0.26767   0.00000  Uiso   1.00
O210   O     0.80467   0.06903   0.23607   0.00000  Uiso   1.00
O211   O     0.87104   0.25527   0.21805   0.00000  Uiso   1.00
O212   O     0.82360   0.12393   0.16625   0.00000  Uiso   1.00
O213   O     0.79354   0.20646   0.33749   0.00000  Uiso   1.00
O214   O     0.87755   0.17493   0.15877   0.00000  Uiso   1.00
O215   O     0.83865   0.16135   0.33749   0.00000  Uiso   1.00
O216   O     0.84515   0.08101   0.27820   0.00000  Uiso   1.00
O217   O     0.81247   0.26136   0.26767   0.00000  Uiso   1.00
O218   O     0.74119   0.13251   0.23607   0.00000  Uiso   1.00
O219   O     0.93452   0.19179   0.21805   0.00000  Uiso   1.00
C220   C     0.71966   0.16048   0.25820   0.00000  Uiso   1.00
C221   C     0.94759   0.17336   0.24148   0.00000  Uiso   1.00
C222   C     0.82246   0.05652   0.25952   0.00000  Uiso   1.00
C223   C     0.84299   0.27753   0.24100   0.00000  Uiso   1.00
C224   C     0.85480   0.14525   0.14409   0.00000  Uiso   1.00
C225   C     0.81130   0.18708   0.35667   0.00000  Uiso   1.00
C226   C     0.79588   0.19038   0.40088   0.00000  Uiso   1.00
C227   C     0.86310   0.13576   0.10157   0.00000  Uiso   1.00
C228   C     0.74223   0.20904   0.46325   0.00000  Uiso   1.00
C229   C     0.75595   0.20586   0.42152   0.00000  Uiso   1.00
C230   C     0.82035   0.17700   0.42295   0.00000  Uiso   1.00
C231   C     0.80143   0.17050   0.46329   0.00000  Uiso   1.00
C232   C     0.76327   0.18879   0.48445   0.00000  Uiso   1.00
C233   C     0.82103   0.14750   0.48330   0.00000  Uiso   1.00
C234   C     0.81114   0.15272   0.02472   0.00000  Uiso   1.00
C235   C     0.77162   0.16853   0.04608   0.00000  Uiso   1.00
C236   C     0.74719   0.18555   0.02593   0.00000  Uiso   1.00
C237   C     0.84722   0.11630   0.46294   0.00000  Uiso   1.00
C238   C     0.87055   0.09675   0.48145   0.00000  Uiso   1.00
C239   C     0.86858   0.10904   0.02166   0.00000  Uiso   1.00
C240   C     0.83921   0.13823   0.04313   0.00000  Uiso   1.00
C241   C     0.89381   0.09252   0.04170   0.00000  Uiso   1.00
C242   C     0.88964   0.10527   0.08177   0.00000  Uiso   1.00
C243   C     0.83949   0.15313   0.08211   0.00000  Uiso   1.00
H244   H     0.82143   0.17850   0.09802   0.00000  Uiso   1.00
H245   H     0.90729   0.09130   0.09749   0.00000  Uiso   1.00
H246   H     0.84781   0.10521   0.43274   0.00000  Uiso   1.00
C247   C     0.99328   0.17426   0.23785   0.00000  Uiso   1.00
H248   H     0.68274   0.18835   0.21301   0.00000  Uiso   1.00
C249   C     0.67418   0.15734   0.26362   0.00000  Uiso   1.00
C250   C     0.84480   0.32155   0.23592   0.00000  Uiso   1.00
C251   C     0.81946   0.01315   0.26423   0.00000  Uiso   1.00
C252   C     0.70328   0.19591   0.04829   0.00000  Uiso   1.00
O253   O     0.69851   0.22432   0.07493   0.00000  Uiso   1.00
O254   O     0.66749   0.17333   0.03841   0.00000  Uiso   1.00
H255   H     0.97263   0.18315   0.05563   0.00000  Uiso   1.00
N256   N     0.92218   0.06197   0.02255   0.00000  Uiso   1.00
H257   H     0.91736   0.03639   0.03802   0.00000  Uiso   1.00
C258   C     0.96710   0.07805   0.01095   0.00000  Uiso   1.00
H259   H     0.98634   0.05324   0.49278   0.00000  Uiso   1.00
H260   H     0.97892   0.08841   0.03749   0.00000  Uiso   1.00
H261   H     0.97178   0.10454   0.49306   0.00000  Uiso   1.00
N262   N     0.97939   0.14228   0.29886   0.00000  Uiso   1.00
H263   H     0.96909   0.16607   0.32030   0.00000  Uiso   1.00
C264   C     0.99245   0.10830   0.31349   0.00000  Uiso   1.00
H265   H     0.96550   0.09602   0.33751   0.00000  Uiso   1.00
H266   H     0.68725   0.11912   0.32538   0.00000  Uiso   1.00
H267   H     0.66735   0.08266   0.28950   0.00000  Uiso   1.00
C268   C     0.87400   0.00357   0.19855   0.00000  Uiso   1.00
O269   O     0.87913   0.31412   0.16758   0.00000  Uiso   1.00
O270   O     0.89617   0.04344   0.19877   0.00000  Uiso   1.00
H271   H     0.91470   0.04989   0.17160   0.00000  Uiso   1.00
N272   N     0.79583   0.33285   0.30186   0.00000  Uiso   1.00
H273   H     0.81497   0.32590   0.31830   0.00000  Uiso   1.00
C274   C     0.75938   0.02120   0.32477   0.00000  Uiso   1.00
H275   H     0.74111   0.00373   0.35016   0.00000  Uiso   1.00
H276   H     0.73751   0.02338   0.30634   0.00000  Uiso   1.00
H277   H     0.77049   0.05285   0.33638   0.00000  Uiso   1.00
N278   N     0.89474   0.06398   0.45963   0.00000  Uiso   1.00
H279   H     0.87555   0.03770   0.45300   0.00000  Uiso   1.00
C280   C     0.92935   0.07553   0.42574   0.00000  Uiso   1.00
H281   H     0.95100   0.05045   0.41577   0.00000  Uiso   1.00
H282   H     0.94851   0.10473   0.43341   0.00000  Uiso   1.00
H283   H     0.91620   0.07966   0.40108   0.00000  Uiso   1.00
N284   N     0.70783   0.23332   0.48371   0.00000  Uiso   1.00
H285   H     0.68219   0.23025   0.47162   0.00000  Uiso   1.00
C286   C     0.72158   0.27604   0.49536   0.00000  Uiso   1.00
H287   H     0.69321   0.29178   0.01343   0.00000  Uiso   1.00
H288   H     0.73718   0.29284   0.46889   0.00000  Uiso   1.00
H289   H     0.74462   0.27740   0.01340   0.00000  Uiso   1.00
C290   C     0.72789   0.21917   0.40020   0.00000  Uiso   1.00
O291   O     0.72610   0.25615   0.39925   0.00000  Uiso   1.00
O292   O     0.70369   0.18915   0.38110   0.00000  Uiso   1.00
H293   H     0.68585   0.20186   0.36745   0.00000  Uiso   1.00
C294   C     0.86797   0.17968   0.40738   0.00000  Uiso   1.00
O295   O     0.88990   0.20887   0.41990   0.00000  Uiso   1.00
O296   O     0.88775   0.14818   0.38052   0.00000  Uiso   1.00
H297   H     0.91997   0.15144   0.37658   0.00000  Uiso   1.00
N298   N     0.75290   0.16054   0.08631   0.00000  Uiso   1.00
H299   H     0.73696   0.18391   0.10477   0.00000  Uiso   1.00
C300   C     0.73019   0.11954   0.09172   0.00000  Uiso   1.00
H301   H     0.71953   0.11528   0.12368   0.00000  Uiso   1.00
H302   H     0.75163   0.09525   0.07625   0.00000  Uiso   1.00
H303   H     0.70143   0.11579   0.08019   0.00000  Uiso   1.00
Zn304  Zn    0.19244   0.47423   0.28277   0.00000  Uiso   1.00
Zn305  Zn    0.13459   0.45711   0.22257   0.00000  Uiso   1.00
Zn306  Zn    0.21166   0.52997   0.21188   0.00000  Uiso   1.00
Zn307  Zn    0.12798   0.53868   0.28277   0.00000  Uiso   1.00
O308   O     0.16667   0.50000   0.25000   0.00000  Uiso   1.00
O309   O     0.06990   0.52293   0.27820   0.00000  Uiso   1.00
O310   O     0.25440   0.48610   0.26767   0.00000  Uiso   1.00
O311   O     0.13800   0.40236   0.23607   0.00000  Uiso   1.00
O312   O     0.20437   0.58860   0.21805   0.00000  Uiso   1.00
O313   O     0.15693   0.45726   0.16625   0.00000  Uiso   1.00
O314   O     0.12687   0.53979   0.33749   0.00000  Uiso   1.00
O315   O     0.21088   0.50826   0.15877   0.00000  Uiso   1.00
O316   O     0.17198   0.49468   0.33749   0.00000  Uiso   1.00
O317   O     0.17849   0.41434   0.27820   0.00000  Uiso   1.00
O318   O     0.14581   0.59469   0.26767   0.00000  Uiso   1.00
O319   O     0.07452   0.46584   0.23607   0.00000  Uiso   1.00
O320   O     0.26785   0.52512   0.21805   0.00000  Uiso   1.00
C321   C     0.05299   0.49382   0.25820   0.00000  Uiso   1.00
C322   C     0.28092   0.50669   0.24148   0.00000  Uiso   1.00
C323   C     0.15579   0.38985   0.25952   0.00000  Uiso   1.00
C324   C     0.17632   0.61087   0.24100   0.00000  Uiso   1.00
C325   C     0.18813   0.47859   0.14409   0.00000  Uiso   1.00
C326   C     0.14463   0.52041   0.35667   0.00000  Uiso   1.00
C327   C     0.12921   0.52371   0.40088   0.00000  Uiso   1.00
C328   C     0.19643   0.46910   0.10157   0.00000  Uiso   1.00
C329   C     0.07557   0.54237   0.46325   0.00000  Uiso   1.00
C330   C     0.08928   0.53919   0.42152   0.00000  Uiso   1.00
C331   C     0.15369   0.51033   0.42295   0.00000  Uiso   1.00
C332   C     0.13476   0.50384   0.46329   0.00000  Uiso   1.00
C333   C     0.09660   0.52212   0.48445   0.00000  Uiso   1.00
C334   C     0.15436   0.48083   0.48330   0.00000  Uiso   1.00
C335   C     0.14447   0.48605   0.02472   0.00000  Uiso   1.00
C336   C     0.10495   0.50187   0.04608   0.00000  Uiso   1.00
C337   C     0.08053   0.51888   0.02593   0.00000  Uiso   1.00
C338   C     0.18055   0.44964   0.46294   0.00000  Uiso   1.00
C339   C     0.20388   0.43008   0.48145   0.00000  Uiso   1.00
C340   C     0.20191   0.44238   0.02166   0.00000  Uiso   1.00
C341   C     0.17254   0.47156   0.04313   0.00000  Uiso   1.00
C342   C     0.22714   0.42586   0.04170   0.00000  Uiso   1.00
C343   C     0.22298   0.43860   0.08177   0.00000  Uiso   1.00
C344   C     0.17282   0.48646   0.08211   0.00000  Uiso   1.00
H345   H     0.15476   0.51184   0.09802   0.00000  Uiso   1.00
H346   H     0.24062   0.42464   0.09749   0.00000  Uiso   1.00
H347   H     0.18114   0.43854   0.43274   0.00000  Uiso   1.00
C348   C     0.32661   0.50760   0.23785   0.00000  Uiso   1.00
H349   H     0.01607   0.52169   0.21301   0.00000  Uiso   1.00
C350   C     0.00751   0.49067   0.26362   0.00000  Uiso   1.00
C351   C     0.17813   0.65488   0.23592   0.00000  Uiso   1.00
C352   C     0.15280   0.34648   0.26423   0.00000  Uiso   1.00
C353   C     0.03662   0.52924   0.04829   0.00000  Uiso   1.00
O354   O     0.03185   0.55765   0.07493   0.00000  Uiso   1.00
O355   O     0.00083   0.50667   0.03841   0.00000  Uiso   1.00
H356   H     0.30596   0.51648   0.05563   0.00000  Uiso   1.00
N357   N     0.25551   0.39531   0.02255   0.00000  Uiso   1.00
H358   H     0.25069   0.36972   0.03802   0.00000  Uiso   1.00
C359   C     0.30043   0.41139   0.01095   0.00000  Uiso   1.00
H360   H     0.31967   0.38658   0.49278   0.00000  Uiso   1.00
H361   H     0.31225   0.42174   0.03749   0.00000  Uiso   1.00
H362   H     0.30511   0.43787   0.49306   0.00000  Uiso   1.00
N363   N     0.31273   0.47561   0.29886   0.00000  Uiso   1.00
H364   H     0.30242   0.49940   0.32030   0.00000  Uiso   1.00
C365   C     0.32578   0.44163   0.31349   0.00000  Uiso   1.00
H366   H     0.29883   0.42935   0.33751   0.00000  Uiso   1.00
H367   H     0.02058   0.45245   0.32538   0.00000  Uiso   1.00
H368   H     0.00068   0.41600   0.28950   0.00000  Uiso   1.00
C369   C     0.20733   0.33690   0.19855   0.00000  Uiso   1.00
O370   O     0.21246   0.64745   0.16758   0.00000  Uiso   1.00
O371   O     0.22950   0.37677   0.19877   0.00000  Uiso   1.00
H372   H     0.24804   0.38323   0.17160   0.00000  Uiso   1.00
N373   N     0.12916   0.66618   0.30186   0.00000  Uiso   1.00
H374   H     0.14830   0.65923   0.31830   0.00000  Uiso   1.00
C375   C     0.09271   0.35454   0.32477   0.00000  Uiso   1.00
H376   H     0.07445   0.33707   0.35016   0.00000  Uiso   1.00
H377   H     0.07084   0.35671   0.30634   0.00000  Uiso   1.00
H378   H     0.10382   0.38618   0.33638   0.00000  Uiso   1.00
N379   N     0.22808   0.39731   0.45963   0.00000  Uiso   1.00
H380   H     0.20888   0.37104   0.45300   0.00000  Uiso   1.00
C381   C     0.26268   0.40886   0.42574   0.00000  Uiso   1.00
H382   H     0.28433   0.38378   0.41577   0.00000  Uiso   1.00
H383   H     0.28184   0.43806   0.43341   0.00000  Uiso   1.00
H384   H     0.24953   0.41299   0.40108   0.00000  Uiso   1.00
N385   N     0.04116   0.56665   0.48371   0.00000  Uiso   1.00
H386   H     0.01552   0.56359   0.47162   0.00000  Uiso   1.00
C387   C     0.05491   0.60937   0.49536   0.00000  Uiso   1.00
H388   H     0.02655   0.62511   0.01343   0.00000  Uiso   1.00
H389   H     0.07051   0.62617   0.46889   0.00000  Uiso   1.00
H390   H     0.07796   0.61073   0.01340   0.00000  Uiso   1.00
C391   C     0.06122   0.55250   0.40020   0.00000  Uiso   1.00
O392   O     0.05943   0.58948   0.39925   0.00000  Uiso   1.00
O393   O     0.03702   0.52249   0.38110   0.00000  Uiso   1.00
H394   H     0.01918   0.53519   0.36745   0.00000  Uiso   1.00
C395   C     0.20130   0.51301   0.40738   0.00000  Uiso   1.00
O396   O     0.22324   0.54221   0.41990   0.00000  Uiso   1.00
O397   O     0.22108   0.48151   0.38052   0.00000  Uiso   1.00
H398   H     0.25330   0.48477   0.37658   0.00000  Uiso   1.00
N399   N     0.08623   0.49387   0.08631   0.00000  Uiso   1.00
H400   H     0.07029   0.51724   0.10477   0.00000  Uiso   1.00
C401   C     0.06352   0.45288   0.09172   0.00000  Uiso   1.00
H402   H     0.05287   0.44862   0.12368   0.00000  Uiso   1.00
H403   H     0.08496   0.42859   0.07625   0.00000  Uiso   1.00
H404   H     0.03477   0.44912   0.08019   0.00000  Uiso   1.00
Zn405  Zn    0.52577   0.47423   0.28277   0.00000  Uiso   1.00
Zn406  Zn    0.46792   0.45711   0.22257   0.00000  Uiso   1.00
Zn407  Zn    0.54500   0.52997   0.21188   0.00000  Uiso   1.00
Zn408  Zn    0.46131   0.53868   0.28277   0.00000  Uiso   1.00
O409   O     0.50000   0.50000   0.25000   0.00000  Uiso   1.00
O410   O     0.40323   0.52293   0.27820   0.00000  Uiso   1.00
O411   O     0.58773   0.48610   0.26767   0.00000  Uiso   1.00
O412   O     0.47133   0.40236   0.23607   0.00000  Uiso   1.00
O413   O     0.53771   0.58860   0.21805   0.00000  Uiso   1.00
O414   O     0.49027   0.45726   0.16625   0.00000  Uiso   1.00
O415   O     0.46020   0.53979   0.33749   0.00000  Uiso   1.00
O416   O     0.54421   0.50826   0.15877   0.00000  Uiso   1.00
O417   O     0.50532   0.49468   0.33749   0.00000  Uiso   1.00
O418   O     0.51182   0.41434   0.27820   0.00000  Uiso   1.00
O419   O     0.47914   0.59469   0.26767   0.00000  Uiso   1.00
O420   O     0.40785   0.46584   0.23607   0.00000  Uiso   1.00
O421   O     0.60119   0.52512   0.21805   0.00000  Uiso   1.00
C422   C     0.38633   0.49382   0.25820   0.00000  Uiso   1.00
C423   C     0.61425   0.50669   0.24148   0.00000  Uiso   1.00
C424   C     0.48913   0.38985   0.25952   0.00000  Uiso   1.00
C425   C     0.50965   0.61087   0.24100   0.00000  Uiso   1.00
C426   C     0.52146   0.47859   0.14409   0.00000  Uiso   1.00
C427   C     0.47796   0.52041   0.35667   0.00000  Uiso   1.00
C428   C     0.46254   0.52371   0.40088   0.00000  Uiso   1.00
C429   C     0.52976   0.46910   0.10157   0.00000  Uiso   1.00
C430   C     0.40890   0.54237   0.46325   0.00000  Uiso   1.00
C431   C     0.42262   0.53919   0.42152   0.00000  Uiso   1.00
C432   C     0.48702   0.51033   0.42295   0.00000  Uiso   1.00
C433   C     0.46809   0.50384   0.46329   0.00000  Uiso   1.00
C434   C     0.42994   0.52212   0.48445   0.00000  Uiso   1.00
C435   C     0.48769   0.48083   0.48330   0.00000  Uiso   1.00
C436   C     0.47780   0.48605   0.02472   0.00000  Uiso   1.00
C437   C     0.43828   0.50187   0.04608   0.00000  Uiso   1.00
C438   C     0.41386   0.51888   0.02593   0.00000  Uiso   1.00
C439   C     0.51389   0.44964   0.46294   0.00000  Uiso   1.00
C440   C     0.53721   0.43008   0.48145   0.00000  Uiso   1.00
C441   C     0.53525   0.44238   0.02166   0.00000  Uiso   1.00
C442   C     0.50588   0.47156   0.04313   0.00000  Uiso   1.00
C443   C     0.56047   0.42586   0.04170   0.00000  Uiso   1.00
C444   C     0.55631   0.43860   0.08177   0.00000  Uiso   1.00
C445   C     0.50615   0.48646   0.08211   0.00000  Uiso   1.00
H446   H     0.48810   0.51184   0.09802   0.00000  Uiso   1.00
H447   H     0.57396   0.42464   0.09749   0.00000  Uiso   1.00
H448   H     0.51448   0.43854   0.43274   0.00000  Uiso   1.00
C449   C     0.65994   0.50760   0.23785   0.00000  Uiso   1.00
H450   H     0.34941   0.52169   0.21301   0.00000  Uiso   1.00
C451   C     0.34084   0.49067   0.26362   0.00000  Uiso   1.00
C452   C     0.51146   0.65488   0.23592   0.00000  Uiso   1.00
C453   C     0.48613   0.34648   0.26423   0.00000  Uiso   1.00
C454   C     0.36995   0.52924   0.04829   0.00000  Uiso   1.00
O455   O     0.36518   0.55765   0.07493   0.00000  Uiso   1.00
O456   O     0.33416   0.50667   0.03841   0.00000  Uiso   1.00
H457   H     0.63930   0.51648   0.05563   0.00000  Uiso   1.00
N458   N     0.58884   0.39531   0.02255   0.00000  Uiso   1.00
H459   H     0.58402   0.36972   0.03802   0.00000  Uiso   1.00
C460   C     0.63377   0.41139   0.01095   0.00000  Uiso   1.00
H461   H     0.65301   0.38658   0.49278   0.00000  Uiso   1.00
H462   H     0.64559   0.42174   0.03749   0.00000  Uiso   1.00
H463   H     0.63844   0.43787   0.49306   0.00000  Uiso   1.00
N464   N     0.64606   0.47561   0.29886   0.00000  Uiso   1.00
H465   H     0.63575   0.49940   0.32030   0.00000  Uiso   1.00
C466   C     0.65912   0.44163   0.31349   0.00000  Uiso   1.00
H467   H     0.63217   0.42935   0.33751   0.00000  Uiso   1.00
H468   H     0.35392   0.45245   0.32538   0.00000  Uiso   1.00
H469   H     0.33401   0.41600   0.28950   0.00000  Uiso   1.00
C470   C     0.54067   0.33690   0.19855   0.00000  Uiso   1.00
O471   O     0.54580   0.64745   0.16758   0.00000  Uiso   1.00
O472   O     0.56283   0.37677   0.19877   0.00000  Uiso   1.00
H473   H     0.58137   0.38323   0.17160   0.00000  Uiso   1.00
N474   N     0.46250   0.66618   0.30186   0.00000  Uiso   1.00
H475   H     0.48164   0.65923   0.31830   0.00000  Uiso   1.00
C476   C     0.42605   0.35454   0.32477   0.00000  Uiso   1.00
H477   H     0.40778   0.33707   0.35016   0.00000  Uiso   1.00
H478   H     0.40417   0.35671   0.30634   0.00000  Uiso   1.00
H479   H     0.43716   0.38618   0.33638   0.00000  Uiso   1.00
N480   N     0.56141   0.39731   0.45963   0.00000  Uiso   1.00
H481   H     0.54222   0.37104   0.45300   0.00000  Uiso   1.00
C482   C     0.59602   0.40886   0.42574   0.00000  Uiso   1.00
H483   H     0.61767   0.38378   0.41577   0.00000  Uiso   1.00
H484   H     0.61517   0.43806   0.43341   0.00000  Uiso   1.00
H485   H     0.58287   0.41299   0.40108   0.00000  Uiso   1.00
N486   N     0.37450   0.56665   0.48371   0.00000  Uiso   1.00
H487   H     0.34886   0.56359   0.47162   0.00000  Uiso   1.00
C488   C     0.38824   0.60937   0.49536   0.00000  Uiso   1.00
H489   H     0.35988   0.62511   0.01343   0.00000  Uiso   1.00
H490   H     0.40385   0.62617   0.46889   0.00000  Uiso   1.00
H491   H     0.41129   0.61073   0.01340   0.00000  Uiso   1.00
C492   C     0.39455   0.55250   0.40020   0.00000  Uiso   1.00
O493   O     0.39276   0.58948   0.39925   0.00000  Uiso   1.00
O494   O     0.37035   0.52249   0.38110   0.00000  Uiso   1.00
H495   H     0.35251   0.53519   0.36745   0.00000  Uiso   1.00
C496   C     0.53463   0.51301   0.40738   0.00000  Uiso   1.00
O497   O     0.55657   0.54221   0.41990   0.00000  Uiso   1.00
O498   O     0.55442   0.48151   0.38052   0.00000  Uiso   1.00
H499   H     0.58663   0.48477   0.37658   0.00000  Uiso   1.00
N500   N     0.41956   0.49387   0.08631   0.00000  Uiso   1.00
H501   H     0.40362   0.51724   0.10477   0.00000  Uiso   1.00
C502   C     0.39685   0.45288   0.09172   0.00000  Uiso   1.00
H503   H     0.38620   0.44862   0.12368   0.00000  Uiso   1.00
H504   H     0.41830   0.42859   0.07625   0.00000  Uiso   1.00
H505   H     0.36810   0.44912   0.08019   0.00000  Uiso   1.00
Zn506  Zn    0.85910   0.47423   0.28277   0.00000  Uiso   1.00
Zn507  Zn    0.80125   0.45711   0.22257   0.00000  Uiso   1.00
Zn508  Zn    0.87833   0.52997   0.21188   0.00000  Uiso   1.00
Zn509  Zn    0.79465   0.53868   0.28277   0.00000  Uiso   1.00
O510   O     0.83333   0.50000   0.25000   0.00000  Uiso   1.00
O511   O     0.73656   0.52293   0.27820   0.00000  Uiso   1.00
O512   O     0.92106   0.48610   0.26767   0.00000  Uiso   1.00
O513   O     0.80467   0.40236   0.23607   0.00000  Uiso   1.00
O514   O     0.87104   0.58860   0.21805   0.00000  Uiso   1.00
O515   O     0.82360   0.45726   0.16625   0.00000  Uiso   1.00
O516   O     0.79354   0.53979   0.33749   0.00000  Uiso   1.00
O517   O     0.87755   0.50826   0.15877   0.00000  Uiso   1.00
O518   O     0.83865   0.49468   0.33749   0.00000  Uiso   1.00
O519   O     0.84515   0.41434   0.27820   0.00000  Uiso   1.00
O520   O     0.81247   0.59469   0.26767   0.00000  Uiso   1.00
O521   O     0.74119   0.46584   0.23607   0.00000  Uiso   1.00
O522   O     0.93452   0.52512   0.21805   0.00000  Uiso   1.00
C523   C     0.71966   0.49382   0.25820   0.00000  Uiso   1.00
C524   C     0.94759   0.50669   0.24148   0.00000  Uiso   1.00
C525   C     0.82246   0.38985   0.25952   0.00000  Uiso   1.00
C526   C     0.84299   0.61087   0.24100   0.00000  Uiso   1.00
C527   C     0.85480   0.47859   0.14409   0.00000  Uiso   1.00
C528   C     0.81130   0.52041   0.35667   0.00000  Uiso   1.00
C529   C     0.79588   0.52371   0.40088   0.00000  Uiso   1.00
C530   C     0.86310   0.46910   0.10157   0.00000  Uiso   1.00
C531   C     0.74223   0.54237   0.46325   0.00000  Uiso   1.00
C532   C     0.75595   0.53919   0.42152   0.00000  Uiso   1.00
C533   C     0.82035   0.51033   0.42295   0.00000  Uiso   1.00
C534   C     0.80143   0.50384   0.46329   0.00000  Uiso   1.00
C535   C     0.76327   0.52212   0.48445   0.00000  Uiso   1.00
C536   C     0.82103   0.48083   0.48330   0.00000  Uiso   1.00
C537   C     0.81114   0.48605   0.02472   0.00000  Uiso   1.00
C538   C     0.77162   0.50187   0.04608   0.00000  Uiso   1.00
C539   C     0.74719   0.51888   0.02593   0.00000  Uiso   1.00
C540   C     0.84722   0.44964   0.46294   0.00000  Uiso   1.00
C541   C     0.87055   0.43008   0.48145   0.00000  Uiso   1.00
C542   C     0.86858   0.44238   0.02166   0.00000  Uiso   1.00
C543   C     0.83921   0.47156   0.04313   0.00000  Uiso   1.00
C544   C     0.89381   0.42586   0.04170   0.00000  Uiso   1.00
C545   C     0.88964   0.43860   0.08177   0.00000  Uiso   1.00
C546   C     0.83949   0.48646   0.08211   0.00000  Uiso   1.00
H547   H     0.82143   0.51184   0.09802   0.00000  Uiso   1.00
H548   H     0.90729   0.42464   0.09749   0.00000  Uiso   1.00
H549   H     0.84781   0.43854   0.43274   0.00000  Uiso   1.00
C550   C     0.99328   0.50760   0.23785   0.00000  Uiso   1.00
H551   H     0.68274   0.52169   0.21301   0.00000  Uiso   1.00
C552   C     0.67418   0.49067   0.26362   0.00000  Uiso   1.00
C553   C     0.84480   0.65488   0.23592   0.00000  Uiso   1.00
C554   C     0.81946   0.34648   0.26423   0.00000  Uiso   1.00
C555   C     0.70328   0.52924   0.04829   0.00000  Uiso   1.00
O556   O     0.69851   0.55765   0.07493   0.00000  Uiso   1.00
O557   O     0.66749   0.50667   0.03841   0.00000  Uiso   1.00
H558   H     0.97263   0.51648   0.05563   0.00000  Uiso   1.00
N559   N     0.92218   0.39531   0.02255   0.00000  Uiso   1.00
H560   H     0.91736   0.36972   0.03802   0.00000  Uiso   1.00
C561   C     0.96710   0.41139   0.01095   0.00000  Uiso   1.00
H562   H     0.98634   0.38658   0.49278   0.00000  Uiso   1.00
H563   H     0.97892   0.42174   0.03749   0.00000  Uiso   1.00
H564   H     0.97178   0.43787   0.49306   0.00000  Uiso   1.00
N565   N     0.97939   0.47561   0.29886   0.00000  Uiso   1.00
H566   H     0.96909   0.49940   0.32030   0.00000  Uiso   1.00
C567   C     0.99245   0.44163   0.31349   0.00000  Uiso   1.00
H568   H     0.96550   0.42935   0.33751   0.00000  Uiso   1.00
H569   H     0.68725   0.45245   0.32538   0.00000  Uiso   1.00
H570   H     0.66735   0.41600   0.28950   0.00000  Uiso   1.00
C571   C     0.87400   0.33690   0.19855   0.00000  Uiso   1.00
O572   O     0.87913   0.64745   0.16758   0.00000  Uiso   1.00
O573   O     0.89617   0.37677   0.19877   0.00000  Uiso   1.00
H574   H     0.91470   0.38323   0.17160   0.00000  Uiso   1.00
N575   N     0.79583   0.66618   0.30186   0.00000  Uiso   1.00
H576   H     0.81497   0.65923   0.31830   0.00000  Uiso   1.00
C577   C     0.75938   0.35454   0.32477   0.00000  Uiso   1.00
H578   H     0.74111   0.33707   0.35016   0.00000  Uiso   1.00
H579   H     0.73751   0.35671   0.30634   0.00000  Uiso   1.00
H580   H     0.77049   0.38618   0.33638   0.00000  Uiso   1.00
N581   N     0.89474   0.39731   0.45963   0.00000  Uiso   1.00
H582   H     0.87555   0.37104   0.45300   0.00000  Uiso   1.00
C583   C     0.92935   0.40886   0.42574   0.00000  Uiso   1.00
H584   H     0.95100   0.38378   0.41577   0.00000  Uiso   1.00
H585   H     0.94851   0.43806   0.43341   0.00000  Uiso   1.00
H586   H     0.91620   0.41299   0.40108   0.00000  Uiso   1.00
N587   N     0.70783   0.56665   0.48371   0.00000  Uiso   1.00
H588   H     0.68219   0.56359   0.47162   0.00000  Uiso   1.00
C589   C     0.72158   0.60937   0.49536   0.00000  Uiso   1.00
H590   H     0.69321   0.62511   0.01343   0.00000  Uiso   1.00
H591   H     0.73718   0.62617   0.46889   0.00000  Uiso   1.00
H592   H     0.74462   0.61073   0.01340   0.00000  Uiso   1.00
C593   C     0.72789   0.55250   0.40020   0.00000  Uiso   1.00
O594   O     0.72610   0.58948   0.39925   0.00000  Uiso   1.00
O595   O     0.70369   0.52249   0.38110   0.00000  Uiso   1.00
H596   H     0.68585   0.53519   0.36745   0.00000  Uiso   1.00
C597   C     0.86797   0.51301   0.40738   0.00000  Uiso   1.00
O598   O     0.88990   0.54221   0.41990   0.00000  Uiso   1.00
O599   O     0.88775   0.48151   0.38052   0.00000  Uiso   1.00
H600   H     0.91997   0.48477   0.37658   0.00000  Uiso   1.00
N601   N     0.75290   0.49387   0.08631   0.00000  Uiso   1.00
H602   H     0.73696   0.51724   0.10477   0.00000  Uiso   1.00
C603   C     0.73019   0.45288   0.09172   0.00000  Uiso   1.00
H604   H     0.71953   0.44862   0.12368   0.00000  Uiso   1.00
H605   H     0.75163   0.42859   0.07625   0.00000  Uiso   1.00
H606   H     0.70143   0.44912   0.08019   0.00000  Uiso   1.00
Zn607  Zn    0.19244   0.80756   0.28277   0.00000  Uiso   1.00
Zn608  Zn    0.13459   0.79044   0.22257   0.00000  Uiso   1.00
Zn609  Zn    0.21166   0.86331   0.21188   0.00000  Uiso   1.00
Zn610  Zn    0.12798   0.87202   0.28277   0.00000  Uiso   1.00
O611   O     0.16667   0.83333   0.25000   0.00000  Uiso   1.00
O612   O     0.06990   0.85627   0.27820   0.00000  Uiso   1.00
O613   O     0.25440   0.81944   0.26767   0.00000  Uiso   1.00
O614   O     0.13800   0.73570   0.23607   0.00000  Uiso   1.00
O615   O     0.20437   0.92193   0.21805   0.00000  Uiso   1.00
O616   O     0.15693   0.79060   0.16625   0.00000  Uiso   1.00
O617   O     0.12687   0.87313   0.33749   0.00000  Uiso   1.00
O618   O     0.21088   0.84159   0.15877   0.00000  Uiso   1.00
O619   O     0.17198   0.82802   0.33749   0.00000  Uiso   1.00
O620   O     0.17849   0.74768   0.27820   0.00000  Uiso   1.00
O621   O     0.14581   0.92803   0.26767   0.00000  Uiso   1.00
O622   O     0.07452   0.79917   0.23607   0.00000  Uiso   1.00
O623   O     0.26785   0.85845   0.21805   0.00000  Uiso   1.00
C624   C     0.05299   0.82715   0.25820   0.00000  Uiso   1.00
C625   C     0.28092   0.84002   0.24148   0.00000  Uiso   1.00
C626   C     0.15579   0.72319   0.25952   0.00000  Uiso   1.00
C627   C     0.17632   0.94420   0.24100   0.00000  Uiso   1.00
C628   C     0.18813   0.81192   0.14409   0.00000  Uiso   1.00
C629   C     0.14463   0.85374   0.35667   0.00000  Uiso   1.00
C630   C     0.12921   0.85705   0.40088   0.00000  Uiso   1.00
C631   C     0.19643   0.80243   0.10157   0.00000  Uiso   1.00
C632   C     0.07557   0.87570   0.46325   0.00000  Uiso   1.00
C633   C     0.08928   0.87252   0.42152   0.00000  Uiso   1.00
C634   C     0.15369   0.84366   0.42295   0.00000  Uiso   1.00
C635   C     0.13476   0.83717   0.46329   0.00000  Uiso   1.00
C636   C     0.09660   0.85546   0.48445   0.00000  Uiso   1.00
C637   C     0.15436   0.81417   0.48330   0.00000  Uiso   1.00
C638   C     0.14447   0.81938   0.02472   0.00000  Uiso   1.00
C639   C     0.10495   0.83520   0.04608   0.00000  Uiso   1.00
C640   C     0.08053   0.85221   0.02593   0.00000  Uiso   1.00
C641   C     0.18055   0.78297   0.46294   0.00000  Uiso   1.00
C642   C     0.20388   0.76341   0.48145   0.00000  Uiso   1.00
C643   C     0.20191   0.77571   0.02166   0.00000  Uiso   1.00
C644   C     0.17254   0.80489   0.04313   0.00000  Uiso   1.00
C645   C     0.22714   0.75919   0.04170   0.00000  Uiso   1.00
C646   C     0.22298   0.77194   0.08177   0.00000  Uiso   1.00
C647   C     0.17282   0.81980   0.08211   0.00000  Uiso   1.00
H648   H     0.15476   0.84517   0.09802   0.00000  Uiso   1.00
H649   H     0.24062   0.75797   0.09749   0.00000  Uiso   1.00
H650   H     0.18114   0.77187   0.43274   0.00000  Uiso   1.00
C651   C     0.32661   0.84093   0.23785   0.00000  Uiso   1.00
H652   H     0.01607   0.85502   0.21301   0.00000  Uiso   1.00
C653   C     0.00751   0.82401   0.26362   0.00000  Uiso   1.00
C654   C     0.17813   0.98821   0.23592   0.00000  Uiso   1.00
C655   C     0.15280   0.67981   0.26423   0.00000  Uiso   1.00
C656   C     0.03662   0.86258   0.04829   0.00000  Uiso   1.00
O657   O     0.03185   0.89098   0.07493   0.00000  Uiso   1.00
O658   O     0.00083   0.84000   0.03841   0.00000  Uiso   1.00
H659   H     0.30596   0.84982   0.05563   0.00000  Uiso   1.00
N660   N     0.25551   0.72864   0.02255   0.00000  Uiso   1.00
H661   H     0.25069   0.70305   0.03802   0.00000  Uiso   1.00
C662   C     0.30043   0.74472   0.01095   0.00000  Uiso   1.00
H663   H     0.31967   0.71991   0.49278   0.00000  Uiso   1.00
H664   H     0.31225   0.75507   0.03749   0.00000  Uiso   1.00
H665   H     0.30511   0.77120   0.49306   0.00000  Uiso   1.00
N666   N     0.31273   0.80895   0.29886   0.00000  Uiso   1.00
H667   H     0.30242   0.83274   0.32030   0.00000  Uiso   1.00
C668   C     0.32578   0.77496   0.31349   0.00000  Uiso   1.00
H669   H     0.29883   0.76269   0.33751   0.00000  Uiso   1.00
H670   H     0.02058   0.78578   0.32538   0.00000  Uiso   1.00
H671   H     0.00068   0.74933   0.28950   0.00000  Uiso   1.00
C672   C     0.20733   0.67024   0.19855   0.00000  Uiso   1.00
O673   O     0.21246   0.98079   0.16758   0.00000  Uiso   1.00
O674   O     0.22950   0.71011   0.19877   0.00000  Uiso   1.00
H675   H     0.24804   0.71656   0.17160   0.00000  Uiso   1.00
N676   N     0.12916   0.99951   0.30186   0.00000  Uiso   1.00
H677   H     0.14830   0.99256   0.31830   0.00000  Uiso   1.00
C678   C     0.09271   0.68787   0.32477   0.00000  Uiso   1.00
H679   H     0.07445   0.67040   0.35016   0.00000  Uiso   1.00
H680   H     0.07084   0.69004   0.30634   0.00000  Uiso   1.00
H681   H     0.10382   0.71952   0.33638   0.00000  Uiso   1.00
N682   N     0.22808   0.73065   0.45963   0.00000  Uiso   1.00
H683   H     0.20888   0.70437   0.45300   0.00000  Uiso   1.00
C684   C     0.26268   0.74220   0.42574   0.00000  Uiso   1.00
H685   H     0.28433   0.71712   0.41577   0.00000  Uiso   1.00
H686   H     0.28184   0.77140   0.43341   0.00000  Uiso   1.00
H687   H     0.24953   0.74632   0.40108   0.00000  Uiso   1.00
N688   N     0.04116   0.89998   0.48371   0.00000  Uiso   1.00
H689   H     0.01552   0.89692   0.47162   0.00000  Uiso   1.00
C690   C     0.05491   0.94271   0.49536   0.00000  Uiso   1.00
H691   H     0.02655   0.95844   0.01343   0.00000  Uiso   1.00
H692   H     0.07051   0.95951   0.46889   0.00000  Uiso   1.00
H693   H     0.07796   0.94406   0.01340   0.00000  Uiso   1.00
C694   C     0.06122   0.88583   0.40020   0.00000  Uiso   1.00
O695   O     0.05943   0.92282   0.39925   0.00000  Uiso   1.00
O696   O     0.03702   0.85582   0.38110   0.00000  Uiso   1.00
H697   H     0.01918   0.86853   0.36745   0.00000  Uiso   1.00
C698   C     0.20130   0.84635   0.40738   0.00000  Uiso   1.00
O699   O     0.22324   0.87554   0.41990   0.00000  Uiso   1.00
O700   O     0.22108   0.81485   0.38052   0.00000  Uiso   1.00
H701   H     0.25330   0.81810   0.37658   0.00000  Uiso   1.00
N702   N     0.08623   0.82721   0.08631   0.00000  Uiso   1.00
H703   H     0.07029   0.85057   0.10477   0.00000  Uiso   1.00
C704   C     0.06352   0.78621   0.09172   0.00000  Uiso   1.00
H705   H     0.05287   0.78195   0.12368   0.00000  Uiso   1.00
H706   H     0.08496   0.76192   0.07625   0.00000  Uiso   1.00
H707   H     0.03477   0.78246   0.08019   0.00000  Uiso   1.00
Zn708  Zn    0.52577   0.80756   0.28277   0.00000  Uiso   1.00
Zn709  Zn    0.46792   0.79044   0.22257   0.00000  Uiso   1.00
Zn710  Zn    0.54500   0.86331   0.21188   0.00000  Uiso   1.00
Zn711  Zn    0.46131   0.87202   0.28277   0.00000  Uiso   1.00
O712   O     0.50000   0.83333   0.25000   0.00000  Uiso   1.00
O713   O     0.40323   0.85627   0.27820   0.00000  Uiso   1.00
O714   O     0.58773   0.81944   0.26767   0.00000  Uiso   1.00
O715   O     0.47133   0.73570   0.23607   0.00000  Uiso   1.00
O716   O     0.53771   0.92193   0.21805   0.00000  Uiso   1.00
O717   O     0.49027   0.79060   0.16625   0.00000  Uiso   1.00
O718   O     0.46020   0.87313   0.33749   0.00000  Uiso   1.00
O719   O     0.54421   0.84159   0.15877   0.00000  Uiso   1.00
O720   O     0.50532   0.82802   0.33749   0.00000  Uiso   1.00
O721   O     0.51182   0.74768   0.27820   0.00000  Uiso   1.00
O722   O     0.47914   0.92803   0.26767   0.00000  Uiso   1.00
O723   O     0.40785   0.79917   0.23607   0.00000  Uiso   1.00
O724   O     0.60119   0.85845   0.21805   0.00000  Uiso   1.00
C725   C     0.38633   0.82715   0.25820   0.00000  Uiso   1.00
C726   C     0.61425   0.84002   0.24148   0.00000  Uiso   1.00
C727   C     0.48913   0.72319   0.25952   0.00000  Uiso   1.00
C728   C     0.50965   0.94420   0.24100   0.00000  Uiso   1.00
C729   C     0.52146   0.81192   0.14409   0.00000  Uiso   1.00
C730   C     0.47796   0.85374   0.35667   0.00000  Uiso   1.00
C731   C     0.46254   0.85705   0.40088   0.00000  Uiso   1.00
C732   C     0.52976   0.80243   0.10157   0.00000  Uiso   1.00
C733   C     0.40890   0.87570   0.46325   0.00000  Uiso   1.00
C734   C     0.42262   0.87252   0.42152   0.00000  Uiso   1.00
C735   C     0.48702   0.84366   0.42295   0.00000  Uiso   1.00
C736   C     0.46809   0.83717   0.46329   0.00000  Uiso   1.00
C737   C     0.42994   0.85546   0.48445   0.00000  Uiso   1.00
C738   C     0.48769   0.81417   0.48330   0.00000  Uiso   1.00
C739   C     0.47780   0.81938   0.02472   0.00000  Uiso   1.00
C740   C     0.43828   0.83520   0.04608   0.00000  Uiso   1.00
C741   C     0.41386   0.85221   0.02593   0.00000  Uiso   1.00
C742   C     0.51389   0.78297   0.46294   0.00000  Uiso   1.00
C743   C     0.53721   0.76341   0.48145   0.00000  Uiso   1.00
C744   C     0.53525   0.77571   0.02166   0.00000  Uiso   1.00
C745   C     0.50588   0.80489   0.04313   0.00000  Uiso   1.00
C746   C     0.56047   0.75919   0.04170   0.00000  Uiso   1.00
C747   C     0.55631   0.77194   0.08177   0.00000  Uiso   1.00
C748   C     0.50615   0.81980   0.08211   0.00000  Uiso   1.00
H749   H     0.48810   0.84517   0.09802   0.00000  Uiso   1.00
H750   H     0.57396   0.75797   0.09749   0.00000  Uiso   1.00
H751   H     0.51448   0.77187   0.43274   0.00000  Uiso   1.00
C752   C     0.65994   0.84093   0.23785   0.00000  Uiso   1.00
H753   H     0.34941   0.85502   0.21301   0.00000  Uiso   1.00
C754   C     0.34084   0.82401   0.26362   0.00000  Uiso   1.00
C755   C     0.51146   0.98821   0.23592   0.00000  Uiso   1.00
C756   C     0.48613   0.67981   0.26423   0.00000  Uiso   1.00
C757   C     0.36995   0.86258   0.04829   0.00000  Uiso   1.00
O758   O     0.36518   0.89098   0.07493   0.00000  Uiso   1.00
O759   O     0.33416   0.84000   0.03841   0.00000  Uiso   1.00
H760   H     0.63930   0.84982   0.05563   0.00000  Uiso   1.00
N761   N     0.58884   0.72864   0.02255   0.00000  Uiso   1.00
H762   H     0.58402   0.70305   0.03802   0.00000  Uiso   1.00
C763   C     0.63377   0.74472   0.01095   0.00000  Uiso   1.00
H764   H     0.65301   0.71991   0.49278   0.00000  Uiso   1.00
H765   H     0.64559   0.75507   0.03749   0.00000  Uiso   1.00
H766   H     0.63844   0.77120   0.49306   0.00000  Uiso   1.00
N767   N     0.64606   0.80895   0.29886   0.00000  Uiso   1.00
H768   H     0.63575   0.83274   0.32030   0.00000  Uiso   1.00
C769   C     0.65912   0.77496   0.31349   0.00000  Uiso   1.00
H770   H     0.63217   0.76269   0.33751   0.00000  Uiso   1.00
H771   H     0.35392   0.78578   0.32538   0.00000  Uiso   1.00
H772   H     0.33401   0.74933   0.28950   0.00000  Uiso   1.00
C773   C     0.54067   0.67024   0.19855   0.00000  Uiso   1.00
O774   O     0.54580   0.98079   0.16758   0.00000  Uiso   1.00
O775   O     0.56283   0.71011   0.19877   0.00000  Uiso   1.00
H776   H     0.58137   0.71656   0.17160   0.00000  Uiso   1.00
N777   N     0.46250   0.99951   0.30186   0.00000  Uiso   1.00
H778   H     0.48164   0.99256   0.31830   0.00000  Uiso   1.00
C779   C     0.42605   0.68787   0.32477   0.00000  Uiso   1.00
H780   H     0.40778   0.67040   0.35016   0.00000  Uiso   1.00
H781   H     0.40417   0.69004   0.30634   0.00000  Uiso   1.00
H782   H     0.43716   0.71952   0.33638   0.00000  Uiso   1.00
N783   N     0.56141   0.73065   0.45963   0.00000  Uiso   1.00
H784   H     0.54222   0.70437   0.45300   0.00000  Uiso   1.00
C785   C     0.59602   0.74220   0.42574   0.00000  Uiso   1.00
H786   H     0.61767   0.71712   0.41577   0.00000  Uiso   1.00
H787   H     0.61517   0.77140   0.43341   0.00000  Uiso   1.00
H788   H     0.58287   0.74632   0.40108   0.00000  Uiso   1.00
N789   N     0.37450   0.89998   0.48371   0.00000  Uiso   1.00
H790   H     0.34886   0.89692   0.47162   0.00000  Uiso   1.00
C791   C     0.38824   0.94271   0.49536   0.00000  Uiso   1.00
H792   H     0.35988   0.95844   0.01343   0.00000  Uiso   1.00
H793   H     0.40385   0.95951   0.46889   0.00000  Uiso   1.00
H794   H     0.41129   0.94406   0.01340   0.00000  Uiso   1.00
C795   C     0.39455   0.88583   0.40020   0.00000  Uiso   1.00
O796   O     0.39276   0.92282   0.39925   0.00000  Uiso   1.00
O797   O     0.37035   0.85582   0.38110   0.00000  Uiso   1.00
H798   H     0.35251   0.86853   0.36745   0.00000  Uiso   1.00
C799   C     0.53463   0.84635   0.40738   0.00000  Uiso   1.00
O800   O     0.55657   0.87554   0.41990   0.00000  Uiso   1.00
O801   O     0.55442   0.81485   0.38052   0.00000  Uiso   1.00
H802   H     0.58663   0.81810   0.37658   0.00000  Uiso   1.00
N803   N     0.41956   0.82721   0.08631   0.00000  Uiso   1.00
H804   H     0.40362   0.85057   0.10477   0.00000  Uiso   1.00
C805   C     0.39685   0.78621   0.09172   0.00000  Uiso   1.00
H806   H     0.38620   0.78195   0.12368   0.00000  Uiso   1.00
H807   H     0.41830   0.76192   0.07625   0.00000  Uiso   1.00
H808   H     0.36810   0.78246   0.08019   0.00000  Uiso   1.00
Zn809  Zn    0.85910   0.80756   0.28277   0.00000  Uiso   1.00
Zn810  Zn    0.80125   0.79044   0.22257   0.00000  Uiso   1.00
Zn811  Zn    0.87833   0.86331   0.21188   0.00000  Uiso   1.00
Zn812  Zn    0.79465   0.87202   0.28277   0.00000  Uiso   1.00
O813   O     0.83333   0.83333   0.25000   0.00000  Uiso   1.00
O814   O     0.73656   0.85627   0.27820   0.00000  Uiso   1.00
O815   O     0.92106   0.81944   0.26767   0.00000  Uiso   1.00
O816   O     0.80467   0.73570   0.23607   0.00000  Uiso   1.00
O817   O     0.87104   0.92193   0.21805   0.00000  Uiso   1.00
O818   O     0.82360   0.79060   0.16625   0.00000  Uiso   1.00
O819   O     0.79354   0.87313   0.33749   0.00000  Uiso   1.00
O820   O     0.87755   0.84159   0.15877   0.00000  Uiso   1.00
O821   O     0.83865   0.82802   0.33749   0.00000  Uiso   1.00
O822   O     0.84515   0.74768   0.27820   0.00000  Uiso   1.00
O823   O     0.81247   0.92803   0.26767   0.00000  Uiso   1.00
O824   O     0.74119   0.79917   0.23607   0.00000  Uiso   1.00
O825   O     0.93452   0.85845   0.21805   0.00000  Uiso   1.00
C826   C     0.71966   0.82715   0.25820   0.00000  Uiso   1.00
C827   C     0.94759   0.84002   0.24148   0.00000  Uiso   1.00
C828   C     0.82246   0.72319   0.25952   0.00000  Uiso   1.00
C829   C     0.84299   0.94420   0.24100   0.00000  Uiso   1.00
C830   C     0.85480   0.81192   0.14409   0.00000  Uiso   1.00
C831   C     0.81130   0.85374   0.35667   0.00000  Uiso   1.00
C832   C     0.79588   0.85705   0.40088   0.00000  Uiso   1.00
C833   C     0.86310   0.80243   0.10157   0.00000  Uiso   1.00
C834   C     0.74223   0.87570   0.46325   0.00000  Uiso   1.00
C835   C     0.75595   0.87252   0.42152   0.00000  Uiso   1.00
C836   C     0.82035   0.84366   0.42295   0.00000  Uiso   1.00
C837   C     0.80143   0.83717   0.46329   0.00000  Uiso   1.00
C838   C     0.76327   0.85546   0.48445   0.00000  Uiso   1.00
C839   C     0.82103   0.81417   0.48330   0.00000  Uiso   1.00
C840   C     0.81114   0.81938   0.02472   0.00000  Uiso   1.00
C841   C     0.77162   0.83520   0.04608   0.00000  Uiso   1.00
C842   C     0.74719   0.85221   0.02593   0.00000  Uiso   1.00
C843   C     0.84722   0.78297   0.46294   0.00000  Uiso   1.00
C844   C     0.87055   0.76341   0.48145   0.00000  Uiso   1.00
C845   C     0.86858   0.77571   0.02166   0.00000  Uiso   1.00
C846   C     0.83921   0.80489   0.04313   0.00000  Uiso   1.00
C847   C     0.89381   0.75919   0.04170   0.00000  Uiso   1.00
C848   C     0.88964   0.77194   0.08177   0.00000  Uiso   1.00
C849   C     0.83949   0.81980   0.08211   0.00000  Uiso   1.00
H850   H     0.82143   0.84517   0.09802   0.00000  Uiso   1.00
H851   H     0.90729   0.75797   0.09749   0.00000  Uiso   1.00
H852   H     0.84781   0.77187   0.43274   0.00000  Uiso   1.00
C853   C     0.99328   0.84093   0.23785   0.00000  Uiso   1.00
H854   H     0.68274   0.85502   0.21301   0.00000  Uiso   1.00
C855   C     0.67418   0.82401   0.26362   0.00000  Uiso   1.00
C856   C     0.84480   0.98821   0.23592   0.00000  Uiso   1.00
C857   C     0.81946   0.67981   0.26423   0.00000  Uiso   1.00
C858   C     0.70328   0.86258   0.04829   0.00000  Uiso   1.00
O859   O     0.69851   0.89098   0.07493   0.00000  Uiso   1.00
O860   O     0.66749   0.84000   0.03841   0.00000  Uiso   1.00
H861   H     0.97263   0.84982   0.05563   0.00000  Uiso   1.00
N862   N     0.92218   0.72864   0.02255   0.00000  Uiso   1.00
H863   H     0.91736   0.70305   0.03802   0.00000  Uiso   1.00
C864   C     0.96710   0.74472   0.01095   0.00000  Uiso   1.00
H865   H     0.98634   0.71991   0.49278   0.00000  Uiso   1.00
H866   H     0.97892   0.75507   0.03749   0.00000  Uiso   1.00
H867   H     0.97178   0.77120   0.49306   0.00000  Uiso   1.00
N868   N     0.97939   0.80895   0.29886   0.00000  Uiso   1.00
H869   H     0.96909   0.83274   0.32030   0.00000  Uiso   1.00
C870   C     0.99245   0.77496   0.31349   0.00000  Uiso   1.00
H871   H     0.96550   0.76269   0.33751   0.00000  Uiso   1.00
H872   H     0.68725   0.78578   0.32538   0.00000  Uiso   1.00
H873   H     0.66735   0.74933   0.28950   0.00000  Uiso   1.00
C874   C     0.87400   0.67024   0.19855   0.00000  Uiso   1.00
O875   O     0.87913   0.98079   0.16758   0.00000  Uiso   1.00
O876   O     0.89617   0.71011   0.19877   0.00000  Uiso   1.00
H877   H     0.91470   0.71656   0.17160   0.00000  Uiso   1.00
N878   N     0.79583   0.99951   0.30186   0.00000  Uiso   1.00
H879   H     0.81497   0.99256   0.31830   0.00000  Uiso   1.00
C880   C     0.75938   0.68787   0.32477   0.00000  Uiso   1.00
H881   H     0.74111   0.67040   0.35016   0.00000  Uiso   1.00
H882   H     0.73751   0.69004   0.30634   0.00000  Uiso   1.00
H883   H     0.77049   0.71952   0.33638   0.00000  Uiso   1.00
N884   N     0.89474   0.73065   0.45963   0.00000  Uiso   1.00
H885   H     0.87555   0.70437   0.45300   0.00000  Uiso   1.00
C886   C     0.92935   0.74220   0.42574   0.00000  Uiso   1.00
H887   H     0.95100   0.71712   0.41577   0.00000  Uiso   1.00
H888   H     0.94851   0.77140   0.43341   0.00000  Uiso   1.00
H889   H     0.91620   0.74632   0.40108   0.00000  Uiso   1.00
N890   N     0.70783   0.89998   0.48371   0.00000  Uiso   1.00
H891   H     0.68219   0.89692   0.47162   0.00000  Uiso   1.00
C892   C     0.72158   0.94271   0.49536   0.00000  Uiso   1.00
H893   H     0.69321   0.95844   0.01343   0.00000  Uiso   1.00
H894   H     0.73718   0.95951   0.46889   0.00000  Uiso   1.00
H895   H     0.74462   0.94406   0.01340   0.00000  Uiso   1.00
C896   C     0.72789   0.88583   0.40020   0.00000  Uiso   1.00
O897   O     0.72610   0.92282   0.39925   0.00000  Uiso   1.00
O898   O     0.70369   0.85582   0.38110   0.00000  Uiso   1.00
H899   H     0.68585   0.86853   0.36745   0.00000  Uiso   1.00
C900   C     0.86797   0.84635   0.40738   0.00000  Uiso   1.00
O901   O     0.88990   0.87554   0.41990   0.00000  Uiso   1.00
O902   O     0.88775   0.81485   0.38052   0.00000  Uiso   1.00
H903   H     0.91997   0.81810   0.37658   0.00000  Uiso   1.00
N904   N     0.75290   0.82721   0.08631   0.00000  Uiso   1.00
H905   H     0.73696   0.85057   0.10477   0.00000  Uiso   1.00
C906   C     0.73019   0.78621   0.09172   0.00000  Uiso   1.00
H907   H     0.71953   0.78195   0.12368   0.00000  Uiso   1.00
H908   H     0.75163   0.76192   0.07625   0.00000  Uiso   1.00
H909   H     0.70143   0.78246   0.08019   0.00000  Uiso   1.00
Zn910  Zn    0.19244   0.14090   0.78277   0.00000  Uiso   1.00
Zn911  Zn    0.13459   0.12378   0.72257   0.00000  Uiso   1.00
Zn912  Zn    0.21166   0.19664   0.71188   0.00000  Uiso   1.00
Zn913  Zn    0.12798   0.20535   0.78277   0.00000  Uiso   1.00
O914   O     0.16667   0.16667   0.75000   0.00000  Uiso   1.00
O915   O     0.06990   0.18960   0.77820   0.00000  Uiso   1.00
O916   O     0.25440   0.15277   0.76767   0.00000  Uiso   1.00
O917   O     0.13800   0.06903   0.73607   0.00000  Uiso   1.00
O918   O     0.20437   0.25527   0.71805   0.00000  Uiso   1.00
O919   O     0.15693   0.12393   0.66625   0.00000  Uiso   1.00
O920   O     0.12687   0.20646   0.83749   0.00000  Uiso   1.00
O921   O     0.21088   0.17493   0.65877   0.00000  Uiso   1.00
O922   O     0.17198   0.16135   0.83749   0.00000  Uiso   1.00
O923   O     0.17849   0.08101   0.77820   0.00000  Uiso   1.00
O924   O     0.14581   0.26136   0.76767   0.00000  Uiso   1.00
O925   O     0.07452   0.13251   0.73607   0.00000  Uiso   1.00
O926   O     0.26785   0.19179   0.71805   0.00000  Uiso   1.00
C927   C     0.05299   0.16048   0.75820   0.00000  Uiso   1.00
C928   C     0.28092   0.17336   0.74148   0.00000  Uiso   1.00
C929   C     0.15579   0.05652   0.75952   0.00000  Uiso   1.00
C930   C     0.17632   0.27753   0.74100   0.00000  Uiso   1.00
C931   C     0.18813   0.14525   0.64409   0.00000  Uiso   1.00
C932   C     0.14463   0.18708   0.85667   0.00000  Uiso   1.00
C933   C     0.12921   0.19038   0.90088   0.00000  Uiso   1.00
C934   C     0.19643   0.13576   0.60157   0.00000  Uiso   1.00
C935   C     0.07557   0.20904   0.96325   0.00000  Uiso   1.00
C936   C     0.08928   0.20586   0.92152   0.00000  Uiso   1.00
C937   C     0.15369   0.17700   0.92295   0.00000  Uiso   1.00
C938   C     0.13476   0.17050   0.96329   0.00000  Uiso   1.00
C939   C     0.09660   0.18879   0.98445   0.00000  Uiso   1.00
C940   C     0.15436   0.14750   0.98330   0.00000  Uiso   1.00
C941   C     0.14447   0.15272   0.52472   0.00000  Uiso   1.00
C942   C     0.10495   0.16853   0.54608   0.00000  Uiso   1.00
C943   C     0.08053   0.18555   0.52593   0.00000  Uiso   1.00
C944   C     0.18055   0.11630   0.96294   0.00000  Uiso   1.00
C945   C     0.20388   0.09675   0.98145   0.00000  Uiso   1.00
C946   C     0.20191   0.10904   0.52166   0.00000  Uiso   1.00
C947   C     0.17254   0.13823   0.54313   0.00000  Uiso   1.00
C948   C     0.22714   0.09252   0.54170   0.00000  Uiso   1.00
C949   C     0.22298   0.10527   0.58177   0.00000  Uiso   1.00
C950   C     0.17282   0.15313   0.58211   0.00000  Uiso   1.00
H951   H     0.15476   0.17850   0.59802   0.00000  Uiso   1.00
H952   H     0.24062   0.09130   0.59749   0.00000  Uiso   1.00
H953   H     0.18114   0.10521   0.93274   0.00000  Uiso   1.00
C954   C     0.32661   0.17426   0.73785   0.00000  Uiso   1.00
H955   H     0.01607   0.18835   0.71301   0.00000  Uiso   1.00
C956   C     0.00751   0.15734   0.76362   0.00000  Uiso   1.00
C957   C     0.17813   0.32155   0.73592   0.00000  Uiso   1.00
C958   C     0.15280   0.01315   0.76423   0.00000  Uiso   1.00
C959   C     0.03662   0.19591   0.54829   0.00000  Uiso   1.00
O960   O     0.03185   0.22432   0.57493   0.00000  Uiso   1.00
O961   O     0.00083   0.17333   0.53841   0.00000  Uiso   1.00
H962   H     0.30596   0.18315   0.55563   0.00000  Uiso   1.00
N963   N     0.25551   0.06197   0.52255   0.00000  Uiso   1.00
H964   H     0.25069   0.03639   0.53802   0.00000  Uiso   1.00
C965   C     0.30043   0.07805   0.51095   0.00000  Uiso   1.00
H966   H     0.31967   0.05324   0.99278   0.00000  Uiso   1.00
H967   H     0.31225   0.08841   0.53749   0.00000  Uiso   1.00
H968   H     0.30511   0.10454   0.99306   0.00000  Uiso   1.00
N969   N     0.31273   0.14228   0.79886   0.00000  Uiso   1.00
H970   H     0.30242   0.16607   0.82030   0.00000  Uiso   1.00
C971   C     0.32578   0.10830   0.81349   0.00000  Uiso   1.00
H972   H     0.29883   0.09602   0.83751   0.00000  Uiso   1.00
H973   H     0.02058   0.11912   0.82538   0.00000  Uiso   1.00
H974   H     0.00068   0.08266   0.78950   0.00000  Uiso   1.00
C975   C     0.20733   0.00357   0.69855   0.00000  Uiso   1.00
O976   O     0.21246   0.31412   0.66758   0.00000  Uiso   1.00
O977   O     0.22950   0.04344   0.69877   0.00000  Uiso   1.00
H978   H     0.24804   0.04989   0.67160   0.00000  Uiso   1.00
N979   N     0.12916   0.33285   0.80186   0.00000  Uiso   1.00
H980   H     0.14830   0.32590   0.81830   0.00000  Uiso   1.00
C981   C     0.09271   0.02120   0.82477   0.00000  Uiso   1.00
H982   H     0.07445   0.00373   0.85016   0.00000  Uiso   1.00
H983   H     0.07084   0.02338   0.80634   0.00000  Uiso   1.00
H984   H     0.10382   0.05285   0.83638   0.00000  Uiso   1.00
N985   N     0.22808   0.06398   0.95963   0.00000  Uiso   1.00
H986   H     0.20888   0.03770   0.95300   0.00000  Uiso   1.00
C987   C     0.26268   0.07553   0.92574   0.00000  Uiso   1.00
H988   H     0.28433   0.05045   0.91577   0.00000  Uiso   1.00
H989   H     0.28184   0.10473   0.93341   0.00000  Uiso   1.00
H990   H     0.24953   0.07966   0.90108   0.00000  Uiso   1.00
N991   N     0.04116   0.23332   0.98371   0.00000  Uiso   1.00
H992   H     0.01552   0.23025   0.97162   0.00000  Uiso   1.00
C993   C     0.05491   0.27604   0.99536   0.00000  Uiso   1.00
H994   H     0.02655   0.29178   0.51343   0.00000  Uiso   1.00
H995   H     0.07051   0.29284   0.96889   0.00000  Uiso   1.00
H996   H     0.07796   0.27740   0.51340   0.00000  Uiso   1.00
C997   C     0.06122   0.21917   0.90020   0.00000  Uiso   1.00
O998   O     0.05943   0.25615   0.89925   0.00000  Uiso   1.00
O999   O     0.03702   0.18915   0.88110   0.00000  Uiso   1.00
H1000  H     0.01918   0.20186   0.86745   0.00000  Uiso   1.00
C1001  C     0.20130   0.17968   0.90738   0.00000  Uiso   1.00
O1002  O     0.22324   0.20887   0.91990   0.00000  Uiso   1.00
O1003  O     0.22108   0.14818   0.88052   0.00000  Uiso   1.00
H1004  H     0.25330   0.15144   0.87658   0.00000  Uiso   1.00
N1005  N     0.08623   0.16054   0.58631   0.00000  Uiso   1.00
H1006  H     0.07029   0.18391   0.60477   0.00000  Uiso   1.00
C1007  C     0.06352   0.11954   0.59172   0.00000  Uiso   1.00
H1008  H     0.05287   0.11528   0.62368   0.00000  Uiso   1.00
H1009  H     0.08496   0.09525   0.57625   0.00000  Uiso   1.00
H1010  H     0.03477   0.11579   0.58019   0.00000  Uiso   1.00
Zn1011 Zn    0.52577   0.14090   0.78277   0.00000  Uiso   1.00
Zn1012 Zn    0.46792   0.12378   0.72257   0.00000  Uiso   1.00
Zn1013 Zn    0.54500   0.19664   0.71188   0.00000  Uiso   1.00
Zn1014 Zn    0.46131   0.20535   0.78277   0.00000  Uiso   1.00
O1015  O     0.50000   0.16667   0.75000   0.00000  Uiso   1.00
O1016  O     0.40323   0.18960   0.77820   0.00000  Uiso   1.00
O1017  O     0.58773   0.15277   0.76767   0.00000  Uiso   1.00
O1018  O     0.47133   0.06903   0.73607   0.00000  Uiso   1.00
O1019  O     0.53771   0.25527   0.71805   0.00000  Uiso   1.00
O1020  O     0.49027   0.12393   0.66625   0.00000  Uiso   1.00
O1021  O     0.46020   0.20646   0.83749   0.00000  Uiso   1.00
O1022  O     0.54421   0.17493   0.65877   0.00000  Uiso   1.00
O1023  O     0.50532   0.16135   0.83749   0.00000  Uiso   1.00
O1024  O     0.51182   0.08101   0.77820   0.00000  Uiso   1.00
O1025  O     0.47914   0.26136   0.76767   0.00000  Uiso   1.00
O1026  O     0.40785   0.13251   0.73607   0.00000  Uiso   1.00
O1027  O     0.60119   0.19179   0.71805   0.00000  Uiso   1.00
C1028  C     0.38633   0.16048   0.75820   0.00000  Uiso   1.00
C1029  C     0.61425   0.17336   0.74148   0.00000  Uiso   1.00
C1030  C     0.48913   0.05652   0.75952   0.00000  Uiso   1.00
C1031  C     0.50965   0.27753   0.74100   0.00000  Uiso   1.00
C1032  C     0.52146   0.14525   0.64409   0.00000  Uiso   1.00
C1033  C     0.47796   0.18708   0.85667   0.00000  Uiso   1.00
C1034  C     0.46254   0.19038   0.90088   0.00000  Uiso   1.00
C1035  C     0.52976   0.13576   0.60157   0.00000  Uiso   1.00
C1036  C     0.40890   0.20904   0.96325   0.00000  Uiso   1.00
C1037  C     0.42262   0.20586   0.92152   0.00000  Uiso   1.00
C1038  C     0.48702   0.17700   0.92295   0.00000  Uiso   1.00
C1039  C     0.46809   0.17050   0.96329   0.00000  Uiso   1.00
C1040  C     0.42994   0.18879   0.98445   0.00000  Uiso   1.00
C1041  C     0.48769   0.14750   0.98330   0.00000  Uiso   1.00
C1042  C     0.47780   0.15272   0.52472   0.00000  Uiso   1.00
C1043  C     0.43828   0.16853   0.54608   0.00000  Uiso   1.00
C1044  C     0.41386   0.18555   0.52593   0.00000  Uiso   1.00
C1045  C     0.51389   0.11630   0.96294   0.00000  Uiso   1.00
C1046  C     0.53721   0.09675   0.98145   0.00000  Uiso   1.00
C1047  C     0.53525   0.10904   0.52166   0.00000  Uiso   1.00
C1048  C     0.50588   0.13823   0.54313   0.00000  Uiso   1.00
C1049  C     0.56047   0.09252   0.54170   0.00000  Uiso   1.00
C1050  C     0.55631   0.10527   0.58177   0.00000  Uiso   1.00
C1051  C     0.50615   0.15313   0.58211   0.00000  Uiso   1.00
H1052  H     0.48810   0.17850   0.59802   0.00000  Uiso   1.00
H1053  H     0.57396   0.09130   0.59749   0.00000  Uiso   1.00
H1054  H     0.51448   0.10521   0.93274   0.00000  Uiso   1.00
C1055  C     0.65994   0.17426   0.73785   0.00000  Uiso   1.00
H1056  H     0.34941   0.18835   0.71301   0.00000  Uiso   1.00
C1057  C     0.34084   0.15734   0.76362   0.00000  Uiso   1.00
C1058  C     0.51146   0.32155   0.73592   0.00000  Uiso   1.00
C1059  C     0.48613   0.01315   0.76423   0.00000  Uiso   1.00
C1060  C     0.36995   0.19591   0.54829   0.00000  Uiso   1.00
O1061  O     0.36518   0.22432   0.57493   0.00000  Uiso   1.00
O1062  O     0.33416   0.17333   0.53841   0.00000  Uiso   1.00
H1063  H     0.63930   0.18315   0.55563   0.00000  Uiso   1.00
N1064  N     0.58884   0.06197   0.52255   0.00000  Uiso   1.00
H1065  H     0.58402   0.03639   0.53802   0.00000  Uiso   1.00
C1066  C     0.63377   0.07805   0.51095   0.00000  Uiso   1.00
H1067  H     0.65301   0.05324   0.99278   0.00000  Uiso   1.00
H1068  H     0.64559   0.08841   0.53749   0.00000  Uiso   1.00
H1069  H     0.63844   0.10454   0.99306   0.00000  Uiso   1.00
N1070  N     0.64606   0.14228   0.79886   0.00000  Uiso   1.00
H1071  H     0.63575   0.16607   0.82030   0.00000  Uiso   1.00
C1072  C     0.65912   0.10830   0.81349   0.00000  Uiso   1.00
H1073  H     0.63217   0.09602   0.83751   0.00000  Uiso   1.00
H1074  H     0.35392   0.11912   0.82538   0.00000  Uiso   1.00
H1075  H     0.33401   0.08266   0.78950   0.00000  Uiso   1.00
C1076  C     0.54067   0.00357   0.69855   0.00000  Uiso   1.00
O1077  O     0.54580   0.31412   0.66758   0.00000  Uiso   1.00
O1078  O     0.56283   0.04344   0.69877   0.00000  Uiso   1.00
H1079  H     0.58137   0.04989   0.67160   0.00000  Uiso   1.00
N1080  N     0.46250   0.33285   0.80186   0.00000  Uiso   1.00
H1081  H     0.48164   0.32590   0.81830   0.00000  Uiso   1.00
C1082  C     0.42605   0.02120   0.82477   0.00000  Uiso   1.00
H1083  H     0.40778   0.00373   0.85016   0.00000  Uiso   1.00
H1084  H     0.40417   0.02338   0.80634   0.00000  Uiso   1.00
H1085  H     0.43716   0.05285   0.83638   0.00000  Uiso   1.00
N1086  N     0.56141   0.06398   0.95963   0.00000  Uiso   1.00
H1087  H     0.54222   0.03770   0.95300   0.00000  Uiso   1.00
C1088  C     0.59602   0.07553   0.92574   0.00000  Uiso   1.00
H1089  H     0.61767   0.05045   0.91577   0.00000  Uiso   1.00
H1090  H     0.61517   0.10473   0.93341   0.00000  Uiso   1.00
H1091  H     0.58287   0.07966   0.90108   0.00000  Uiso   1.00
N1092  N     0.37450   0.23332   0.98371   0.00000  Uiso   1.00
H1093  H     0.34886   0.23025   0.97162   0.00000  Uiso   1.00
C1094  C     0.38824   0.27604   0.99536   0.00000  Uiso   1.00
H1095  H     0.35988   0.29178   0.51343   0.00000  Uiso   1.00
H1096  H     0.40385   0.29284   0.96889   0.00000  Uiso   1.00
H1097  H     0.41129   0.27740   0.51340   0.00000  Uiso   1.00
C1098  C     0.39455   0.21917   0.90020   0.00000  Uiso   1.00
O1099  O     0.39276   0.25615   0.89925   0.00000  Uiso   1.00
O1100  O     0.37035   0.18915   0.88110   0.00000  Uiso   1.00
H1101  H     0.35251   0.20186   0.86745   0.00000  Uiso   1.00
C1102  C     0.53463   0.17968   0.90738   0.00000  Uiso   1.00
O1103  O     0.55657   0.20887   0.91990   0.00000  Uiso   1.00
O1104  O     0.55442   0.14818   0.88052   0.00000  Uiso   1.00
H1105  H     0.58663   0.15144   0.87658   0.00000  Uiso   1.00
N1106  N     0.41956   0.16054   0.58631   0.00000  Uiso   1.00
H1107  H     0.40362   0.18391   0.60477   0.00000  Uiso   1.00
C1108  C     0.39685   0.11954   0.59172   0.00000  Uiso   1.00
H1109  H     0.38620   0.11528   0.62368   0.00000  Uiso   1.00
H1110  H     0.41830   0.09525   0.57625   0.00000  Uiso   1.00
H1111  H     0.36810   0.11579   0.58019   0.00000  Uiso   1.00
Zn1112 Zn    0.85910   0.14090   0.78277   0.00000  Uiso   1.00
Zn1113 Zn    0.80125   0.12378   0.72257   0.00000  Uiso   1.00
Zn1114 Zn    0.87833   0.19664   0.71188   0.00000  Uiso   1.00
Zn1115 Zn    0.79465   0.20535   0.78277   0.00000  Uiso   1.00
O1116  O     0.83333   0.16667   0.75000   0.00000  Uiso   1.00
O1117  O     0.73656   0.18960   0.77820   0.00000  Uiso   1.00
O1118  O     0.92106   0.15277   0.76767   0.00000  Uiso   1.00
O1119  O     0.80467   0.06903   0.73607   0.00000  Uiso   1.00
O1120  O     0.87104   0.25527   0.71805   0.00000  Uiso   1.00
O1121  O     0.82360   0.12393   0.66625   0.00000  Uiso   1.00
O1122  O     0.79354   0.20646   0.83749   0.00000  Uiso   1.00
O1123  O     0.87755   0.17493   0.65877   0.00000  Uiso   1.00
O1124  O     0.83865   0.16135   0.83749   0.00000  Uiso   1.00
O1125  O     0.84515   0.08101   0.77820   0.00000  Uiso   1.00
O1126  O     0.81247   0.26136   0.76767   0.00000  Uiso   1.00
O1127  O     0.74119   0.13251   0.73607   0.00000  Uiso   1.00
O1128  O     0.93452   0.19179   0.71805   0.00000  Uiso   1.00
C1129  C     0.71966   0.16048   0.75820   0.00000  Uiso   1.00
C1130  C     0.94759   0.17336   0.74148   0.00000  Uiso   1.00
C1131  C     0.82246   0.05652   0.75952   0.00000  Uiso   1.00
C1132  C     0.84299   0.27753   0.74100   0.00000  Uiso   1.00
C1133  C     0.85480   0.14525   0.64409   0.00000  Uiso   1.00
C1134  C     0.81130   0.18708   0.85667   0.00000  Uiso   1.00
C1135  C     0.79588   0.19038   0.90088   0.00000  Uiso   1.00
C1136  C     0.86310   0.13576   0.60157   0.00000  Uiso   1.00
C1137  C     0.74223   0.20904   0.96325   0.00000  Uiso   1.00
C1138  C     0.75595   0.20586   0.92152   0.00000  Uiso   1.00
C1139  C     0.82035   0.17700   0.92295   0.00000  Uiso   1.00
C1140  C     0.80143   0.17050   0.96329   0.00000  Uiso   1.00
C1141  C     0.76327   0.18879   0.98445   0.00000  Uiso   1.00
C1142  C     0.82103   0.14750   0.98330   0.00000  Uiso   1.00
C1143  C     0.81114   0.15272   0.52472   0.00000  Uiso   1.00
C1144  C     0.77162   0.16853   0.54608   0.00000  Uiso   1.00
C1145  C     0.74719   0.18555   0.52593   0.00000  Uiso   1.00
C1146  C     0.84722   0.11630   0.96294   0.00000  Uiso   1.00
C1147  C     0.87055   0.09675   0.98145   0.00000  Uiso   1.00
C1148  C     0.86858   0.10904   0.52166   0.00000  Uiso   1.00
C1149  C     0.83921   0.13823   0.54313   0.00000  Uiso   1.00
C1150  C     0.89381   0.09252   0.54170   0.00000  Uiso   1.00
C1151  C     0.88964   0.10527   0.58177   0.00000  Uiso   1.00
C1152  C     0.83949   0.15313   0.58211   0.00000  Uiso   1.00
H1153  H     0.82143   0.17850   0.59802   0.00000  Uiso   1.00
H1154  H     0.90729   0.09130   0.59749   0.00000  Uiso   1.00
H1155  H     0.84781   0.10521   0.93274   0.00000  Uiso   1.00
C1156  C     0.99328   0.17426   0.73785   0.00000  Uiso   1.00
H1157  H     0.68274   0.18835   0.71301   0.00000  Uiso   1.00
C1158  C     0.67418   0.15734   0.76362   0.00000  Uiso   1.00
C1159  C     0.84480   0.32155   0.73592   0.00000  Uiso   1.00
C1160  C     0.81946   0.01315   0.76423   0.00000  Uiso   1.00
C1161  C     0.70328   0.19591   0.54829   0.00000  Uiso   1.00
O1162  O     0.69851   0.22432   0.57493   0.00000  Uiso   1.00
O1163  O     0.66749   0.17333   0.53841   0.00000  Uiso   1.00
H1164  H     0.97263   0.18315   0.55563   0.00000  Uiso   1.00
N1165  N     0.92218   0.06197   0.52255   0.00000  Uiso   1.00
H1166  H     0.91736   0.03639   0.53802   0.00000  Uiso   1.00
C1167  C     0.96710   0.07805   0.51095   0.00000  Uiso   1.00
H1168  H     0.98634   0.05324   0.99278   0.00000  Uiso   1.00
H1169  H     0.97892   0.08841   0.53749   0.00000  Uiso   1.00
H1170  H     0.97178   0.10454   0.99306   0.00000  Uiso   1.00
N1171  N     0.97939   0.14228   0.79886   0.00000  Uiso   1.00
H1172  H     0.96909   0.16607   0.82030   0.00000  Uiso   1.00
C1173  C     0.99245   0.10830   0.81349   0.00000  Uiso   1.00
H1174  H     0.96550   0.09602   0.83751   0.00000  Uiso   1.00
H1175  H     0.68725   0.11912   0.82538   0.00000  Uiso   1.00
H1176  H     0.66735   0.08266   0.78950   0.00000  Uiso   1.00
C1177  C     0.87400   0.00357   0.69855   0.00000  Uiso   1.00
O1178  O     0.87913   0.31412   0.66758   0.00000  Uiso   1.00
O1179  O     0.89617   0.04344   0.69877   0.00000  Uiso   1.00
H1180  H     0.91470   0.04989   0.67160   0.00000  Uiso   1.00
N1181  N     0.79583   0.33285   0.80186   0.00000  Uiso   1.00
H1182  H     0.81497   0.32590   0.81830   0.00000  Uiso   1.00
C1183  C     0.75938   0.02120   0.82477   0.00000  Uiso   1.00
H1184  H     0.74111   0.00373   0.85016   0.00000  Uiso   1.00
H1185  H     0.73751   0.02338   0.80634   0.00000  Uiso   1.00
H1186  H     0.77049   0.05285   0.83638   0.00000  Uiso   1.00
N1187  N     0.89474   0.06398   0.95963   0.00000  Uiso   1.00
H1188  H     0.87555   0.03770   0.95300   0.00000  Uiso   1.00
C1189  C     0.92935   0.07553   0.92574   0.00000  Uiso   1.00
H1190  H     0.95100   0.05045   0.91577   0.00000  Uiso   1.00
H1191  H     0.94851   0.10473   0.93341   0.00000  Uiso   1.00
H1192  H     0.91620   0.07966   0.90108   0.00000  Uiso   1.00
N1193  N     0.70783   0.23332   0.98371   0.00000  Uiso   1.00
H1194  H     0.68219   0.23025   0.97162   0.00000  Uiso   1.00
C1195  C     0.72158   0.27604   0.99536   0.00000  Uiso   1.00
H1196  H     0.69321   0.29178   0.51343   0.00000  Uiso   1.00
H1197  H     0.73718   0.29284   0.96889   0.00000  Uiso   1.00
H1198  H     0.74462   0.27740   0.51340   0.00000  Uiso   1.00
C1199  C     0.72789   0.21917   0.90020   0.00000  Uiso   1.00
O1200  O     0.72610   0.25615   0.89925   0.00000  Uiso   1.00
O1201  O     0.70369   0.18915   0.88110   0.00000  Uiso   1.00
H1202  H     0.68585   0.20186   0.86745   0.00000  Uiso   1.00
C1203  C     0.86797   0.17968   0.90738   0.00000  Uiso   1.00
O1204  O     0.88990   0.20887   0.91990   0.00000  Uiso   1.00
O1205  O     0.88775   0.14818   0.88052   0.00000  Uiso   1.00
H1206  H     0.91997   0.15144   0.87658   0.00000  Uiso   1.00
N1207  N     0.75290   0.16054   0.58631   0.00000  Uiso   1.00
H1208  H     0.73696   0.18391   0.60477   0.00000  Uiso   1.00
C1209  C     0.73019   0.11954   0.59172   0.00000  Uiso   1.00
H1210  H     0.71953   0.11528   0.62368   0.00000  Uiso   1.00
H1211  H     0.75163   0.09525   0.57625   0.00000  Uiso   1.00
H1212  H     0.70143   0.11579   0.58019   0.00000  Uiso   1.00
Zn1213 Zn    0.19244   0.47423   0.78277   0.00000  Uiso   1.00
Zn1214 Zn    0.13459   0.45711   0.72257   0.00000  Uiso   1.00
Zn1215 Zn    0.21166   0.52997   0.71188   0.00000  Uiso   1.00
Zn1216 Zn    0.12798   0.53868   0.78277   0.00000  Uiso   1.00
O1217  O     0.16667   0.50000   0.75000   0.00000  Uiso   1.00
O1218  O     0.06990   0.52293   0.77820   0.00000  Uiso   1.00
O1219  O     0.25440   0.48610   0.76767   0.00000  Uiso   1.00
O1220  O     0.13800   0.40236   0.73607   0.00000  Uiso   1.00
O1221  O     0.20437   0.58860   0.71805   0.00000  Uiso   1.00
O1222  O     0.15693   0.45726   0.66625   0.00000  Uiso   1.00
O1223  O     0.12687   0.53979   0.83749   0.00000  Uiso   1.00
O1224  O     0.21088   0.50826   0.65877   0.00000  Uiso   1.00
O1225  O     0.17198   0.49468   0.83749   0.00000  Uiso   1.00
O1226  O     0.17849   0.41434   0.77820   0.00000  Uiso   1.00
O1227  O     0.14581   0.59469   0.76767   0.00000  Uiso   1.00
O1228  O     0.07452   0.46584   0.73607   0.00000  Uiso   1.00
O1229  O     0.26785   0.52512   0.71805   0.00000  Uiso   1.00
C1230  C     0.05299   0.49382   0.75820   0.00000  Uiso   1.00
C1231  C     0.28092   0.50669   0.74148   0.00000  Uiso   1.00
C1232  C     0.15579   0.38985   0.75952   0.00000  Uiso   1.00
C1233  C     0.17632   0.61087   0.74100   0.00000  Uiso   1.00
C1234  C     0.18813   0.47859   0.64409   0.00000  Uiso   1.00
C1235  C     0.14463   0.52041   0.85667   0.00000  Uiso   1.00
C1236  C     0.12921   0.52371   0.90088   0.00000  Uiso   1.00
C1237  C     0.19643   0.46910   0.60157   0.00000  Uiso   1.00
C1238  C     0.07557   0.54237   0.96325   0.00000  Uiso   1.00
C1239  C     0.08928   0.53919   0.92152   0.00000  Uiso   1.00
C1240  C     0.15369   0.51033   0.92295   0.00000  Uiso   1.00
C1241  C     0.13476   0.50384   0.96329   0.00000  Uiso   1.00
C1242  C     0.09660   0.52212   0.98445   0.00000  Uiso   1.00
C1243  C     0.15436   0.48083   0.98330   0.00000  Uiso   1.00
C1244  C     0.14447   0.48605   0.52472   0.00000  Uiso   1.00
C1245  C     0.10495   0.50187   0.54608   0.00000  Uiso   1.00
C1246  C     0.08053   0.51888   0.52593   0.00000  Uiso   1.00
C1247  C     0.18055   0.44964   0.96294   0.00000  Uiso   1.00
C1248  C     0.20388   0.43008   0.98145   0.00000  Uiso   1.00
C1249  C     0.20191   0.44238   0.52166   0.00000  Uiso   1.00
C1250  C     0.17254   0.47156   0.54313   0.00000  Uiso   1.00
C1251  C     0.22714   0.42586   0.54170   0.00000  Uiso   1.00
C1252  C     0.22298   0.43860   0.58177   0.00000  Uiso   1.00
C1253  C     0.17282   0.48646   0.58211   0.00000  Uiso   1.00
H1254  H     0.15476   0.51184   0.59802   0.00000  Uiso   1.00
H1255  H     0.24062   0.42464   0.59749   0.00000  Uiso   1.00
H1256  H     0.18114   0.43854   0.93274   0.00000  Uiso   1.00
C1257  C     0.32661   0.50760   0.73785   0.00000  Uiso   1.00
H1258  H     0.01607   0.52169   0.71301   0.00000  Uiso   1.00
C1259  C     0.00751   0.49067   0.76362   0.00000  Uiso   1.00
C1260  C     0.17813   0.65488   0.73592   0.00000  Uiso   1.00
C1261  C     0.15280   0.34648   0.76423   0.00000  Uiso   1.00
C1262  C     0.03662   0.52924   0.54829   0.00000  Uiso   1.00
O1263  O     0.03185   0.55765   0.57493   0.00000  Uiso   1.00
O1264  O     0.00083   0.50667   0.53841   0.00000  Uiso   1.00
H1265  H     0.30596   0.51648   0.55563   0.00000  Uiso   1.00
N1266  N     0.25551   0.39531   0.52255   0.00000  Uiso   1.00
H1267  H     0.25069   0.36972   0.53802   0.00000  Uiso   1.00
C1268  C     0.30043   0.41139   0.51095   0.00000  Uiso   1.00
H1269  H     0.31967   0.38658   0.99278   0.00000  Uiso   1.00
H1270  H     0.31225   0.42174   0.53749   0.00000  Uiso   1.00
H1271  H     0.30511   0.43787   0.99306   0.00000  Uiso   1.00
N1272  N     0.31273   0.47561   0.79886   0.00000  Uiso   1.00
H1273  H     0.30242   0.49940   0.82030   0.00000  Uiso   1.00
C1274  C     0.32578   0.44163   0.81349   0.00000  Uiso   1.00
H1275  H     0.29883   0.42935   0.83751   0.00000  Uiso   1.00
H1276  H     0.02058   0.45245   0.82538   0.00000  Uiso   1.00
H1277  H     0.00068   0.41600   0.78950   0.00000  Uiso   1.00
C1278  C     0.20733   0.33690   0.69855   0.00000  Uiso   1.00
O1279  O     0.21246   0.64745   0.66758   0.00000  Uiso   1.00
O1280  O     0.22950   0.37677   0.69877   0.00000  Uiso   1.00
H1281  H     0.24804   0.38323   0.67160   0.00000  Uiso   1.00
N1282  N     0.12916   0.66618   0.80186   0.00000  Uiso   1.00
H1283  H     0.14830   0.65923   0.81830   0.00000  Uiso   1.00
C1284  C     0.09271   0.35454   0.82477   0.00000  Uiso   1.00
H1285  H     0.07445   0.33707   0.85016   0.00000  Uiso   1.00
H1286  H     0.07084   0.35671   0.80634   0.00000  Uiso   1.00
H1287  H     0.10382   0.38618   0.83638   0.00000  Uiso   1.00
N1288  N     0.22808   0.39731   0.95963   0.00000  Uiso   1.00
H1289  H     0.20888   0.37104   0.95300   0.00000  Uiso   1.00
C1290  C     0.26268   0.40886   0.92574   0.00000  Uiso   1.00
H1291  H     0.28433   0.38378   0.91577   0.00000  Uiso   1.00
H1292  H     0.28184   0.43806   0.93341   0.00000  Uiso   1.00
H1293  H     0.24953   0.41299   0.90108   0.00000  Uiso   1.00
N1294  N     0.04116   0.56665   0.98371   0.00000  Uiso   1.00
H1295  H     0.01552   0.56359   0.97162   0.00000  Uiso   1.00
C1296  C     0.05491   0.60937   0.99536   0.00000  Uiso   1.00
H1297  H     0.02655   0.62511   0.51343   0.00000  Uiso   1.00
H1298  H     0.07051   0.62617   0.96889   0.00000  Uiso   1.00
H1299  H     0.07796   0.61073   0.51340   0.00000  Uiso   1.00
C1300  C     0.06122   0.55250   0.90020   0.00000  Uiso   1.00
O1301  O     0.05943   0.58948   0.89925   0.00000  Uiso   1.00
O1302  O     0.03702   0.52249   0.88110   0.00000  Uiso   1.00
H1303  H     0.01918   0.53519   0.86745   0.00000  Uiso   1.00
C1304  C     0.20130   0.51301   0.90738   0.00000  Uiso   1.00
O1305  O     0.22324   0.54221   0.91990   0.00000  Uiso   1.00
O1306  O     0.22108   0.48151   0.88052   0.00000  Uiso   1.00
H1307  H     0.25330   0.48477   0.87658   0.00000  Uiso   1.00
N1308  N     0.08623   0.49387   0.58631   0.00000  Uiso   1.00
H1309  H     0.07029   0.51724   0.60477   0.00000  Uiso   1.00
C1310  C     0.06352   0.45288   0.59172   0.00000  Uiso   1.00
H1311  H     0.05287   0.44862   0.62368   0.00000  Uiso   1.00
H1312  H     0.08496   0.42859   0.57625   0.00000  Uiso   1.00
H1313  H     0.03477   0.44912   0.58019   0.00000  Uiso   1.00
Zn1314 Zn    0.52577   0.47423   0.78277   0.00000  Uiso   1.00
Zn1315 Zn    0.46792   0.45711   0.72257   0.00000  Uiso   1.00
Zn1316 Zn    0.54500   0.52997   0.71188   0.00000  Uiso   1.00
Zn1317 Zn    0.46131   0.53868   0.78277   0.00000  Uiso   1.00
O1318  O     0.50000   0.50000   0.75000   0.00000  Uiso   1.00
O1319  O     0.40323   0.52293   0.77820   0.00000  Uiso   1.00
O1320  O     0.58773   0.48610   0.76767   0.00000  Uiso   1.00
O1321  O     0.47133   0.40236   0.73607   0.00000  Uiso   1.00
O1322  O     0.53771   0.58860   0.71805   0.00000  Uiso   1.00
O1323  O     0.49027   0.45726   0.66625   0.00000  Uiso   1.00
O1324  O     0.46020   0.53979   0.83749   0.00000  Uiso   1.00
O1325  O     0.54421   0.50826   0.65877   0.00000  Uiso   1.00
O1326  O     0.50532   0.49468   0.83749   0.00000  Uiso   1.00
O1327  O     0.51182   0.41434   0.77820   0.00000  Uiso   1.00
O1328  O     0.47914   0.59469   0.76767   0.00000  Uiso   1.00
O1329  O     0.40785   0.46584   0.73607   0.00000  Uiso   1.00
O1330  O     0.60119   0.52512   0.71805   0.00000  Uiso   1.00
C1331  C     0.38633   0.49382   0.75820   0.00000  Uiso   1.00
C1332  C     0.61425   0.50669   0.74148   0.00000  Uiso   1.00
C1333  C     0.48913   0.38985   0.75952   0.00000  Uiso   1.00
C1334  C     0.50965   0.61087   0.74100   0.00000  Uiso   1.00
C1335  C     0.52146   0.47859   0.64409   0.00000  Uiso   1.00
C1336  C     0.47796   0.52041   0.85667   0.00000  Uiso   1.00
C1337  C     0.46254   0.52371   0.90088   0.00000  Uiso   1.00
C1338  C     0.52976   0.46910   0.60157   0.00000  Uiso   1.00
C1339  C     0.40890   0.54237   0.96325   0.00000  Uiso   1.00
C1340  C     0.42262   0.53919   0.92152   0.00000  Uiso   1.00
C1341  C     0.48702   0.51033   0.92295   0.00000  Uiso   1.00
C1342  C     0.46809   0.50384   0.96329   0.00000  Uiso   1.00
C1343  C     0.42994   0.52212   0.98445   0.00000  Uiso   1.00
C1344  C     0.48769   0.48083   0.98330   0.00000  Uiso   1.00
C1345  C     0.47780   0.48605   0.52472   0.00000  Uiso   1.00
C1346  C     0.43828   0.50187   0.54608   0.00000  Uiso   1.00
C1347  C     0.41386   0.51888   0.52593   0.00000  Uiso   1.00
C1348  C     0.51389   0.44964   0.96294   0.00000  Uiso   1.00
C1349  C     0.53721   0.43008   0.98145   0.00000  Uiso   1.00
C1350  C     0.53525   0.44238   0.52166   0.00000  Uiso   1.00
C1351  C     0.50588   0.47156   0.54313   0.00000  Uiso   1.00
C1352  C     0.56047   0.42586   0.54170   0.00000  Uiso   1.00
C1353  C     0.55631   0.43860   0.58177   0.00000  Uiso   1.00
C1354  C     0.50615   0.48646   0.58211   0.00000  Uiso   1.00
H1355  H     0.48810   0.51184   0.59802   0.00000  Uiso   1.00
H1356  H     0.57396   0.42464   0.59749   0.00000  Uiso   1.00
H1357  H     0.51448   0.43854   0.93274   0.00000  Uiso   1.00
C1358  C     0.65994   0.50760   0.73785   0.00000  Uiso   1.00
H1359  H     0.34941   0.52169   0.71301   0.00000  Uiso   1.00
C1360  C     0.34084   0.49067   0.76362   0.00000  Uiso   1.00
C1361  C     0.51146   0.65488   0.73592   0.00000  Uiso   1.00
C1362  C     0.48613   0.34648   0.76423   0.00000  Uiso   1.00
C1363  C     0.36995   0.52924   0.54829   0.00000  Uiso   1.00
O1364  O     0.36518   0.55765   0.57493   0.00000  Uiso   1.00
O1365  O     0.33416   0.50667   0.53841   0.00000  Uiso   1.00
H1366  H     0.63930   0.51648   0.55563   0.00000  Uiso   1.00
N1367  N     0.58884   0.39531   0.52255   0.00000  Uiso   1.00
H1368  H     0.58402   0.36972   0.53802   0.00000  Uiso   1.00
C1369  C     0.63377   0.41139   0.51095   0.00000  Uiso   1.00
H1370  H     0.65301   0.38658   0.99278   0.00000  Uiso   1.00
H1371  H     0.64559   0.42174   0.53749   0.00000  Uiso   1.00
H1372  H     0.63844   0.43787   0.99306   0.00000  Uiso   1.00
N1373  N     0.64606   0.47561   0.79886   0.00000  Uiso   1.00
H1374  H     0.63575   0.49940   0.82030   0.00000  Uiso   1.00
C1375  C     0.65912   0.44163   0.81349   0.00000  Uiso   1.00
H1376  H     0.63217   0.42935   0.83751   0.00000  Uiso   1.00
H1377  H     0.35392   0.45245   0.82538   0.00000  Uiso   1.00
H1378  H     0.33401   0.41600   0.78950   0.00000  Uiso   1.00
C1379  C     0.54067   0.33690   0.69855   0.00000  Uiso   1.00
O1380  O     0.54580   0.64745   0.66758   0.00000  Uiso   1.00
O1381  O     0.56283   0.37677   0.69877   0.00000  Uiso   1.00
H1382  H     0.58137   0.38323   0.67160   0.00000  Uiso   1.00
N1383  N     0.46250   0.66618   0.80186   0.00000  Uiso   1.00
H1384  H     0.48164   0.65923   0.81830   0.00000  Uiso   1.00
C1385  C     0.42605   0.35454   0.82477   0.00000  Uiso   1.00
H1386  H     0.40778   0.33707   0.85016   0.00000  Uiso   1.00
H1387  H     0.40417   0.35671   0.80634   0.00000  Uiso   1.00
H1388  H     0.43716   0.38618   0.83638   0.00000  Uiso   1.00
N1389  N     0.56141   0.39731   0.95963   0.00000  Uiso   1.00
H1390  H     0.54222   0.37104   0.95300   0.00000  Uiso   1.00
C1391  C     0.59602   0.40886   0.92574   0.00000  Uiso   1.00
H1392  H     0.61767   0.38378   0.91577   0.00000  Uiso   1.00
H1393  H     0.61517   0.43806   0.93341   0.00000  Uiso   1.00
H1394  H     0.58287   0.41299   0.90108   0.00000  Uiso   1.00
N1395  N     0.37450   0.56665   0.98371   0.00000  Uiso   1.00
H1396  H     0.34886   0.56359   0.97162   0.00000  Uiso   1.00
C1397  C     0.38824   0.60937   0.99536   0.00000  Uiso   1.00
H1398  H     0.35988   0.62511   0.51343   0.00000  Uiso   1.00
H1399  H     0.40385   0.62617   0.96889   0.00000  Uiso   1.00
H1400  H     0.41129   0.61073   0.51340   0.00000  Uiso   1.00
C1401  C     0.39455   0.55250   0.90020   0.00000  Uiso   1.00
O1402  O     0.39276   0.58948   0.89925   0.00000  Uiso   1.00
O1403  O     0.37035   0.52249   0.88110   0.00000  Uiso   1.00
H1404  H     0.35251   0.53519   0.86745   0.00000  Uiso   1.00
C1405  C     0.53463   0.51301   0.90738   0.00000  Uiso   1.00
O1406  O     0.55657   0.54221   0.91990   0.00000  Uiso   1.00
O1407  O     0.55442   0.48151   0.88052   0.00000  Uiso   1.00
H1408  H     0.58663   0.48477   0.87658   0.00000  Uiso   1.00
N1409  N     0.41956   0.49387   0.58631   0.00000  Uiso   1.00
H1410  H     0.40362   0.51724   0.60477   0.00000  Uiso   1.00
C1411  C     0.39685   0.45288   0.59172   0.00000  Uiso   1.00
H1412  H     0.38620   0.44862   0.62368   0.00000  Uiso   1.00
H1413  H     0.41830   0.42859   0.57625   0.00000  Uiso   1.00
H1414  H     0.36810   0.44912   0.58019   0.00000  Uiso   1.00
Zn1415 Zn    0.85910   0.47423   0.78277   0.00000  Uiso   1.00
Zn1416 Zn    0.80125   0.45711   0.72257   0.00000  Uiso   1.00
Zn1417 Zn    0.87833   0.52997   0.71188   0.00000  Uiso   1.00
Zn1418 Zn    0.79465   0.53868   0.78277   0.00000  Uiso   1.00
O1419  O     0.83333   0.50000   0.75000   0.00000  Uiso   1.00
O1420  O     0.73656   0.52293   0.77820   0.00000  Uiso   1.00
O1421  O     0.92106   0.48610   0.76767   0.00000  Uiso   1.00
O1422  O     0.80467   0.40236   0.73607   0.00000  Uiso   1.00
O1423  O     0.87104   0.58860   0.71805   0.00000  Uiso   1.00
O1424  O     0.82360   0.45726   0.66625   0.00000  Uiso   1.00
O1425  O     0.79354   0.53979   0.83749   0.00000  Uiso   1.00
O1426  O     0.87755   0.50826   0.65877   0.00000  Uiso   1.00
O1427  O     0.83865   0.49468   0.83749   0.00000  Uiso   1.00
O1428  O     0.84515   0.41434   0.77820   0.00000  Uiso   1.00
O1429  O     0.81247   0.59469   0.76767   0.00000  Uiso   1.00
O1430  O     0.74119   0.46584   0.73607   0.00000  Uiso   1.00
O1431  O     0.93452   0.52512   0.71805   0.00000  Uiso   1.00
C1432  C     0.71966   0.49382   0.75820   0.00000  Uiso   1.00
C1433  C     0.94759   0.50669   0.74148   0.00000  Uiso   1.00
C1434  C     0.82246   0.38985   0.75952   0.00000  Uiso   1.00
C1435  C     0.84299   0.61087   0.74100   0.00000  Uiso   1.00
C1436  C     0.85480   0.47859   0.64409   0.00000  Uiso   1.00
C1437  C     0.81130   0.52041   0.85667   0.00000  Uiso   1.00
C1438  C     0.79588   0.52371   0.90088   0.00000  Uiso   1.00
C1439  C     0.86310   0.46910   0.60157   0.00000  Uiso   1.00
C1440  C     0.74223   0.54237   0.96325   0.00000  Uiso   1.00
C1441  C     0.75595   0.53919   0.92152   0.00000  Uiso   1.00
C1442  C     0.82035   0.51033   0.92295   0.00000  Uiso   1.00
C1443  C     0.80143   0.50384   0.96329   0.00000  Uiso   1.00
C1444  C     0.76327   0.52212   0.98445   0.00000  Uiso   1.00
C1445  C     0.82103   0.48083   0.98330   0.00000  Uiso   1.00
C1446  C     0.81114   0.48605   0.52472   0.00000  Uiso   1.00
C1447  C     0.77162   0.50187   0.54608   0.00000  Uiso   1.00
C1448  C     0.74719   0.51888   0.52593   0.00000  Uiso   1.00
C1449  C     0.84722   0.44964   0.96294   0.00000  Uiso   1.00
C1450  C     0.87055   0.43008   0.98145   0.00000  Uiso   1.00
C1451  C     0.86858   0.44238   0.52166   0.00000  Uiso   1.00
C1452  C     0.83921   0.47156   0.54313   0.00000  Uiso   1.00
C1453  C     0.89381   0.42586   0.54170   0.00000  Uiso   1.00
C1454  C     0.88964   0.43860   0.58177   0.00000  Uiso   1.00
C1455  C     0.83949   0.48646   0.58211   0.00000  Uiso   1.00
H1456  H     0.82143   0.51184   0.59802   0.00000  Uiso   1.00
H1457  H     0.90729   0.42464   0.59749   0.00000  Uiso   1.00
H1458  H     0.84781   0.43854   0.93274   0.00000  Uiso   1.00
C1459  C     0.99328   0.50760   0.73785   0.00000  Uiso   1.00
H1460  H     0.68274   0.52169   0.71301   0.00000  Uiso   1.00
C1461  C     0.67418   0.49067   0.76362   0.00000  Uiso   1.00
C1462  C     0.84480   0.65488   0.73592   0.00000  Uiso   1.00
C1463  C     0.81946   0.34648   0.76423   0.00000  Uiso   1.00
C1464  C     0.70328   0.52924   0.54829   0.00000  Uiso   1.00
O1465  O     0.69851   0.55765   0.57493   0.00000  Uiso   1.00
O1466  O     0.66749   0.50667   0.53841   0.00000  Uiso   1.00
H1467  H     0.97263   0.51648   0.55563   0.00000  Uiso   1.00
N1468  N     0.92218   0.39531   0.52255   0.00000  Uiso   1.00
H1469  H     0.91736   0.36972   0.53802   0.00000  Uiso   1.00
C1470  C     0.96710   0.41139   0.51095   0.00000  Uiso   1.00
H1471  H     0.98634   0.38658   0.99278   0.00000  Uiso   1.00
H1472  H     0.97892   0.42174   0.53749   0.00000  Uiso   1.00
H1473  H     0.97178   0.43787   0.99306   0.00000  Uiso   1.00
N1474  N     0.97939   0.47561   0.79886   0.00000  Uiso   1.00
H1475  H     0.96909   0.49940   0.82030   0.00000  Uiso   1.00
C1476  C     0.99245   0.44163   0.81349   0.00000  Uiso   1.00
H1477  H     0.96550   0.42935   0.83751   0.00000  Uiso   1.00
H1478  H     0.68725   0.45245   0.82538   0.00000  Uiso   1.00
H1479  H     0.66735   0.41600   0.78950   0.00000  Uiso   1.00
C1480  C     0.87400   0.33690   0.69855   0.00000  Uiso   1.00
O1481  O     0.87913   0.64745   0.66758   0.00000  Uiso   1.00
O1482  O     0.89617   0.37677   0.69877   0.00000  Uiso   1.00
H1483  H     0.91470   0.38323   0.67160   0.00000  Uiso   1.00
N1484  N     0.79583   0.66618   0.80186   0.00000  Uiso   1.00
H1485  H     0.81497   0.65923   0.81830   0.00000  Uiso   1.00
C1486  C     0.75938   0.35454   0.82477   0.00000  Uiso   1.00
H1487  H     0.74111   0.33707   0.85016   0.00000  Uiso   1.00
H1488  H     0.73751   0.35671   0.80634   0.00000  Uiso   1.00
H1489  H     0.77049   0.38618   0.83638   0.00000  Uiso   1.00
N1490  N     0.89474   0.39731   0.95963   0.00000  Uiso   1.00
H1491  H     0.87555   0.37104   0.95300   0.00000  Uiso   1.00
C1492  C     0.92935   0.40886   0.92574   0.00000  Uiso   1.00
H1493  H     0.95100   0.38378   0.91577   0.00000  Uiso   1.00
H1494  H     0.94851   0.43806   0.93341   0.00000  Uiso   1.00
H1495  H     0.91620   0.41299   0.90108   0.00000  Uiso   1.00
N1496  N     0.70783   0.56665   0.98371   0.00000  Uiso   1.00
H1497  H     0.68219   0.56359   0.97162   0.00000  Uiso   1.00
C1498  C     0.72158   0.60937   0.99536   0.00000  Uiso   1.00
H1499  H     0.69321   0.62511   0.51343   0.00000  Uiso   1.00
H1500  H     0.73718   0.62617   0.96889   0.00000  Uiso   1.00
H1501  H     0.74462   0.61073   0.51340   0.00000  Uiso   1.00
C1502  C     0.72789   0.55250   0.90020   0.00000  Uiso   1.00
O1503  O     0.72610   0.58948   0.89925   0.00000  Uiso   1.00
O1504  O     0.70369   0.52249   0.88110   0.00000  Uiso   1.00
H1505  H     0.68585   0.53519   0.86745   0.00000  Uiso   1.00
C1506  C     0.86797   0.51301   0.90738   0.00000  Uiso   1.00
O1507  O     0.88990   0.54221   0.91990   0.00000  Uiso   1.00
O1508  O     0.88775   0.48151   0.88052   0.00000  Uiso   1.00
H1509  H     0.91997   0.48477   0.87658   0.00000  Uiso   1.00
N1510  N     0.75290   0.49387   0.58631   0.00000  Uiso   1.00
H1511  H     0.73696   0.51724   0.60477   0.00000  Uiso   1.00
C1512  C     0.73019   0.45288   0.59172   0.00000  Uiso   1.00
H1513  H     0.71953   0.44862   0.62368   0.00000  Uiso   1.00
H1514  H     0.75163   0.42859   0.57625   0.00000  Uiso   1.00
H1515  H     0.70143   0.44912   0.58019   0.00000  Uiso   1.00
Zn1516 Zn    0.19244   0.80756   0.78277   0.00000  Uiso   1.00
Zn1517 Zn    0.13459   0.79044   0.72257   0.00000  Uiso   1.00
Zn1518 Zn    0.21166   0.86331   0.71188   0.00000  Uiso   1.00
Zn1519 Zn    0.12798   0.87202   0.78277   0.00000  Uiso   1.00
O1520  O     0.16667   0.83333   0.75000   0.00000  Uiso   1.00
O1521  O     0.06990   0.85627   0.77820   0.00000  Uiso   1.00
O1522  O     0.25440   0.81944   0.76767   0.00000  Uiso   1.00
O1523  O     0.13800   0.73570   0.73607   0.00000  Uiso   1.00
O1524  O     0.20437   0.92193   0.71805   0.00000  Uiso   1.00
O1525  O     0.15693   0.79060   0.66625   0.00000  Uiso   1.00
O1526  O     0.12687   0.87313   0.83749   0.00000  Uiso   1.00
O1527  O     0.21088   0.84159   0.65877   0.00000  Uiso   1.00
O1528  O     0.17198   0.82802   0.83749   0.00000  Uiso   1.00
O1529  O     0.17849   0.74768   0.77820   0.00000  Uiso   1.00
O1530  O     0.14581   0.92803   0.76767   0.00000  Uiso   1.00
O1531  O     0.07452   0.79917   0.73607   0.00000  Uiso   1.00
O1532  O     0.26785   0.85845   0.71805   0.00000  Uiso   1.00
C1533  C     0.05299   0.82715   0.75820   0.00000  Uiso   1.00
C1534  C     0.28092   0.84002   0.74148   0.00000  Uiso   1.00
C1535  C     0.15579   0.72319   0.75952   0.00000  Uiso   1.00
C1536  C     0.17632   0.94420   0.74100   0.00000  Uiso   1.00
C1537  C     0.18813   0.81192   0.64409   0.00000  Uiso   1.00
C1538  C     0.14463   0.85374   0.85667   0.00000  Uiso   1.00
C1539  C     0.12921   0.85705   0.90088   0.00000  Uiso   1.00
C1540  C     0.19643   0.80243   0.60157   0.00000  Uiso   1.00
C1541  C     0.07557   0.87570   0.96325   0.00000  Uiso   1.00
C1542  C     0.08928   0.87252   0.92152   0.00000  Uiso   1.00
C1543  C     0.15369   0.84366   0.92295   0.00000  Uiso   1.00
C1544  C     0.13476   0.83717   0.96329   0.00000  Uiso   1.00
C1545  C     0.09660   0.85546   0.98445   0.00000  Uiso   1.00
C1546  C     0.15436   0.81417   0.98330   0.00000  Uiso   1.00
C1547  C     0.14447   0.81938   0.52472   0.00000  Uiso   1.00
C1548  C     0.10495   0.83520   0.54608   0.00000  Uiso   1.00
C1549  C     0.08053   0.85221   0.52593   0.00000  Uiso   1.00
C1550  C     0.18055   0.78297   0.96294   0.00000  Uiso   1.00
C1551  C     0.20388   0.76341   0.98145   0.00000  Uiso   1.00
C1552  C     0.20191   0.77571   0.52166   0.00000  Uiso   1.00
C1553  C     0.17254   0.80489   0.54313   0.00000  Uiso   1.00
C1554  C     0.22714   0.75919   0.54170   0.00000  Uiso   1.00
C1555  C     0.22298   0.77194   0.58177   0.00000  Uiso   1.00
C1556  C     0.17282   0.81980   0.58211   0.00000  Uiso   1.00
H1557  H     0.15476   0.84517   0.59802   0.00000  Uiso   1.00
H1558  H     0.24062   0.75797   0.59749   0.00000  Uiso   1.00
H1559  H     0.18114   0.77187   0.93274   0.00000  Uiso   1.00
C1560  C     0.32661   0.84093   0.73785   0.00000  Uiso   1.00
H1561  H     0.01607   0.85502   0.71301   0.00000  Uiso   1.00
C1562  C     0.00751   0.82401   0.76362   0.00000  Uiso   1.00
C1563  C     0.17813   0.98821   0.73592   0.00000  Uiso   1.00
C1564  C     0.15280   0.67981   0.76423   0.00000  Uiso   1.00
C1565  C     0.03662   0.86258   0.54829   0.00000  Uiso   1.00
O1566  O     0.03185   0.89098   0.57493   0.00000  Uiso   1.00
O1567  O     0.00083   0.84000   0.53841   0.00000  Uiso   1.00
H1568  H     0.30596   0.84982   0.55563   0.00000  Uiso   1.00
N1569  N     0.25551   0.72864   0.52255   0.00000  Uiso   1.00
H1570  H     0.25069   0.70305   0.53802   0.00000  Uiso   1.00
C1571  C     0.30043   0.74472   0.51095   0.00000  Uiso   1.00
H1572  H     0.31967   0.71991   0.99278   0.00000  Uiso   1.00
H1573  H     0.31225   0.75507   0.53749   0.00000  Uiso   1.00
H1574  H     0.30511   0.77120   0.99306   0.00000  Uiso   1.00
N1575  N     0.31273   0.80895   0.79886   0.00000  Uiso   1.00
H1576  H     0.30242   0.83274   0.82030   0.00000  Uiso   1.00
C1577  C     0.32578   0.77496   0.81349   0.00000  Uiso   1.00
H1578  H     0.29883   0.76269   0.83751   0.00000  Uiso   1.00
H1579  H     0.02058   0.78578   0.82538   0.00000  Uiso   1.00
H1580  H     0.00068   0.74933   0.78950   0.00000  Uiso   1.00
C1581  C     0.20733   0.67024   0.69855   0.00000  Uiso   1.00
O1582  O     0.21246   0.98079   0.66758   0.00000  Uiso   1.00
O1583  O     0.22950   0.71011   0.69877   0.00000  Uiso   1.00
H1584  H     0.24804   0.71656   0.67160   0.00000  Uiso   1.00
N1585  N     0.12916   0.99951   0.80186   0.00000  Uiso   1.00
H1586  H     0.14830   0.99256   0.81830   0.00000  Uiso   1.00
C1587  C     0.09271   0.68787   0.82477   0.00000  Uiso   1.00
H1588  H     0.07445   0.67040   0.85016   0.00000  Uiso   1.00
H1589  H     0.07084   0.69004   0.80634   0.00000  Uiso   1.00
H1590  H     0.10382   0.71952   0.83638   0.00000  Uiso   1.00
N1591  N     0.22808   0.73065   0.95963   0.00000  Uiso   1.00
H1592  H     0.20888   0.70437   0.95300   0.00000  Uiso   1.00
C1593  C     0.26268   0.74220   0.92574   0.00000  Uiso   1.00
H1594  H     0.28433   0.71712   0.91577   0.00000  Uiso   1.00
H1595  H     0.28184   0.77140   0.93341   0.00000  Uiso   1.00
H1596  H     0.24953   0.74632   0.90108   0.00000  Uiso   1.00
N1597  N     0.04116   0.89998   0.98371   0.00000  Uiso   1.00
H1598  H     0.01552   0.89692   0.97162   0.00000  Uiso   1.00
C1599  C     0.05491   0.94271   0.99536   0.00000  Uiso   1.00
H1600  H     0.02655   0.95844   0.51343   0.00000  Uiso   1.00
H1601  H     0.07051   0.95951   0.96889   0.00000  Uiso   1.00
H1602  H     0.07796   0.94406   0.51340   0.00000  Uiso   1.00
C1603  C     0.06122   0.88583   0.90020   0.00000  Uiso   1.00
O1604  O     0.05943   0.92282   0.89925   0.00000  Uiso   1.00
O1605  O     0.03702   0.85582   0.88110   0.00000  Uiso   1.00
H1606  H     0.01918   0.86853   0.86745   0.00000  Uiso   1.00
C1607  C     0.20130   0.84635   0.90738   0.00000  Uiso   1.00
O1608  O     0.22324   0.87554   0.91990   0.00000  Uiso   1.00
O1609  O     0.22108   0.81485   0.88052   0.00000  Uiso   1.00
H1610  H     0.25330   0.81810   0.87658   0.00000  Uiso   1.00
N1611  N     0.08623   0.82721   0.58631   0.00000  Uiso   1.00
H1612  H     0.07029   0.85057   0.60477   0.00000  Uiso   1.00
C1613  C     0.06352   0.78621   0.59172   0.00000  Uiso   1.00
H1614  H     0.05287   0.78195   0.62368   0.00000  Uiso   1.00
H1615  H     0.08496   0.76192   0.57625   0.00000  Uiso   1.00
H1616  H     0.03477   0.78246   0.58019   0.00000  Uiso   1.00
Zn1617 Zn    0.52577   0.80756   0.78277   0.00000  Uiso   1.00
Zn1618 Zn    0.46792   0.79044   0.72257   0.00000  Uiso   1.00
Zn1619 Zn    0.54500   0.86331   0.71188   0.00000  Uiso   1.00
Zn1620 Zn    0.46131   0.87202   0.78277   0.00000  Uiso   1.00
O1621  O     0.50000   0.83333   0.75000   0.00000  Uiso   1.00
O1622  O     0.40323   0.85627   0.77820   0.00000  Uiso   1.00
O1623  O     0.58773   0.81944   0.76767   0.00000  Uiso   1.00
O1624  O     0.47133   0.73570   0.73607   0.00000  Uiso   1.00
O1625  O     0.53771   0.92193   0.71805   0.00000  Uiso   1.00
O1626  O     0.49027   0.79060   0.66625   0.00000  Uiso   1.00
O1627  O     0.46020   0.87313   0.83749   0.00000  Uiso   1.00
O1628  O     0.54421   0.84159   0.65877   0.00000  Uiso   1.00
O1629  O     0.50532   0.82802   0.83749   0.00000  Uiso   1.00
O1630  O     0.51182   0.74768   0.77820   0.00000  Uiso   1.00
O1631  O     0.47914   0.92803   0.76767   0.00000  Uiso   1.00
O1632  O     0.40785   0.79917   0.73607   0.00000  Uiso   1.00
O1633  O     0.60119   0.85845   0.71805   0.00000  Uiso   1.00
C1634  C     0.38633   0.82715   0.75820   0.00000  Uiso   1.00
C1635  C     0.61425   0.84002   0.74148   0.00000  Uiso   1.00
C1636  C     0.48913   0.72319   0.75952   0.00000  Uiso   1.00
C1637  C     0.50965   0.94420   0.74100   0.00000  Uiso   1.00
C1638  C     0.52146   0.81192   0.64409   0.00000  Uiso   1.00
C1639  C     0.47796   0.85374   0.85667   0.00000  Uiso   1.00
C1640  C     0.46254   0.85705   0.90088   0.00000  Uiso   1.00
C1641  C     0.52976   0.80243   0.60157   0.00000  Uiso   1.00
C1642  C     0.40890   0.87570   0.96325   0.00000  Uiso   1.00
C1643  C     0.42262   0.87252   0.92152   0.00000  Uiso   1.00
C1644  C     0.48702   0.84366   0.92295   0.00000  Uiso   1.00
C1645  C     0.46809   0.83717   0.96329   0.00000  Uiso   1.00
C1646  C     0.42994   0.85546   0.98445   0.00000  Uiso   1.00
C1647  C     0.48769   0.81417   0.98330   0.00000  Uiso   1.00
C1648  C     0.47780   0.81938   0.52472   0.00000  Uiso   1.00
C1649  C     0.43828   0.83520   0.54608   0.00000  Uiso   1.00
C1650  C     0.41386   0.85221   0.52593   0.00000  Uiso   1.00
C1651  C     0.51389   0.78297   0.96294   0.00000  Uiso   1.00
C1652  C     0.53721   0.76341   0.98145   0.00000  Uiso   1.00
C1653  C     0.53525   0.77571   0.52166   0.00000  Uiso   1.00
C1654  C     0.50588   0.80489   0.54313   0.00000  Uiso   1.00
C1655  C     0.56047   0.75919   0.54170   0.00000  Uiso   1.00
C1656  C     0.55631   0.77194   0.58177   0.00000  Uiso   1.00
C1657  C     0.50615   0.81980   0.58211   0.00000  Uiso   1.00
H1658  H     0.48810   0.84517   0.59802   0.00000  Uiso   1.00
H1659  H     0.57396   0.75797   0.59749   0.00000  Uiso   1.00
H1660  H     0.51448   0.77187   0.93274   0.00000  Uiso   1.00
C1661  C     0.65994   0.84093   0.73785   0.00000  Uiso   1.00
H1662  H     0.34941   0.85502   0.71301   0.00000  Uiso   1.00
C1663  C     0.34084   0.82401   0.76362   0.00000  Uiso   1.00
C1664  C     0.51146   0.98821   0.73592   0.00000  Uiso   1.00
C1665  C     0.48613   0.67981   0.76423   0.00000  Uiso   1.00
C1666  C     0.36995   0.86258   0.54829   0.00000  Uiso   1.00
O1667  O     0.36518   0.89098   0.57493   0.00000  Uiso   1.00
O1668  O     0.33416   0.84000   0.53841   0.00000  Uiso   1.00
H1669  H     0.63930   0.84982   0.55563   0.00000  Uiso   1.00
N1670  N     0.58884   0.72864   0.52255   0.00000  Uiso   1.00
H1671  H     0.58402   0.70305   0.53802   0.00000  Uiso   1.00
C1672  C     0.63377   0.74472   0.51095   0.00000  Uiso   1.00
H1673  H     0.65301   0.71991   0.99278   0.00000  Uiso   1.00
H1674  H     0.64559   0.75507   0.53749   0.00000  Uiso   1.00
H1675  H     0.63844   0.77120   0.99306   0.00000  Uiso   1.00
N1676  N     0.64606   0.80895   0.79886   0.00000  Uiso   1.00
H1677  H     0.63575   0.83274   0.82030   0.00000  Uiso   1.00
C1678  C     0.65912   0.77496   0.81349   0.00000  Uiso   1.00
H1679  H     0.63217   0.76269   0.83751   0.00000  Uiso   1.00
H1680  H     0.35392   0.78578   0.82538   0.00000  Uiso   1.00
H1681  H     0.33401   0.74933   0.78950   0.00000  Uiso   1.00
C1682  C     0.54067   0.67024   0.69855   0.00000  Uiso   1.00
O1683  O     0.54580   0.98079   0.66758   0.00000  Uiso   1.00
O1684  O     0.56283   0.71011   0.69877   0.00000  Uiso   1.00
H1685  H     0.58137   0.71656   0.67160   0.00000  Uiso   1.00
N1686  N     0.46250   0.99951   0.80186   0.00000  Uiso   1.00
H1687  H     0.48164   0.99256   0.81830   0.00000  Uiso   1.00
C1688  C     0.42605   0.68787   0.82477   0.00000  Uiso   1.00
H1689  H     0.40778   0.67040   0.85016   0.00000  Uiso   1.00
H1690  H     0.40417   0.69004   0.80634   0.00000  Uiso   1.00
H1691  H     0.43716   0.71952   0.83638   0.00000  Uiso   1.00
N1692  N     0.56141   0.73065   0.95963   0.00000  Uiso   1.00
H1693  H     0.54222   0.70437   0.95300   0.00000  Uiso   1.00
C1694  C     0.59602   0.74220   0.92574   0.00000  Uiso   1.00
H1695  H     0.61767   0.71712   0.91577   0.00000  Uiso   1.00
H1696  H     0.61517   0.77140   0.93341   0.00000  Uiso   1.00
H1697  H     0.58287   0.74632   0.90108   0.00000  Uiso   1.00
N1698  N     0.37450   0.89998   0.98371   0.00000  Uiso   1.00
H1699  H     0.34886   0.89692   0.97162   0.00000  Uiso   1.00
C1700  C     0.38824   0.94271   0.99536   0.00000  Uiso   1.00
H1701  H     0.35988   0.95844   0.51343   0.00000  Uiso   1.00
H1702  H     0.40385   0.95951   0.96889   0.00000  Uiso   1.00
H1703  H     0.41129   0.94406   0.51340   0.00000  Uiso   1.00
C1704  C     0.39455   0.88583   0.90020   0.00000  Uiso   1.00
O1705  O     0.39276   0.92282   0.89925   0.00000  Uiso   1.00
O1706  O     0.37035   0.85582   0.88110   0.00000  Uiso   1.00
H1707  H     0.35251   0.86853   0.86745   0.00000  Uiso   1.00
C1708  C     0.53463   0.84635   0.90738   0.00000  Uiso   1.00
O1709  O     0.55657   0.87554   0.91990   0.00000  Uiso   1.00
O1710  O     0.55442   0.81485   0.88052   0.00000  Uiso   1.00
H1711  H     0.58663   0.81810   0.87658   0.00000  Uiso   1.00
N1712  N     0.41956   0.82721   0.58631   0.00000  Uiso   1.00
H1713  H     0.40362   0.85057   0.60477   0.00000  Uiso   1.00
C1714  C     0.39685   0.78621   0.59172   0.00000  Uiso   1.00
H1715  H     0.38620   0.78195   0.62368   0.00000  Uiso   1.00
H1716  H     0.41830   0.76192   0.57625   0.00000  Uiso   1.00
H1717  H     0.36810   0.78246   0.58019   0.00000  Uiso   1.00
Zn1718 Zn    0.85910   0.80756   0.78277   0.00000  Uiso   1.00
Zn1719 Zn    0.80125   0.79044   0.72257   0.00000  Uiso   1.00
Zn1720 Zn    0.87833   0.86331   0.71188   0.00000  Uiso   1.00
Zn1721 Zn    0.79465   0.87202   0.78277   0.00000  Uiso   1.00
O1722  O     0.83333   0.83333   0.75000   0.00000  Uiso   1.00
O1723  O     0.73656   0.85627   0.77820   0.00000  Uiso   1.00
O1724  O     0.92106   0.81944   0.76767   0.00000  Uiso   1.00
O1725  O     0.80467   0.73570   0.73607   0.00000  Uiso   1.00
O1726  O     0.87104   0.92193   0.71805   0.00000  Uiso   1.00
O1727  O     0.82360   0.79060   0.66625   0.00000  Uiso   1.00
O1728  O     0.79354   0.87313   0.83749   0.00000  Uiso   1.00
O1729  O     0.87755   0.84159   0.65877   0.00000  Uiso   1.00
O1730  O     0.83865   0.82802   0.83749   0.00000  Uiso   1.00
O1731  O     0.84515   0.74768   0.77820   0.00000  Uiso   1.00
O1732  O     0.81247   0.92803   0.76767   0.00000  Uiso   1.00
O1733  O     0.74119   0.79917   0.73607   0.00000  Uiso   1.00
O1734  O     0.93452   0.85845   0.71805   0.00000  Uiso   1.00
C1735  C     0.71966   0.82715   0.75820   0.00000  Uiso   1.00
C1736  C     0.94759   0.84002   0.74148   0.00000  Uiso   1.00
C1737  C     0.82246   0.72319   0.75952   0.00000  Uiso   1.00
C1738  C     0.84299   0.94420   0.74100   0.00000  Uiso   1.00
C1739  C     0.85480   0.81192   0.64409   0.00000  Uiso   1.00
C1740  C     0.81130   0.85374   0.85667   0.00000  Uiso   1.00
C1741  C     0.79588   0.85705   0.90088   0.00000  Uiso   1.00
C1742  C     0.86310   0.80243   0.60157   0.00000  Uiso   1.00
C1743  C     0.74223   0.87570   0.96325   0.00000  Uiso   1.00
C1744  C     0.75595   0.87252   0.92152   0.00000  Uiso   1.00
C1745  C     0.82035   0.84366   0.92295   0.00000  Uiso   1.00
C1746  C     0.80143   0.83717   0.96329   0.00000  Uiso   1.00
C1747  C     0.76327   0.85546   0.98445   0.00000  Uiso   1.00
C1748  C     0.82103   0.81417   0.98330   0.00000  Uiso   1.00
C1749  C     0.81114   0.81938   0.52472   0.00000  Uiso   1.00
C1750  C     0.77162   0.83520   0.54608   0.00000  Uiso   1.00
C1751  C     0.74719   0.85221   0.52593   0.00000  Uiso   1.00
C1752  C     0.84722   0.78297   0.96294   0.00000  Uiso   1.00
C1753  C     0.87055   0.76341   0.98145   0.00000  Uiso   1.00
C1754  C     0.86858   0.77571   0.52166   0.00000  Uiso   1.00
C1755  C     0.83921   0.80489   0.54313   0.00000  Uiso   1.00
C1756  C     0.89381   0.75919   0.54170   0.00000  Uiso   1.00
C1757  C     0.88964   0.77194   0.58177   0.00000  Uiso   1.00
C1758  C     0.83949   0.81980   0.58211   0.00000  Uiso   1.00
H1759  H     0.82143   0.84517   0.59802   0.00000  Uiso   1.00
H1760  H     0.90729   0.75797   0.59749   0.00000  Uiso   1.00
H1761  H     0.84781   0.77187   0.93274   0.00000  Uiso   1.00
C1762  C     0.99328   0.84093   0.73785   0.00000  Uiso   1.00
H1763  H     0.68274   0.85502   0.71301   0.00000  Uiso   1.00
C1764  C     0.67418   0.82401   0.76362   0.00000  Uiso   1.00
C1765  C     0.84480   0.98821   0.73592   0.00000  Uiso   1.00
C1766  C     0.81946   0.67981   0.76423   0.00000  Uiso   1.00
C1767  C     0.70328   0.86258   0.54829   0.00000  Uiso   1.00
O1768  O     0.69851   0.89098   0.57493   0.00000  Uiso   1.00
O1769  O     0.66749   0.84000   0.53841   0.00000  Uiso   1.00
H1770  H     0.97263   0.84982   0.55563   0.00000  Uiso   1.00
N1771  N     0.92218   0.72864   0.52255   0.00000  Uiso   1.00
H1772  H     0.91736   0.70305   0.53802   0.00000  Uiso   1.00
C1773  C     0.96710   0.74472   0.51095   0.00000  Uiso   1.00
H1774  H     0.98634   0.71991   0.99278   0.00000  Uiso   1.00
H1775  H     0.97892   0.75507   0.53749   0.00000  Uiso   1.00
H1776  H     0.97178   0.77120   0.99306   0.00000  Uiso   1.00
N1777  N     0.97939   0.80895   0.79886   0.00000  Uiso   1.00
H1778  H     0.96909   0.83274   0.82030   0.00000  Uiso   1.00
C1779  C     0.99245   0.77496   0.81349   0.00000  Uiso   1.00
H1780  H     0.96550   0.76269   0.83751   0.00000  Uiso   1.00
H1781  H     0.68725   0.78578   0.82538   0.00000  Uiso   1.00
H1782  H     0.66735   0.74933   0.78950   0.00000  Uiso   1.00
C1783  C     0.87400   0.67024   0.69855   0.00000  Uiso   1.00
O1784  O     0.87913   0.98079   0.66758   0.00000  Uiso   1.00
O1785  O     0.89617   0.71011   0.69877   0.00000  Uiso   1.00
H1786  H     0.91470   0.71656   0.67160   0.00000  Uiso   1.00
N1787  N     0.79583   0.99951   0.80186   0.00000  Uiso   1.00
H1788  H     0.81497   0.99256   0.81830   0.00000  Uiso   1.00
C1789  C     0.75938   0.68787   0.82477   0.00000  Uiso   1.00
H1790  H     0.74111   0.67040   0.85016   0.00000  Uiso   1.00
H1791  H     0.73751   0.69004   0.80634   0.00000  Uiso   1.00
H1792  H     0.77049   0.71952   0.83638   0.00000  Uiso   1.00
N1793  N     0.89474   0.73065   0.95963   0.00000  Uiso   1.00
H1794  H     0.87555   0.70437   0.95300   0.00000  Uiso   1.00
C1795  C     0.92935   0.74220   0.92574   0.00000  Uiso   1.00
H1796  H     0.95100   0.71712   0.91577   0.00000  Uiso   1.00
H1797  H     0.94851   0.77140   0.93341   0.00000  Uiso   1.00
H1798  H     0.91620   0.74632   0.90108   0.00000  Uiso   1.00
N1799  N     0.70783   0.89998   0.98371   0.00000  Uiso   1.00
H1800  H     0.68219   0.89692   0.97162   0.00000  Uiso   1.00
C1801  C     0.72158   0.94271   0.99536   0.00000  Uiso   1.00
H1802  H     0.69321   0.95844   0.51343   0.00000  Uiso   1.00
H1803  H     0.73718   0.95951   0.96889   0.00000  Uiso   1.00
H1804  H     0.74462   0.94406   0.51340   0.00000  Uiso   1.00
C1805  C     0.72789   0.88583   0.90020   0.00000  Uiso   1.00
O1806  O     0.72610   0.92282   0.89925   0.00000  Uiso   1.00
O1807  O     0.70369   0.85582   0.88110   0.00000  Uiso   1.00
H1808  H     0.68585   0.86853   0.86745   0.00000  Uiso   1.00
C1809  C     0.86797   0.84635   0.90738   0.00000  Uiso   1.00
O1810  O     0.88990   0.87554   0.91990   0.00000  Uiso   1.00
O1811  O     0.88775   0.81485   0.88052   0.00000  Uiso   1.00
H1812  H     0.91997   0.81810   0.87658   0.00000  Uiso   1.00
N1813  N     0.75290   0.82721   0.58631   0.00000  Uiso   1.00
H1814  H     0.73696   0.85057   0.60477   0.00000  Uiso   1.00
C1815  C     0.73019   0.78621   0.59172   0.00000  Uiso   1.00
H1816  H     0.71953   0.78195   0.62368   0.00000  Uiso   1.00
H1817  H     0.75163   0.76192   0.57625   0.00000  Uiso   1.00
H1818  H     0.70143   0.78246   0.58019   0.00000  Uiso   1.00
loop_
_geom_bond_atom_site_label_1
_geom_bond_atom_site_label_2
_geom_bond_distance
_geom_bond_site_symmetry_2
_ccdc_geom_bond_type
Zn1    O5      1.947   .     S
Zn1    O13     1.922   .     S
Zn1    O7      1.933   .     S
Zn1    O14     1.941   .     S
Zn2    O16     1.930   .     S
Zn2    O5      1.951   .     S
Zn2    O10     1.924   .     S
Zn2    O8      1.939   .     S
Zn3    O12     1.928   .     S
Zn3    O9      1.937   .     S
Zn3    O5      1.942   .     S
Zn3    O17     1.935   .     S
Zn4    O11     1.928   .     S
Zn4    O6      1.939   .     S
Zn4    O5      1.934   .     S
Zn4    O15     1.941   .     S
O6     C18     1.267   .     A
O7     C19     1.271   .     A
O8     C20     1.277   .     A
O9     C21     1.275   .     A
O10    C22     1.279   .     A
O11    C23     1.282   .     A
O12    C22     1.282   .     A
O13    C23     1.292   .     A
O14    C20     1.264   .     A
O15    C21     1.272   .     A
O16    C18     1.269   .     A
O17    C19     1.283   .     A
C18    C47     1.430   .     S
C19    C45     1.454   .     S
C20    C49     1.436   .     S
C21    C48     1.464   .     S
C22    C25     1.453   .     S
C23    C24     1.499   .     S
C24    C27     1.422   .     A
C24    C28     1.410   .     A
C25    C40     1.391   .     A
C25    C41     1.386   .     A
C26    C27     1.414   .     A
C26    N82     1.427   .     S
C26    C30     1.425   .     A
C27    C88     1.481   .     S
C28    C92     1.486   .     S
C28    C29     1.421   .     A
C29    C30     1.420   .     A
C29    C31     1.419   .     A
C30    C943    1.429   .     S
C31    C35     1.406   .     A
C31    C941    1.404   .     S
C32    C38     1.426   .     A
C32    C33     1.421   .     A
C32    C940    1.404   1_554 S
C33    C34     1.418   .     A
C33    N96     1.429   .     S
C34    C50     1.485   .     S
C34    C939    1.429   1_554 S
C35    C36     1.397   .     A
C35    H44     1.080   .     S
C36    N76     1.423   .     S
C36    C946    1.415   .     S
C37    C38     1.429   .     A
C37    C39     1.426   .     A
C37    C945    1.415   1_554 S
C38    C41     1.405   .     A
C39    N54     1.422   .     S
C39    C40     1.400   .     A
C40    H43     1.084   .     S
C41    H42     1.081   .     S
C45    H147    1.088   .     S
C45    C148    1.345   .     S
H46    C247    1.088   1_455 S
C47    C247    1.345   1_455 S
C47    N262    1.427   1_455 S
C48    C352    1.358   .     S
C48    C369    1.499   .     S
C49    C654    1.358   1_545 S
C49    N676    1.434   1_545 S
C50    O52     1.397   .     S
C50    O51     1.223   .     D
O52    H255    1.014   1_455 S
H53    O153    1.014   .     S
N54    C56     1.446   .     S
N54    H55     1.032   .     S
C56    H58     1.111   .     S
C56    H966    1.110   1_554 S
C56    H968    1.111   1_554 S
H57    C965    1.110   .     S
H59    C965    1.111   .     S
N60    C62     1.448   .     S
N60    H61     1.030   .     S
N60    C148    1.427   .     S
C62    H63     1.108   .     S
C62    H165    1.111   .     S
C62    H166    1.111   .     S
H64    C264    1.111   1_455 S
H65    C264    1.111   1_455 S
C66    O68     1.399   .     S
C66    C654    1.499   1_545 S
C66    O673    1.223   1_545 S
O67    C369    1.223   .     S
O68    H69     1.014   .     S
N70    H71     1.032   .     S
N70    C352    1.434   .     S
N70    C375    1.448   .     S
C72    H75     1.111   .     S
C72    H74     1.111   .     S
C72    H73     1.110   .     S
C72    N676    1.448   1_545 S
N76    H77     1.031   .     S
N76    C78     1.447   .     S
C78    H80     1.111   .     S
C78    H79     1.110   .     S
C78    H81     1.109   .     S
N82    C84     1.447   .     S
N82    H83     1.031   .     S
C84    H86     1.111   .     S
C84    H994    1.110   .     S
C84    H996    1.111   .     S
H85    C993    1.110   1_554 S
H87    C993    1.111   1_554 S
C88    O90     1.397   .     S
C88    O89     1.223   .     D
O90    H91     1.014   .     S
C92    O94     1.396   .     S
C92    O93     1.223   .     D
O94    H95     1.011   .     S
N96    C98     1.447   .     S
N96    H97     1.030   .     S
C98    H99     1.110   .     S
C98    H101    1.111   .     S
C98    H100    1.111   .     S
Zn102  O106    1.947   .     S
Zn102  O114    1.922   .     S
Zn102  O108    1.933   .     S
Zn102  O115    1.941   .     S
Zn103  O117    1.930   .     S
Zn103  O106    1.951   .     S
Zn103  O111    1.924   .     S
Zn103  O109    1.939   .     S
Zn104  O113    1.928   .     S
Zn104  O110    1.937   .     S
Zn104  O106    1.942   .     S
Zn104  O118    1.935   .     S
Zn105  O112    1.928   .     S
Zn105  O107    1.939   .     S
Zn105  O106    1.934   .     S
Zn105  O116    1.941   .     S
O107   C119    1.267   .     A
O108   C120    1.271   .     A
O109   C121    1.277   .     A
O110   C122    1.275   .     A
O111   C123    1.279   .     A
O112   C124    1.282   .     A
O113   C123    1.282   .     A
O114   C124    1.292   .     A
O115   C121    1.264   .     A
O116   C122    1.272   .     A
O117   C119    1.269   .     A
O118   C120    1.283   .     A
C119   C148    1.430   .     S
C120   C146    1.454   .     S
C121   C150    1.436   .     S
C122   C149    1.464   .     S
C123   C126    1.453   .     S
C124   C125    1.499   .     S
C125   C128    1.422   .     A
C125   C129    1.410   .     A
C126   C141    1.391   .     A
C126   C142    1.386   .     A
C127   C128    1.414   .     A
C127   N183    1.427   .     S
C127   C131    1.425   .     A
C128   C189    1.481   .     S
C129   C193    1.486   .     S
C129   C130    1.421   .     A
C130   C131    1.420   .     A
C130   C132    1.419   .     A
C131   C1044   1.429   .     S
C132   C136    1.406   .     A
C132   C1042   1.404   .     S
C133   C139    1.426   .     A
C133   C134    1.421   .     A
C133   C1041   1.404   1_554 S
C134   C135    1.418   .     A
C134   N197    1.429   .     S
C135   C151    1.485   .     S
C135   C1040   1.429   1_554 S
C136   C137    1.397   .     A
C136   H145    1.080   .     S
C137   N177    1.423   .     S
C137   C1047   1.415   .     S
C138   C139    1.429   .     A
C138   C140    1.426   .     A
C138   C1046   1.415   1_554 S
C139   C142    1.405   .     A
C140   N155    1.422   .     S
C140   C141    1.400   .     A
C141   H144    1.084   .     S
C142   H143    1.081   .     S
C146   H248    1.088   .     S
C146   C249    1.345   .     S
C149   C453    1.358   .     S
C149   C470    1.499   .     S
C150   C755    1.358   1_545 S
C150   N777    1.434   1_545 S
C151   O153    1.397   .     S
C151   O152    1.223   .     D
H154   O254    1.014   .     S
N155   C157    1.446   .     S
N155   H156    1.032   .     S
C157   H159    1.111   .     S
C157   H1067   1.110   1_554 S
C157   H1069   1.111   1_554 S
H158   C1066   1.110   .     S
H160   C1066   1.111   .     S
N161   C163    1.448   .     S
N161   H162    1.030   .     S
N161   C249    1.427   .     S
C163   H164    1.108   .     S
C163   H266    1.111   .     S
C163   H267    1.111   .     S
C167   O169    1.399   .     S
C167   C755    1.499   1_545 S
C167   O774    1.223   1_545 S
O168   C470    1.223   .     S
O169   H170    1.014   .     S
N171   H172    1.032   .     S
N171   C453    1.434   .     S
N171   C476    1.448   .     S
C173   H176    1.111   .     S
C173   H175    1.111   .     S
C173   H174    1.110   .     S
C173   N777    1.448   1_545 S
N177   H178    1.031   .     S
N177   C179    1.447   .     S
C179   H181    1.111   .     S
C179   H180    1.110   .     S
C179   H182    1.109   .     S
N183   C185    1.447   .     S
N183   H184    1.031   .     S
C185   H187    1.111   .     S
C185   H1095   1.110   .     S
C185   H1097   1.111   .     S
H186   C1094   1.110   1_554 S
H188   C1094   1.111   1_554 S
C189   O191    1.397   .     S
C189   O190    1.223   .     D
O191   H192    1.014   .     S
C193   O195    1.396   .     S
C193   O194    1.223   .     D
O195   H196    1.011   .     S
N197   C199    1.447   .     S
N197   H198    1.030   .     S
C199   H200    1.110   .     S
C199   H202    1.111   .     S
C199   H201    1.111   .     S
Zn203  O207    1.947   .     S
Zn203  O215    1.922   .     S
Zn203  O209    1.933   .     S
Zn203  O216    1.941   .     S
Zn204  O218    1.930   .     S
Zn204  O207    1.951   .     S
Zn204  O212    1.924   .     S
Zn204  O210    1.939   .     S
Zn205  O214    1.928   .     S
Zn205  O211    1.937   .     S
Zn205  O207    1.942   .     S
Zn205  O219    1.935   .     S
Zn206  O213    1.928   .     S
Zn206  O208    1.939   .     S
Zn206  O207    1.934   .     S
Zn206  O217    1.941   .     S
O208   C220    1.267   .     A
O209   C221    1.271   .     A
O210   C222    1.277   .     A
O211   C223    1.275   .     A
O212   C224    1.279   .     A
O213   C225    1.282   .     A
O214   C224    1.282   .     A
O215   C225    1.292   .     A
O216   C222    1.264   .     A
O217   C223    1.272   .     A
O218   C220    1.269   .     A
O219   C221    1.283   .     A
C220   C249    1.430   .     S
C221   C247    1.454   .     S
C222   C251    1.436   .     S
C223   C250    1.464   .     S
C224   C227    1.453   .     S
C225   C226    1.499   .     S
C226   C229    1.422   .     A
C226   C230    1.410   .     A
C227   C242    1.391   .     A
C227   C243    1.386   .     A
C228   C229    1.414   .     A
C228   N284    1.427   .     S
C228   C232    1.425   .     A
C229   C290    1.481   .     S
C230   C294    1.486   .     S
C230   C231    1.421   .     A
C231   C232    1.420   .     A
C231   C233    1.419   .     A
C232   C1145   1.429   .     S
C233   C237    1.406   .     A
C233   C1143   1.404   .     S
C234   C240    1.426   .     A
C234   C235    1.421   .     A
C234   C1142   1.404   1_554 S
C235   C236    1.418   .     A
C235   N298    1.429   .     S
C236   C252    1.485   .     S
C236   C1141   1.429   1_554 S
C237   C238    1.397   .     A
C237   H246    1.080   .     S
C238   N278    1.423   .     S
C238   C1148   1.415   .     S
C239   C240    1.429   .     A
C239   C241    1.426   .     A
C239   C1147   1.415   1_554 S
C240   C243    1.405   .     A
C241   N256    1.422   .     S
C241   C242    1.400   .     A
C242   H245    1.084   .     S
C243   H244    1.081   .     S
C247   H46     1.088   1_655 S
C247   C47     1.345   1_655 S
C250   C554    1.358   .     S
C250   C571    1.499   .     S
C251   C856    1.358   1_545 S
C251   N878    1.434   1_545 S
C252   O254    1.397   .     S
C252   O253    1.223   .     D
H255   O52     1.014   1_655 S
N256   C258    1.446   .     S
N256   H257    1.032   .     S
C258   H260    1.111   .     S
C258   H1168   1.110   1_554 S
C258   H1170   1.111   1_554 S
H259   C1167   1.110   .     S
H261   C1167   1.111   .     S
N262   C264    1.448   .     S
N262   H263    1.030   .     S
N262   C47     1.427   1_655 S
C264   H265    1.108   .     S
C264   H64     1.111   1_655 S
C264   H65     1.111   1_655 S
C268   O270    1.399   .     S
C268   C856    1.499   1_545 S
C268   O875    1.223   1_545 S
O269   C571    1.223   .     S
O270   H271    1.014   .     S
N272   H273    1.032   .     S
N272   C554    1.434   .     S
N272   C577    1.448   .     S
C274   H277    1.111   .     S
C274   H276    1.111   .     S
C274   H275    1.110   .     S
C274   N878    1.448   1_545 S
N278   H279    1.031   .     S
N278   C280    1.447   .     S
C280   H282    1.111   .     S
C280   H281    1.110   .     S
C280   H283    1.109   .     S
N284   C286    1.447   .     S
N284   H285    1.031   .     S
C286   H288    1.111   .     S
C286   H1196   1.110   .     S
C286   H1198   1.111   .     S
H287   C1195   1.110   1_554 S
H289   C1195   1.111   1_554 S
C290   O292    1.397   .     S
C290   O291    1.223   .     D
O292   H293    1.014   .     S
C294   O296    1.396   .     S
C294   O295    1.223   .     D
O296   H297    1.011   .     S
N298   C300    1.447   .     S
N298   H299    1.030   .     S
C300   H301    1.110   .     S
C300   H303    1.111   .     S
C300   H302    1.111   .     S
Zn304  O308    1.947   .     S
Zn304  O316    1.922   .     S
Zn304  O310    1.933   .     S
Zn304  O317    1.941   .     S
Zn305  O319    1.930   .     S
Zn305  O308    1.951   .     S
Zn305  O313    1.924   .     S
Zn305  O311    1.939   .     S
Zn306  O315    1.928   .     S
Zn306  O312    1.937   .     S
Zn306  O308    1.942   .     S
Zn306  O320    1.935   .     S
Zn307  O314    1.928   .     S
Zn307  O309    1.939   .     S
Zn307  O308    1.934   .     S
Zn307  O318    1.941   .     S
O309   C321    1.267   .     A
O310   C322    1.271   .     A
O311   C323    1.277   .     A
O312   C324    1.275   .     A
O313   C325    1.279   .     A
O314   C326    1.282   .     A
O315   C325    1.282   .     A
O316   C326    1.292   .     A
O317   C323    1.264   .     A
O318   C324    1.272   .     A
O319   C321    1.269   .     A
O320   C322    1.283   .     A
C321   C350    1.430   .     S
C322   C348    1.454   .     S
C323   C352    1.436   .     S
C324   C351    1.464   .     S
C325   C328    1.453   .     S
C326   C327    1.499   .     S
C327   C330    1.422   .     A
C327   C331    1.410   .     A
C328   C343    1.391   .     A
C328   C344    1.386   .     A
C329   C330    1.414   .     A
C329   N385    1.427   .     S
C329   C333    1.425   .     A
C330   C391    1.481   .     S
C331   C395    1.486   .     S
C331   C332    1.421   .     A
C332   C333    1.420   .     A
C332   C334    1.419   .     A
C333   C1246   1.429   .     S
C334   C338    1.406   .     A
C334   C1244   1.404   .     S
C335   C341    1.426   .     A
C335   C336    1.421   .     A
C335   C1243   1.404   1_554 S
C336   C337    1.418   .     A
C336   N399    1.429   .     S
C337   C353    1.485   .     S
C337   C1242   1.429   1_554 S
C338   C339    1.397   .     A
C338   H347    1.080   .     S
C339   N379    1.423   .     S
C339   C1249   1.415   .     S
C340   C341    1.429   .     A
C340   C342    1.426   .     A
C340   C1248   1.415   1_554 S
C341   C344    1.405   .     A
C342   N357    1.422   .     S
C342   C343    1.400   .     A
C343   H346    1.084   .     S
C344   H345    1.081   .     S
C348   H450    1.088   .     S
C348   C451    1.345   .     S
H349   C550    1.088   1_455 S
C350   C550    1.345   1_455 S
C350   N565    1.427   1_455 S
C351   C655    1.358   .     S
C351   C672    1.499   .     S
C353   O355    1.397   .     S
C353   O354    1.223   .     D
O355   H558    1.014   1_455 S
H356   O456    1.014   .     S
N357   C359    1.446   .     S
N357   H358    1.032   .     S
C359   H361    1.111   .     S
C359   H1269   1.110   1_554 S
C359   H1271   1.111   1_554 S
H360   C1268   1.110   .     S
H362   C1268   1.111   .     S
N363   C365    1.448   .     S
N363   H364    1.030   .     S
N363   C451    1.427   .     S
C365   H366    1.108   .     S
C365   H468    1.111   .     S
C365   H469    1.111   .     S
H367   C567    1.111   1_455 S
H368   C567    1.111   1_455 S
C369   O371    1.399   .     S
O370   C672    1.223   .     S
O371   H372    1.014   .     S
N373   H374    1.032   .     S
N373   C655    1.434   .     S
N373   C678    1.448   .     S
C375   H378    1.111   .     S
C375   H377    1.111   .     S
C375   H376    1.110   .     S
N379   H380    1.031   .     S
N379   C381    1.447   .     S
C381   H383    1.111   .     S
C381   H382    1.110   .     S
C381   H384    1.109   .     S
N385   C387    1.447   .     S
N385   H386    1.031   .     S
C387   H389    1.111   .     S
C387   H1297   1.110   .     S
C387   H1299   1.111   .     S
H388   C1296   1.110   1_554 S
H390   C1296   1.111   1_554 S
C391   O393    1.397   .     S
C391   O392    1.223   .     D
O393   H394    1.014   .     S
C395   O397    1.396   .     S
C395   O396    1.223   .     D
O397   H398    1.011   .     S
N399   C401    1.447   .     S
N399   H400    1.030   .     S
C401   H402    1.110   .     S
C401   H404    1.111   .     S
C401   H403    1.111   .     S
Zn405  O409    1.947   .     S
Zn405  O417    1.922   .     S
Zn405  O411    1.933   .     S
Zn405  O418    1.941   .     S
Zn406  O420    1.930   .     S
Zn406  O409    1.951   .     S
Zn406  O414    1.924   .     S
Zn406  O412    1.939   .     S
Zn407  O416    1.928   .     S
Zn407  O413    1.937   .     S
Zn407  O409    1.942   .     S
Zn407  O421    1.935   .     S
Zn408  O415    1.928   .     S
Zn408  O410    1.939   .     S
Zn408  O409    1.934   .     S
Zn408  O419    1.941   .     S
O410   C422    1.267   .     A
O411   C423    1.271   .     A
O412   C424    1.277   .     A
O413   C425    1.275   .     A
O414   C426    1.279   .     A
O415   C427    1.282   .     A
O416   C426    1.282   .     A
O417   C427    1.292   .     A
O418   C424    1.264   .     A
O419   C425    1.272   .     A
O420   C422    1.269   .     A
O421   C423    1.283   .     A
C422   C451    1.430   .     S
C423   C449    1.454   .     S
C424   C453    1.436   .     S
C425   C452    1.464   .     S
C426   C429    1.453   .     S
C427   C428    1.499   .     S
C428   C431    1.422   .     A
C428   C432    1.410   .     A
C429   C444    1.391   .     A
C429   C445    1.386   .     A
C430   C431    1.414   .     A
C430   N486    1.427   .     S
C430   C434    1.425   .     A
C431   C492    1.481   .     S
C432   C496    1.486   .     S
C432   C433    1.421   .     A
C433   C434    1.420   .     A
C433   C435    1.419   .     A
C434   C1347   1.429   .     S
C435   C439    1.406   .     A
C435   C1345   1.404   .     S
C436   C442    1.426   .     A
C436   C437    1.421   .     A
C436   C1344   1.404   1_554 S
C437   C438    1.418   .     A
C437   N500    1.429   .     S
C438   C454    1.485   .     S
C438   C1343   1.429   1_554 S
C439   C440    1.397   .     A
C439   H448    1.080   .     S
C440   N480    1.423   .     S
C440   C1350   1.415   .     S
C441   C442    1.429   .     A
C441   C443    1.426   .     A
C441   C1349   1.415   1_554 S
C442   C445    1.405   .     A
C443   N458    1.422   .     S
C443   C444    1.400   .     A
C444   H447    1.084   .     S
C445   H446    1.081   .     S
C449   H551    1.088   .     S
C449   C552    1.345   .     S
C452   C756    1.358   .     S
C452   C773    1.499   .     S
C454   O456    1.397   .     S
C454   O455    1.223   .     D
H457   O557    1.014   .     S
N458   C460    1.446   .     S
N458   H459    1.032   .     S
C460   H462    1.111   .     S
C460   H1370   1.110   1_554 S
C460   H1372   1.111   1_554 S
H461   C1369   1.110   .     S
H463   C1369   1.111   .     S
N464   C466    1.448   .     S
N464   H465    1.030   .     S
N464   C552    1.427   .     S
C466   H467    1.108   .     S
C466   H569    1.111   .     S
C466   H570    1.111   .     S
C470   O472    1.399   .     S
O471   C773    1.223   .     S
O472   H473    1.014   .     S
N474   H475    1.032   .     S
N474   C756    1.434   .     S
N474   C779    1.448   .     S
C476   H479    1.111   .     S
C476   H478    1.111   .     S
C476   H477    1.110   .     S
N480   H481    1.031   .     S
N480   C482    1.447   .     S
C482   H484    1.111   .     S
C482   H483    1.110   .     S
C482   H485    1.109   .     S
N486   C488    1.447   .     S
N486   H487    1.031   .     S
C488   H490    1.111   .     S
C488   H1398   1.110   .     S
C488   H1400   1.111   .     S
H489   C1397   1.110   1_554 S
H491   C1397   1.111   1_554 S
C492   O494    1.397   .     S
C492   O493    1.223   .     D
O494   H495    1.014   .     S
C496   O498    1.396   .     S
C496   O497    1.223   .     D
O498   H499    1.011   .     S
N500   C502    1.447   .     S
N500   H501    1.030   .     S
C502   H503    1.110   .     S
C502   H505    1.111   .     S
C502   H504    1.111   .     S
Zn506  O510    1.947   .     S
Zn506  O518    1.922   .     S
Zn506  O512    1.933   .     S
Zn506  O519    1.941   .     S
Zn507  O521    1.930   .     S
Zn507  O510    1.951   .     S
Zn507  O515    1.924   .     S
Zn507  O513    1.939   .     S
Zn508  O517    1.928   .     S
Zn508  O514    1.937   .     S
Zn508  O510    1.942   .     S
Zn508  O522    1.935   .     S
Zn509  O516    1.928   .     S
Zn509  O511    1.939   .     S
Zn509  O510    1.934   .     S
Zn509  O520    1.941   .     S
O511   C523    1.267   .     A
O512   C524    1.271   .     A
O513   C525    1.277   .     A
O514   C526    1.275   .     A
O515   C527    1.279   .     A
O516   C528    1.282   .     A
O517   C527    1.282   .     A
O518   C528    1.292   .     A
O519   C525    1.264   .     A
O520   C526    1.272   .     A
O521   C523    1.269   .     A
O522   C524    1.283   .     A
C523   C552    1.430   .     S
C524   C550    1.454   .     S
C525   C554    1.436   .     S
C526   C553    1.464   .     S
C527   C530    1.453   .     S
C528   C529    1.499   .     S
C529   C532    1.422   .     A
C529   C533    1.410   .     A
C530   C545    1.391   .     A
C530   C546    1.386   .     A
C531   C532    1.414   .     A
C531   N587    1.427   .     S
C531   C535    1.425   .     A
C532   C593    1.481   .     S
C533   C597    1.486   .     S
C533   C534    1.421   .     A
C534   C535    1.420   .     A
C534   C536    1.419   .     A
C535   C1448   1.429   .     S
C536   C540    1.406   .     A
C536   C1446   1.404   .     S
C537   C543    1.426   .     A
C537   C538    1.421   .     A
C537   C1445   1.404   1_554 S
C538   C539    1.418   .     A
C538   N601    1.429   .     S
C539   C555    1.485   .     S
C539   C1444   1.429   1_554 S
C540   C541    1.397   .     A
C540   H549    1.080   .     S
C541   N581    1.423   .     S
C541   C1451   1.415   .     S
C542   C543    1.429   .     A
C542   C544    1.426   .     A
C542   C1450   1.415   1_554 S
C543   C546    1.405   .     A
C544   N559    1.422   .     S
C544   C545    1.400   .     A
C545   H548    1.084   .     S
C546   H547    1.081   .     S
C550   H349    1.088   1_655 S
C550   C350    1.345   1_655 S
C553   C857    1.358   .     S
C553   C874    1.499   .     S
C555   O557    1.397   .     S
C555   O556    1.223   .     D
H558   O355    1.014   1_655 S
N559   C561    1.446   .     S
N559   H560    1.032   .     S
C561   H563    1.111   .     S
C561   H1471   1.110   1_554 S
C561   H1473   1.111   1_554 S
H562   C1470   1.110   .     S
H564   C1470   1.111   .     S
N565   C567    1.448   .     S
N565   H566    1.030   .     S
N565   C350    1.427   1_655 S
C567   H568    1.108   .     S
C567   H367    1.111   1_655 S
C567   H368    1.111   1_655 S
C571   O573    1.399   .     S
O572   C874    1.223   .     S
O573   H574    1.014   .     S
N575   H576    1.032   .     S
N575   C857    1.434   .     S
N575   C880    1.448   .     S
C577   H580    1.111   .     S
C577   H579    1.111   .     S
C577   H578    1.110   .     S
N581   H582    1.031   .     S
N581   C583    1.447   .     S
C583   H585    1.111   .     S
C583   H584    1.110   .     S
C583   H586    1.109   .     S
N587   C589    1.447   .     S
N587   H588    1.031   .     S
C589   H591    1.111   .     S
C589   H1499   1.110   .     S
C589   H1501   1.111   .     S
H590   C1498   1.110   1_554 S
H592   C1498   1.111   1_554 S
C593   O595    1.397   .     S
C593   O594    1.223   .     D
O595   H596    1.014   .     S
C597   O599    1.396   .     S
C597   O598    1.223   .     D
O599   H600    1.011   .     S
N601   C603    1.447   .     S
N601   H602    1.030   .     S
C603   H604    1.110   .     S
C603   H606    1.111   .     S
C603   H605    1.111   .     S
Zn607  O611    1.947   .     S
Zn607  O619    1.922   .     S
Zn607  O613    1.933   .     S
Zn607  O620    1.941   .     S
Zn608  O622    1.930   .     S
Zn608  O611    1.951   .     S
Zn608  O616    1.924   .     S
Zn608  O614    1.939   .     S
Zn609  O618    1.928   .     S
Zn609  O615    1.937   .     S
Zn609  O611    1.942   .     S
Zn609  O623    1.935   .     S
Zn610  O617    1.928   .     S
Zn610  O612    1.939   .     S
Zn610  O611    1.934   .     S
Zn610  O621    1.941   .     S
O612   C624    1.267   .     A
O613   C625    1.271   .     A
O614   C626    1.277   .     A
O615   C627    1.275   .     A
O616   C628    1.279   .     A
O617   C629    1.282   .     A
O618   C628    1.282   .     A
O619   C629    1.292   .     A
O620   C626    1.264   .     A
O621   C627    1.272   .     A
O622   C624    1.269   .     A
O623   C625    1.283   .     A
C624   C653    1.430   .     S
C625   C651    1.454   .     S
C626   C655    1.436   .     S
C627   C654    1.464   .     S
C628   C631    1.453   .     S
C629   C630    1.499   .     S
C630   C633    1.422   .     A
C630   C634    1.410   .     A
C631   C646    1.391   .     A
C631   C647    1.386   .     A
C632   C633    1.414   .     A
C632   N688    1.427   .     S
C632   C636    1.425   .     A
C633   C694    1.481   .     S
C634   C698    1.486   .     S
C634   C635    1.421   .     A
C635   C636    1.420   .     A
C635   C637    1.419   .     A
C636   C1549   1.429   .     S
C637   C641    1.406   .     A
C637   C1547   1.404   .     S
C638   C644    1.426   .     A
C638   C639    1.421   .     A
C638   C1546   1.404   1_554 S
C639   C640    1.418   .     A
C639   N702    1.429   .     S
C640   C656    1.485   .     S
C640   C1545   1.429   1_554 S
C641   C642    1.397   .     A
C641   H650    1.080   .     S
C642   N682    1.423   .     S
C642   C1552   1.415   .     S
C643   C644    1.429   .     A
C643   C645    1.426   .     A
C643   C1551   1.415   1_554 S
C644   C647    1.405   .     A
C645   N660    1.422   .     S
C645   C646    1.400   .     A
C646   H649    1.084   .     S
C647   H648    1.081   .     S
C651   H753    1.088   .     S
C651   C754    1.345   .     S
H652   C853    1.088   1_455 S
C653   C853    1.345   1_455 S
C653   N868    1.427   1_455 S
C654   C49     1.358   1_565 S
C654   C66     1.499   1_565 S
C656   O658    1.397   .     S
C656   O657    1.223   .     D
O658   H861    1.014   1_455 S
H659   O759    1.014   .     S
N660   C662    1.446   .     S
N660   H661    1.032   .     S
C662   H664    1.111   .     S
C662   H1572   1.110   1_554 S
C662   H1574   1.111   1_554 S
H663   C1571   1.110   .     S
H665   C1571   1.111   .     S
N666   C668    1.448   .     S
N666   H667    1.030   .     S
N666   C754    1.427   .     S
C668   H669    1.108   .     S
C668   H771    1.111   .     S
C668   H772    1.111   .     S
H670   C870    1.111   1_455 S
H671   C870    1.111   1_455 S
C672   O674    1.399   .     S
O673   C66     1.223   1_565 S
O674   H675    1.014   .     S
N676   H677    1.032   .     S
N676   C49     1.434   1_565 S
N676   C72     1.448   1_565 S
C678   H681    1.111   .     S
C678   H680    1.111   .     S
C678   H679    1.110   .     S
N682   H683    1.031   .     S
N682   C684    1.447   .     S
C684   H686    1.111   .     S
C684   H685    1.110   .     S
C684   H687    1.109   .     S
N688   C690    1.447   .     S
N688   H689    1.031   .     S
C690   H692    1.111   .     S
C690   H1600   1.110   .     S
C690   H1602   1.111   .     S
H691   C1599   1.110   1_554 S
H693   C1599   1.111   1_554 S
C694   O696    1.397   .     S
C694   O695    1.223   .     D
O696   H697    1.014   .     S
C698   O700    1.396   .     S
C698   O699    1.223   .     D
O700   H701    1.011   .     S
N702   C704    1.447   .     S
N702   H703    1.030   .     S
C704   H705    1.110   .     S
C704   H707    1.111   .     S
C704   H706    1.111   .     S
Zn708  O712    1.947   .     S
Zn708  O720    1.922   .     S
Zn708  O714    1.933   .     S
Zn708  O721    1.941   .     S
Zn709  O723    1.930   .     S
Zn709  O712    1.951   .     S
Zn709  O717    1.924   .     S
Zn709  O715    1.939   .     S
Zn710  O719    1.928   .     S
Zn710  O716    1.937   .     S
Zn710  O712    1.942   .     S
Zn710  O724    1.935   .     S
Zn711  O718    1.928   .     S
Zn711  O713    1.939   .     S
Zn711  O712    1.934   .     S
Zn711  O722    1.941   .     S
O713   C725    1.267   .     A
O714   C726    1.271   .     A
O715   C727    1.277   .     A
O716   C728    1.275   .     A
O717   C729    1.279   .     A
O718   C730    1.282   .     A
O719   C729    1.282   .     A
O720   C730    1.292   .     A
O721   C727    1.264   .     A
O722   C728    1.272   .     A
O723   C725    1.269   .     A
O724   C726    1.283   .     A
C725   C754    1.430   .     S
C726   C752    1.454   .     S
C727   C756    1.436   .     S
C728   C755    1.464   .     S
C729   C732    1.453   .     S
C730   C731    1.499   .     S
C731   C734    1.422   .     A
C731   C735    1.410   .     A
C732   C747    1.391   .     A
C732   C748    1.386   .     A
C733   C734    1.414   .     A
C733   N789    1.427   .     S
C733   C737    1.425   .     A
C734   C795    1.481   .     S
C735   C799    1.486   .     S
C735   C736    1.421   .     A
C736   C737    1.420   .     A
C736   C738    1.419   .     A
C737   C1650   1.429   .     S
C738   C742    1.406   .     A
C738   C1648   1.404   .     S
C739   C745    1.426   .     A
C739   C740    1.421   .     A
C739   C1647   1.404   1_554 S
C740   C741    1.418   .     A
C740   N803    1.429   .     S
C741   C757    1.485   .     S
C741   C1646   1.429   1_554 S
C742   C743    1.397   .     A
C742   H751    1.080   .     S
C743   N783    1.423   .     S
C743   C1653   1.415   .     S
C744   C745    1.429   .     A
C744   C746    1.426   .     A
C744   C1652   1.415   1_554 S
C745   C748    1.405   .     A
C746   N761    1.422   .     S
C746   C747    1.400   .     A
C747   H750    1.084   .     S
C748   H749    1.081   .     S
C752   H854    1.088   .     S
C752   C855    1.345   .     S
C755   C150    1.358   1_565 S
C755   C167    1.499   1_565 S
C757   O759    1.397   .     S
C757   O758    1.223   .     D
H760   O860    1.014   .     S
N761   C763    1.446   .     S
N761   H762    1.032   .     S
C763   H765    1.111   .     S
C763   H1673   1.110   1_554 S
C763   H1675   1.111   1_554 S
H764   C1672   1.110   .     S
H766   C1672   1.111   .     S
N767   C769    1.448   .     S
N767   H768    1.030   .     S
N767   C855    1.427   .     S
C769   H770    1.108   .     S
C769   H872    1.111   .     S
C769   H873    1.111   .     S
C773   O775    1.399   .     S
O774   C167    1.223   1_565 S
O775   H776    1.014   .     S
N777   H778    1.032   .     S
N777   C150    1.434   1_565 S
N777   C173    1.448   1_565 S
C779   H782    1.111   .     S
C779   H781    1.111   .     S
C779   H780    1.110   .     S
N783   H784    1.031   .     S
N783   C785    1.447   .     S
C785   H787    1.111   .     S
C785   H786    1.110   .     S
C785   H788    1.109   .     S
N789   C791    1.447   .     S
N789   H790    1.031   .     S
C791   H793    1.111   .     S
C791   H1701   1.110   .     S
C791   H1703   1.111   .     S
H792   C1700   1.110   1_554 S
H794   C1700   1.111   1_554 S
C795   O797    1.397   .     S
C795   O796    1.223   .     D
O797   H798    1.014   .     S
C799   O801    1.396   .     S
C799   O800    1.223   .     D
O801   H802    1.011   .     S
N803   C805    1.447   .     S
N803   H804    1.030   .     S
C805   H806    1.110   .     S
C805   H808    1.111   .     S
C805   H807    1.111   .     S
Zn809  O813    1.947   .     S
Zn809  O821    1.922   .     S
Zn809  O815    1.933   .     S
Zn809  O822    1.941   .     S
Zn810  O824    1.930   .     S
Zn810  O813    1.951   .     S
Zn810  O818    1.924   .     S
Zn810  O816    1.939   .     S
Zn811  O820    1.928   .     S
Zn811  O817    1.937   .     S
Zn811  O813    1.942   .     S
Zn811  O825    1.935   .     S
Zn812  O819    1.928   .     S
Zn812  O814    1.939   .     S
Zn812  O813    1.934   .     S
Zn812  O823    1.941   .     S
O814   C826    1.267   .     A
O815   C827    1.271   .     A
O816   C828    1.277   .     A
O817   C829    1.275   .     A
O818   C830    1.279   .     A
O819   C831    1.282   .     A
O820   C830    1.282   .     A
O821   C831    1.292   .     A
O822   C828    1.264   .     A
O823   C829    1.272   .     A
O824   C826    1.269   .     A
O825   C827    1.283   .     A
C826   C855    1.430   .     S
C827   C853    1.454   .     S
C828   C857    1.436   .     S
C829   C856    1.464   .     S
C830   C833    1.453   .     S
C831   C832    1.499   .     S
C832   C835    1.422   .     A
C832   C836    1.410   .     A
C833   C848    1.391   .     A
C833   C849    1.386   .     A
C834   C835    1.414   .     A
C834   N890    1.427   .     S
C834   C838    1.425   .     A
C835   C896    1.481   .     S
C836   C900    1.486   .     S
C836   C837    1.421   .     A
C837   C838    1.420   .     A
C837   C839    1.419   .     A
C838   C1751   1.429   .     S
C839   C843    1.406   .     A
C839   C1749   1.404   .     S
C840   C846    1.426   .     A
C840   C841    1.421   .     A
C840   C1748   1.404   1_554 S
C841   C842    1.418   .     A
C841   N904    1.429   .     S
C842   C858    1.485   .     S
C842   C1747   1.429   1_554 S
C843   C844    1.397   .     A
C843   H852    1.080   .     S
C844   N884    1.423   .     S
C844   C1754   1.415   .     S
C845   C846    1.429   .     A
C845   C847    1.426   .     A
C845   C1753   1.415   1_554 S
C846   C849    1.405   .     A
C847   N862    1.422   .     S
C847   C848    1.400   .     A
C848   H851    1.084   .     S
C849   H850    1.081   .     S
C853   H652    1.088   1_655 S
C853   C653    1.345   1_655 S
C856   C251    1.358   1_565 S
C856   C268    1.499   1_565 S
C858   O860    1.397   .     S
C858   O859    1.223   .     D
H861   O658    1.014   1_655 S
N862   C864    1.446   .     S
N862   H863    1.032   .     S
C864   H866    1.111   .     S
C864   H1774   1.110   1_554 S
C864   H1776   1.111   1_554 S
H865   C1773   1.110   .     S
H867   C1773   1.111   .     S
N868   C870    1.448   .     S
N868   H869    1.030   .     S
N868   C653    1.427   1_655 S
C870   H871    1.108   .     S
C870   H670    1.111   1_655 S
C870   H671    1.111   1_655 S
C874   O876    1.399   .     S
O875   C268    1.223   1_565 S
O876   H877    1.014   .     S
N878   H879    1.032   .     S
N878   C251    1.434   1_565 S
N878   C274    1.448   1_565 S
C880   H883    1.111   .     S
C880   H882    1.111   .     S
C880   H881    1.110   .     S
N884   H885    1.031   .     S
N884   C886    1.447   .     S
C886   H888    1.111   .     S
C886   H887    1.110   .     S
C886   H889    1.109   .     S
N890   C892    1.447   .     S
N890   H891    1.031   .     S
C892   H894    1.111   .     S
C892   H1802   1.110   .     S
C892   H1804   1.111   .     S
H893   C1801   1.110   1_554 S
H895   C1801   1.111   1_554 S
C896   O898    1.397   .     S
C896   O897    1.223   .     D
O898   H899    1.014   .     S
C900   O902    1.396   .     S
C900   O901    1.223   .     D
O902   H903    1.011   .     S
N904   C906    1.447   .     S
N904   H905    1.030   .     S
C906   H907    1.110   .     S
C906   H909    1.111   .     S
C906   H908    1.111   .     S
Zn910  O914    1.947   .     S
Zn910  O922    1.922   .     S
Zn910  O916    1.933   .     S
Zn910  O923    1.941   .     S
Zn911  O925    1.930   .     S
Zn911  O914    1.951   .     S
Zn911  O919    1.924   .     S
Zn911  O917    1.939   .     S
Zn912  O921    1.928   .     S
Zn912  O918    1.937   .     S
Zn912  O914    1.942   .     S
Zn912  O926    1.935   .     S
Zn913  O920    1.928   .     S
Zn913  O915    1.939   .     S
Zn913  O914    1.934   .     S
Zn913  O924    1.941   .     S
O915   C927    1.267   .     A
O916   C928    1.271   .     A
O917   C929    1.277   .     A
O918   C930    1.275   .     A
O919   C931    1.279   .     A
O920   C932    1.282   .     A
O921   C931    1.282   .     A
O922   C932    1.292   .     A
O923   C929    1.264   .     A
O924   C930    1.272   .     A
O925   C927    1.269   .     A
O926   C928    1.283   .     A
C927   C956    1.430   .     S
C928   C954    1.454   .     S
C929   C958    1.436   .     S
C930   C957    1.464   .     S
C931   C934    1.453   .     S
C932   C933    1.499   .     S
C933   C936    1.422   .     A
C933   C937    1.410   .     A
C934   C949    1.391   .     A
C934   C950    1.386   .     A
C935   C936    1.414   .     A
C935   N991    1.427   .     S
C935   C939    1.425   .     A
C936   C997    1.481   .     S
C937   C1001   1.486   .     S
C937   C938    1.421   .     A
C938   C939    1.420   .     A
C938   C940    1.419   .     A
C939   C34     1.429   1_556 S
C940   C944    1.406   .     A
C940   C32     1.404   1_556 S
C941   C947    1.426   .     A
C941   C942    1.421   .     A
C942   C943    1.418   .     A
C942   N1005   1.429   .     S
C943   C959    1.485   .     S
C944   C945    1.397   .     A
C944   H953    1.080   .     S
C945   N985    1.423   .     S
C945   C37     1.415   1_556 S
C946   C947    1.429   .     A
C946   C948    1.426   .     A
C947   C950    1.405   .     A
C948   N963    1.422   .     S
C948   C949    1.400   .     A
C949   H952    1.084   .     S
C950   H951    1.081   .     S
C954   H1056   1.088   .     S
C954   C1057   1.345   .     S
H955   C1156   1.088   1_455 S
C956   C1156   1.345   1_455 S
C956   N1171   1.427   1_455 S
C957   C1261   1.358   .     S
C957   C1278   1.499   .     S
C958   C1563   1.358   1_545 S
C958   N1585   1.434   1_545 S
C959   O961    1.397   .     S
C959   O960    1.223   .     D
O961   H1164   1.014   1_455 S
H962   O1062   1.014   .     S
N963   C965    1.446   .     S
N963   H964    1.032   .     S
C965   H967    1.111   .     S
H966   C56     1.110   1_556 S
H968   C56     1.111   1_556 S
N969   C971    1.448   .     S
N969   H970    1.030   .     S
N969   C1057   1.427   .     S
C971   H972    1.108   .     S
C971   H1074   1.111   .     S
C971   H1075   1.111   .     S
H973   C1173   1.111   1_455 S
H974   C1173   1.111   1_455 S
C975   O977    1.399   .     S
C975   C1563   1.499   1_545 S
C975   O1582   1.223   1_545 S
O976   C1278   1.223   .     S
O977   H978    1.014   .     S
N979   H980    1.032   .     S
N979   C1261   1.434   .     S
N979   C1284   1.448   .     S
C981   H984    1.111   .     S
C981   H983    1.111   .     S
C981   H982    1.110   .     S
C981   N1585   1.448   1_545 S
N985   H986    1.031   .     S
N985   C987    1.447   .     S
C987   H989    1.111   .     S
C987   H988    1.110   .     S
C987   H990    1.109   .     S
N991   C993    1.447   .     S
N991   H992    1.031   .     S
C993   H995    1.111   .     S
C993   H85     1.110   1_556 S
C993   H87     1.111   1_556 S
C997   O999    1.397   .     S
C997   O998    1.223   .     D
O999   H1000   1.014   .     S
C1001  O1003   1.396   .     S
C1001  O1002   1.223   .     D
O1003  H1004   1.011   .     S
N1005  C1007   1.447   .     S
N1005  H1006   1.030   .     S
C1007  H1008   1.110   .     S
C1007  H1010   1.111   .     S
C1007  H1009   1.111   .     S
Zn1011 O1015   1.947   .     S
Zn1011 O1023   1.922   .     S
Zn1011 O1017   1.933   .     S
Zn1011 O1024   1.941   .     S
Zn1012 O1026   1.930   .     S
Zn1012 O1015   1.951   .     S
Zn1012 O1020   1.924   .     S
Zn1012 O1018   1.939   .     S
Zn1013 O1022   1.928   .     S
Zn1013 O1019   1.937   .     S
Zn1013 O1015   1.942   .     S
Zn1013 O1027   1.935   .     S
Zn1014 O1021   1.928   .     S
Zn1014 O1016   1.939   .     S
Zn1014 O1015   1.934   .     S
Zn1014 O1025   1.941   .     S
O1016  C1028   1.267   .     A
O1017  C1029   1.271   .     A
O1018  C1030   1.277   .     A
O1019  C1031   1.275   .     A
O1020  C1032   1.279   .     A
O1021  C1033   1.282   .     A
O1022  C1032   1.282   .     A
O1023  C1033   1.292   .     A
O1024  C1030   1.264   .     A
O1025  C1031   1.272   .     A
O1026  C1028   1.269   .     A
O1027  C1029   1.283   .     A
C1028  C1057   1.430   .     S
C1029  C1055   1.454   .     S
C1030  C1059   1.436   .     S
C1031  C1058   1.464   .     S
C1032  C1035   1.453   .     S
C1033  C1034   1.499   .     S
C1034  C1037   1.422   .     A
C1034  C1038   1.410   .     A
C1035  C1050   1.391   .     A
C1035  C1051   1.386   .     A
C1036  C1037   1.414   .     A
C1036  N1092   1.427   .     S
C1036  C1040   1.425   .     A
C1037  C1098   1.481   .     S
C1038  C1102   1.486   .     S
C1038  C1039   1.421   .     A
C1039  C1040   1.420   .     A
C1039  C1041   1.419   .     A
C1040  C135    1.429   1_556 S
C1041  C1045   1.406   .     A
C1041  C133    1.404   1_556 S
C1042  C1048   1.426   .     A
C1042  C1043   1.421   .     A
C1043  C1044   1.418   .     A
C1043  N1106   1.429   .     S
C1044  C1060   1.485   .     S
C1045  C1046   1.397   .     A
C1045  H1054   1.080   .     S
C1046  N1086   1.423   .     S
C1046  C138    1.415   1_556 S
C1047  C1048   1.429   .     A
C1047  C1049   1.426   .     A
C1048  C1051   1.405   .     A
C1049  N1064   1.422   .     S
C1049  C1050   1.400   .     A
C1050  H1053   1.084   .     S
C1051  H1052   1.081   .     S
C1055  H1157   1.088   .     S
C1055  C1158   1.345   .     S
C1058  C1362   1.358   .     S
C1058  C1379   1.499   .     S
C1059  C1664   1.358   1_545 S
C1059  N1686   1.434   1_545 S
C1060  O1062   1.397   .     S
C1060  O1061   1.223   .     D
H1063  O1163   1.014   .     S
N1064  C1066   1.446   .     S
N1064  H1065   1.032   .     S
C1066  H1068   1.111   .     S
H1067  C157    1.110   1_556 S
H1069  C157    1.111   1_556 S
N1070  C1072   1.448   .     S
N1070  H1071   1.030   .     S
N1070  C1158   1.427   .     S
C1072  H1073   1.108   .     S
C1072  H1175   1.111   .     S
C1072  H1176   1.111   .     S
C1076  O1078   1.399   .     S
C1076  C1664   1.499   1_545 S
C1076  O1683   1.223   1_545 S
O1077  C1379   1.223   .     S
O1078  H1079   1.014   .     S
N1080  H1081   1.032   .     S
N1080  C1362   1.434   .     S
N1080  C1385   1.448   .     S
C1082  H1085   1.111   .     S
C1082  H1084   1.111   .     S
C1082  H1083   1.110   .     S
C1082  N1686   1.448   1_545 S
N1086  H1087   1.031   .     S
N1086  C1088   1.447   .     S
C1088  H1090   1.111   .     S
C1088  H1089   1.110   .     S
C1088  H1091   1.109   .     S
N1092  C1094   1.447   .     S
N1092  H1093   1.031   .     S
C1094  H1096   1.111   .     S
C1094  H186    1.110   1_556 S
C1094  H188    1.111   1_556 S
C1098  O1100   1.397   .     S
C1098  O1099   1.223   .     D
O1100  H1101   1.014   .     S
C1102  O1104   1.396   .     S
C1102  O1103   1.223   .     D
O1104  H1105   1.011   .     S
N1106  C1108   1.447   .     S
N1106  H1107   1.030   .     S
C1108  H1109   1.110   .     S
C1108  H1111   1.111   .     S
C1108  H1110   1.111   .     S
Zn1112 O1116   1.947   .     S
Zn1112 O1124   1.922   .     S
Zn1112 O1118   1.933   .     S
Zn1112 O1125   1.941   .     S
Zn1113 O1127   1.930   .     S
Zn1113 O1116   1.951   .     S
Zn1113 O1121   1.924   .     S
Zn1113 O1119   1.939   .     S
Zn1114 O1123   1.928   .     S
Zn1114 O1120   1.937   .     S
Zn1114 O1116   1.942   .     S
Zn1114 O1128   1.935   .     S
Zn1115 O1122   1.928   .     S
Zn1115 O1117   1.939   .     S
Zn1115 O1116   1.934   .     S
Zn1115 O1126   1.941   .     S
O1117  C1129   1.267   .     A
O1118  C1130   1.271   .     A
O1119  C1131   1.277   .     A
O1120  C1132   1.275   .     A
O1121  C1133   1.279   .     A
O1122  C1134   1.282   .     A
O1123  C1133   1.282   .     A
O1124  C1134   1.292   .     A
O1125  C1131   1.264   .     A
O1126  C1132   1.272   .     A
O1127  C1129   1.269   .     A
O1128  C1130   1.283   .     A
C1129  C1158   1.430   .     S
C1130  C1156   1.454   .     S
C1131  C1160   1.436   .     S
C1132  C1159   1.464   .     S
C1133  C1136   1.453   .     S
C1134  C1135   1.499   .     S
C1135  C1138   1.422   .     A
C1135  C1139   1.410   .     A
C1136  C1151   1.391   .     A
C1136  C1152   1.386   .     A
C1137  C1138   1.414   .     A
C1137  N1193   1.427   .     S
C1137  C1141   1.425   .     A
C1138  C1199   1.481   .     S
C1139  C1203   1.486   .     S
C1139  C1140   1.421   .     A
C1140  C1141   1.420   .     A
C1140  C1142   1.419   .     A
C1141  C236    1.429   1_556 S
C1142  C1146   1.406   .     A
C1142  C234    1.404   1_556 S
C1143  C1149   1.426   .     A
C1143  C1144   1.421   .     A
C1144  C1145   1.418   .     A
C1144  N1207   1.429   .     S
C1145  C1161   1.485   .     S
C1146  C1147   1.397   .     A
C1146  H1155   1.080   .     S
C1147  N1187   1.423   .     S
C1147  C239    1.415   1_556 S
C1148  C1149   1.429   .     A
C1148  C1150   1.426   .     A
C1149  C1152   1.405   .     A
C1150  N1165   1.422   .     S
C1150  C1151   1.400   .     A
C1151  H1154   1.084   .     S
C1152  H1153   1.081   .     S
C1156  H955    1.088   1_655 S
C1156  C956    1.345   1_655 S
C1159  C1463   1.358   .     S
C1159  C1480   1.499   .     S
C1160  C1765   1.358   1_545 S
C1160  N1787   1.434   1_545 S
C1161  O1163   1.397   .     S
C1161  O1162   1.223   .     D
H1164  O961    1.014   1_655 S
N1165  C1167   1.446   .     S
N1165  H1166   1.032   .     S
C1167  H1169   1.111   .     S
H1168  C258    1.110   1_556 S
H1170  C258    1.111   1_556 S
N1171  C1173   1.448   .     S
N1171  H1172   1.030   .     S
N1171  C956    1.427   1_655 S
C1173  H1174   1.108   .     S
C1173  H973    1.111   1_655 S
C1173  H974    1.111   1_655 S
C1177  O1179   1.399   .     S
C1177  C1765   1.499   1_545 S
C1177  O1784   1.223   1_545 S
O1178  C1480   1.223   .     S
O1179  H1180   1.014   .     S
N1181  H1182   1.032   .     S
N1181  C1463   1.434   .     S
N1181  C1486   1.448   .     S
C1183  H1186   1.111   .     S
C1183  H1185   1.111   .     S
C1183  H1184   1.110   .     S
C1183  N1787   1.448   1_545 S
N1187  H1188   1.031   .     S
N1187  C1189   1.447   .     S
C1189  H1191   1.111   .     S
C1189  H1190   1.110   .     S
C1189  H1192   1.109   .     S
N1193  C1195   1.447   .     S
N1193  H1194   1.031   .     S
C1195  H1197   1.111   .     S
C1195  H287    1.110   1_556 S
C1195  H289    1.111   1_556 S
C1199  O1201   1.397   .     S
C1199  O1200   1.223   .     D
O1201  H1202   1.014   .     S
C1203  O1205   1.396   .     S
C1203  O1204   1.223   .     D
O1205  H1206   1.011   .     S
N1207  C1209   1.447   .     S
N1207  H1208   1.030   .     S
C1209  H1210   1.110   .     S
C1209  H1212   1.111   .     S
C1209  H1211   1.111   .     S
Zn1213 O1217   1.947   .     S
Zn1213 O1225   1.922   .     S
Zn1213 O1219   1.933   .     S
Zn1213 O1226   1.941   .     S
Zn1214 O1228   1.930   .     S
Zn1214 O1217   1.951   .     S
Zn1214 O1222   1.924   .     S
Zn1214 O1220   1.939   .     S
Zn1215 O1224   1.928   .     S
Zn1215 O1221   1.937   .     S
Zn1215 O1217   1.942   .     S
Zn1215 O1229   1.935   .     S
Zn1216 O1223   1.928   .     S
Zn1216 O1218   1.939   .     S
Zn1216 O1217   1.934   .     S
Zn1216 O1227   1.941   .     S
O1218  C1230   1.267   .     A
O1219  C1231   1.271   .     A
O1220  C1232   1.277   .     A
O1221  C1233   1.275   .     A
O1222  C1234   1.279   .     A
O1223  C1235   1.282   .     A
O1224  C1234   1.282   .     A
O1225  C1235   1.292   .     A
O1226  C1232   1.264   .     A
O1227  C1233   1.272   .     A
O1228  C1230   1.269   .     A
O1229  C1231   1.283   .     A
C1230  C1259   1.430   .     S
C1231  C1257   1.454   .     S
C1232  C1261   1.436   .     S
C1233  C1260   1.464   .     S
C1234  C1237   1.453   .     S
C1235  C1236   1.499   .     S
C1236  C1239   1.422   .     A
C1236  C1240   1.410   .     A
C1237  C1252   1.391   .     A
C1237  C1253   1.386   .     A
C1238  C1239   1.414   .     A
C1238  N1294   1.427   .     S
C1238  C1242   1.425   .     A
C1239  C1300   1.481   .     S
C1240  C1304   1.486   .     S
C1240  C1241   1.421   .     A
C1241  C1242   1.420   .     A
C1241  C1243   1.419   .     A
C1242  C337    1.429   1_556 S
C1243  C1247   1.406   .     A
C1243  C335    1.404   1_556 S
C1244  C1250   1.426   .     A
C1244  C1245   1.421   .     A
C1245  C1246   1.418   .     A
C1245  N1308   1.429   .     S
C1246  C1262   1.485   .     S
C1247  C1248   1.397   .     A
C1247  H1256   1.080   .     S
C1248  N1288   1.423   .     S
C1248  C340    1.415   1_556 S
C1249  C1250   1.429   .     A
C1249  C1251   1.426   .     A
C1250  C1253   1.405   .     A
C1251  N1266   1.422   .     S
C1251  C1252   1.400   .     A
C1252  H1255   1.084   .     S
C1253  H1254   1.081   .     S
C1257  H1359   1.088   .     S
C1257  C1360   1.345   .     S
H1258  C1459   1.088   1_455 S
C1259  C1459   1.345   1_455 S
C1259  N1474   1.427   1_455 S
C1260  C1564   1.358   .     S
C1260  C1581   1.499   .     S
C1262  O1264   1.397   .     S
C1262  O1263   1.223   .     D
O1264  H1467   1.014   1_455 S
H1265  O1365   1.014   .     S
N1266  C1268   1.446   .     S
N1266  H1267   1.032   .     S
C1268  H1270   1.111   .     S
H1269  C359    1.110   1_556 S
H1271  C359    1.111   1_556 S
N1272  C1274   1.448   .     S
N1272  H1273   1.030   .     S
N1272  C1360   1.427   .     S
C1274  H1275   1.108   .     S
C1274  H1377   1.111   .     S
C1274  H1378   1.111   .     S
H1276  C1476   1.111   1_455 S
H1277  C1476   1.111   1_455 S
C1278  O1280   1.399   .     S
O1279  C1581   1.223   .     S
O1280  H1281   1.014   .     S
N1282  H1283   1.032   .     S
N1282  C1564   1.434   .     S
N1282  C1587   1.448   .     S
C1284  H1287   1.111   .     S
C1284  H1286   1.111   .     S
C1284  H1285   1.110   .     S
N1288  H1289   1.031   .     S
N1288  C1290   1.447   .     S
C1290  H1292   1.111   .     S
C1290  H1291   1.110   .     S
C1290  H1293   1.109   .     S
N1294  C1296   1.447   .     S
N1294  H1295   1.031   .     S
C1296  H1298   1.111   .     S
C1296  H388    1.110   1_556 S
C1296  H390    1.111   1_556 S
C1300  O1302   1.397   .     S
C1300  O1301   1.223   .     D
O1302  H1303   1.014   .     S
C1304  O1306   1.396   .     S
C1304  O1305   1.223   .     D
O1306  H1307   1.011   .     S
N1308  C1310   1.447   .     S
N1308  H1309   1.030   .     S
C1310  H1311   1.110   .     S
C1310  H1313   1.111   .     S
C1310  H1312   1.111   .     S
Zn1314 O1318   1.947   .     S
Zn1314 O1326   1.922   .     S
Zn1314 O1320   1.933   .     S
Zn1314 O1327   1.941   .     S
Zn1315 O1329   1.930   .     S
Zn1315 O1318   1.951   .     S
Zn1315 O1323   1.924   .     S
Zn1315 O1321   1.939   .     S
Zn1316 O1325   1.928   .     S
Zn1316 O1322   1.937   .     S
Zn1316 O1318   1.942   .     S
Zn1316 O1330   1.935   .     S
Zn1317 O1324   1.928   .     S
Zn1317 O1319   1.939   .     S
Zn1317 O1318   1.934   .     S
Zn1317 O1328   1.941   .     S
O1319  C1331   1.267   .     A
O1320  C1332   1.271   .     A
O1321  C1333   1.277   .     A
O1322  C1334   1.275   .     A
O1323  C1335   1.279   .     A
O1324  C1336   1.282   .     A
O1325  C1335   1.282   .     A
O1326  C1336   1.292   .     A
O1327  C1333   1.264   .     A
O1328  C1334   1.272   .     A
O1329  C1331   1.269   .     A
O1330  C1332   1.283   .     A
C1331  C1360   1.430   .     S
C1332  C1358   1.454   .     S
C1333  C1362   1.436   .     S
C1334  C1361   1.464   .     S
C1335  C1338   1.453   .     S
C1336  C1337   1.499   .     S
C1337  C1340   1.422   .     A
C1337  C1341   1.410   .     A
C1338  C1353   1.391   .     A
C1338  C1354   1.386   .     A
C1339  C1340   1.414   .     A
C1339  N1395   1.427   .     S
C1339  C1343   1.425   .     A
C1340  C1401   1.481   .     S
C1341  C1405   1.486   .     S
C1341  C1342   1.421   .     A
C1342  C1343   1.420   .     A
C1342  C1344   1.419   .     A
C1343  C438    1.429   1_556 S
C1344  C1348   1.406   .     A
C1344  C436    1.404   1_556 S
C1345  C1351   1.426   .     A
C1345  C1346   1.421   .     A
C1346  C1347   1.418   .     A
C1346  N1409   1.429   .     S
C1347  C1363   1.485   .     S
C1348  C1349   1.397   .     A
C1348  H1357   1.080   .     S
C1349  N1389   1.423   .     S
C1349  C441    1.415   1_556 S
C1350  C1351   1.429   .     A
C1350  C1352   1.426   .     A
C1351  C1354   1.405   .     A
C1352  N1367   1.422   .     S
C1352  C1353   1.400   .     A
C1353  H1356   1.084   .     S
C1354  H1355   1.081   .     S
C1358  H1460   1.088   .     S
C1358  C1461   1.345   .     S
C1361  C1665   1.358   .     S
C1361  C1682   1.499   .     S
C1363  O1365   1.397   .     S
C1363  O1364   1.223   .     D
H1366  O1466   1.014   .     S
N1367  C1369   1.446   .     S
N1367  H1368   1.032   .     S
C1369  H1371   1.111   .     S
H1370  C460    1.110   1_556 S
H1372  C460    1.111   1_556 S
N1373  C1375   1.448   .     S
N1373  H1374   1.030   .     S
N1373  C1461   1.427   .     S
C1375  H1376   1.108   .     S
C1375  H1478   1.111   .     S
C1375  H1479   1.111   .     S
C1379  O1381   1.399   .     S
O1380  C1682   1.223   .     S
O1381  H1382   1.014   .     S
N1383  H1384   1.032   .     S
N1383  C1665   1.434   .     S
N1383  C1688   1.448   .     S
C1385  H1388   1.111   .     S
C1385  H1387   1.111   .     S
C1385  H1386   1.110   .     S
N1389  H1390   1.031   .     S
N1389  C1391   1.447   .     S
C1391  H1393   1.111   .     S
C1391  H1392   1.110   .     S
C1391  H1394   1.109   .     S
N1395  C1397   1.447   .     S
N1395  H1396   1.031   .     S
C1397  H1399   1.111   .     S
C1397  H489    1.110   1_556 S
C1397  H491    1.111   1_556 S
C1401  O1403   1.397   .     S
C1401  O1402   1.223   .     D
O1403  H1404   1.014   .     S
C1405  O1407   1.396   .     S
C1405  O1406   1.223   .     D
O1407  H1408   1.011   .     S
N1409  C1411   1.447   .     S
N1409  H1410   1.030   .     S
C1411  H1412   1.110   .     S
C1411  H1414   1.111   .     S
C1411  H1413   1.111   .     S
Zn1415 O1419   1.947   .     S
Zn1415 O1427   1.922   .     S
Zn1415 O1421   1.933   .     S
Zn1415 O1428   1.941   .     S
Zn1416 O1430   1.930   .     S
Zn1416 O1419   1.951   .     S
Zn1416 O1424   1.924   .     S
Zn1416 O1422   1.939   .     S
Zn1417 O1426   1.928   .     S
Zn1417 O1423   1.937   .     S
Zn1417 O1419   1.942   .     S
Zn1417 O1431   1.935   .     S
Zn1418 O1425   1.928   .     S
Zn1418 O1420   1.939   .     S
Zn1418 O1419   1.934   .     S
Zn1418 O1429   1.941   .     S
O1420  C1432   1.267   .     A
O1421  C1433   1.271   .     A
O1422  C1434   1.277   .     A
O1423  C1435   1.275   .     A
O1424  C1436   1.279   .     A
O1425  C1437   1.282   .     A
O1426  C1436   1.282   .     A
O1427  C1437   1.292   .     A
O1428  C1434   1.264   .     A
O1429  C1435   1.272   .     A
O1430  C1432   1.269   .     A
O1431  C1433   1.283   .     A
C1432  C1461   1.430   .     S
C1433  C1459   1.454   .     S
C1434  C1463   1.436   .     S
C1435  C1462   1.464   .     S
C1436  C1439   1.453   .     S
C1437  C1438   1.499   .     S
C1438  C1441   1.422   .     A
C1438  C1442   1.410   .     A
C1439  C1454   1.391   .     A
C1439  C1455   1.386   .     A
C1440  C1441   1.414   .     A
C1440  N1496   1.427   .     S
C1440  C1444   1.425   .     A
C1441  C1502   1.481   .     S
C1442  C1506   1.486   .     S
C1442  C1443   1.421   .     A
C1443  C1444   1.420   .     A
C1443  C1445   1.419   .     A
C1444  C539    1.429   1_556 S
C1445  C1449   1.406   .     A
C1445  C537    1.404   1_556 S
C1446  C1452   1.426   .     A
C1446  C1447   1.421   .     A
C1447  C1448   1.418   .     A
C1447  N1510   1.429   .     S
C1448  C1464   1.485   .     S
C1449  C1450   1.397   .     A
C1449  H1458   1.080   .     S
C1450  N1490   1.423   .     S
C1450  C542    1.415   1_556 S
C1451  C1452   1.429   .     A
C1451  C1453   1.426   .     A
C1452  C1455   1.405   .     A
C1453  N1468   1.422   .     S
C1453  C1454   1.400   .     A
C1454  H1457   1.084   .     S
C1455  H1456   1.081   .     S
C1459  H1258   1.088   1_655 S
C1459  C1259   1.345   1_655 S
C1462  C1766   1.358   .     S
C1462  C1783   1.499   .     S
C1464  O1466   1.397   .     S
C1464  O1465   1.223   .     D
H1467  O1264   1.014   1_655 S
N1468  C1470   1.446   .     S
N1468  H1469   1.032   .     S
C1470  H1472   1.111   .     S
H1471  C561    1.110   1_556 S
H1473  C561    1.111   1_556 S
N1474  C1476   1.448   .     S
N1474  H1475   1.030   .     S
N1474  C1259   1.427   1_655 S
C1476  H1477   1.108   .     S
C1476  H1276   1.111   1_655 S
C1476  H1277   1.111   1_655 S
C1480  O1482   1.399   .     S
O1481  C1783   1.223   .     S
O1482  H1483   1.014   .     S
N1484  H1485   1.032   .     S
N1484  C1766   1.434   .     S
N1484  C1789   1.448   .     S
C1486  H1489   1.111   .     S
C1486  H1488   1.111   .     S
C1486  H1487   1.110   .     S
N1490  H1491   1.031   .     S
N1490  C1492   1.447   .     S
C1492  H1494   1.111   .     S
C1492  H1493   1.110   .     S
C1492  H1495   1.109   .     S
N1496  C1498   1.447   .     S
N1496  H1497   1.031   .     S
C1498  H1500   1.111   .     S
C1498  H590    1.110   1_556 S
C1498  H592    1.111   1_556 S
C1502  O1504   1.397   .     S
C1502  O1503   1.223   .     D
O1504  H1505   1.014   .     S
C1506  O1508   1.396   .     S
C1506  O1507   1.223   .     D
O1508  H1509   1.011   .     S
N1510  C1512   1.447   .     S
N1510  H1511   1.030   .     S
C1512  H1513   1.110   .     S
C1512  H1515   1.111   .     S
C1512  H1514   1.111   .     S
Zn1516 O1520   1.947   .     S
Zn1516 O1528   1.922   .     S
Zn1516 O1522   1.933   .     S
Zn1516 O1529   1.941   .     S
Zn1517 O1531   1.930   .     S
Zn1517 O1520   1.951   .     S
Zn1517 O1525   1.924   .     S
Zn1517 O1523   1.939   .     S
Zn1518 O1527   1.928   .     S
Zn1518 O1524   1.937   .     S
Zn1518 O1520   1.942   .     S
Zn1518 O1532   1.935   .     S
Zn1519 O1526   1.928   .     S
Zn1519 O1521   1.939   .     S
Zn1519 O1520   1.934   .     S
Zn1519 O1530   1.941   .     S
O1521  C1533   1.267   .     A
O1522  C1534   1.271   .     A
O1523  C1535   1.277   .     A
O1524  C1536   1.275   .     A
O1525  C1537   1.279   .     A
O1526  C1538   1.282   .     A
O1527  C1537   1.282   .     A
O1528  C1538   1.292   .     A
O1529  C1535   1.264   .     A
O1530  C1536   1.272   .     A
O1531  C1533   1.269   .     A
O1532  C1534   1.283   .     A
C1533  C1562   1.430   .     S
C1534  C1560   1.454   .     S
C1535  C1564   1.436   .     S
C1536  C1563   1.464   .     S
C1537  C1540   1.453   .     S
C1538  C1539   1.499   .     S
C1539  C1542   1.422   .     A
C1539  C1543   1.410   .     A
C1540  C1555   1.391   .     A
C1540  C1556   1.386   .     A
C1541  C1542   1.414   .     A
C1541  N1597   1.427   .     S
C1541  C1545   1.425   .     A
C1542  C1603   1.481   .     S
C1543  C1607   1.486   .     S
C1543  C1544   1.421   .     A
C1544  C1545   1.420   .     A
C1544  C1546   1.419   .     A
C1545  C640    1.429   1_556 S
C1546  C1550   1.406   .     A
C1546  C638    1.404   1_556 S
C1547  C1553   1.426   .     A
C1547  C1548   1.421   .     A
C1548  C1549   1.418   .     A
C1548  N1611   1.429   .     S
C1549  C1565   1.485   .     S
C1550  C1551   1.397   .     A
C1550  H1559   1.080   .     S
C1551  N1591   1.423   .     S
C1551  C643    1.415   1_556 S
C1552  C1553   1.429   .     A
C1552  C1554   1.426   .     A
C1553  C1556   1.405   .     A
C1554  N1569   1.422   .     S
C1554  C1555   1.400   .     A
C1555  H1558   1.084   .     S
C1556  H1557   1.081   .     S
C1560  H1662   1.088   .     S
C1560  C1663   1.345   .     S
H1561  C1762   1.088   1_455 S
C1562  C1762   1.345   1_455 S
C1562  N1777   1.427   1_455 S
C1563  C958    1.358   1_565 S
C1563  C975    1.499   1_565 S
C1565  O1567   1.397   .     S
C1565  O1566   1.223   .     D
O1567  H1770   1.014   1_455 S
H1568  O1668   1.014   .     S
N1569  C1571   1.446   .     S
N1569  H1570   1.032   .     S
C1571  H1573   1.111   .     S
H1572  C662    1.110   1_556 S
H1574  C662    1.111   1_556 S
N1575  C1577   1.448   .     S
N1575  H1576   1.030   .     S
N1575  C1663   1.427   .     S
C1577  H1578   1.108   .     S
C1577  H1680   1.111   .     S
C1577  H1681   1.111   .     S
H1579  C1779   1.111   1_455 S
H1580  C1779   1.111   1_455 S
C1581  O1583   1.399   .     S
O1582  C975    1.223   1_565 S
O1583  H1584   1.014   .     S
N1585  H1586   1.032   .     S
N1585  C958    1.434   1_565 S
N1585  C981    1.448   1_565 S
C1587  H1590   1.111   .     S
C1587  H1589   1.111   .     S
C1587  H1588   1.110   .     S
N1591  H1592   1.031   .     S
N1591  C1593   1.447   .     S
C1593  H1595   1.111   .     S
C1593  H1594   1.110   .     S
C1593  H1596   1.109   .     S
N1597  C1599   1.447   .     S
N1597  H1598   1.031   .     S
C1599  H1601   1.111   .     S
C1599  H691    1.110   1_556 S
C1599  H693    1.111   1_556 S
C1603  O1605   1.397   .     S
C1603  O1604   1.223   .     D
O1605  H1606   1.014   .     S
C1607  O1609   1.396   .     S
C1607  O1608   1.223   .     D
O1609  H1610   1.011   .     S
N1611  C1613   1.447   .     S
N1611  H1612   1.030   .     S
C1613  H1614   1.110   .     S
C1613  H1616   1.111   .     S
C1613  H1615   1.111   .     S
Zn1617 O1621   1.947   .     S
Zn1617 O1629   1.922   .     S
Zn1617 O1623   1.933   .     S
Zn1617 O1630   1.941   .     S
Zn1618 O1632   1.930   .     S
Zn1618 O1621   1.951   .     S
Zn1618 O1626   1.924   .     S
Zn1618 O1624   1.939   .     S
Zn1619 O1628   1.928   .     S
Zn1619 O1625   1.937   .     S
Zn1619 O1621   1.942   .     S
Zn1619 O1633   1.935   .     S
Zn1620 O1627   1.928   .     S
Zn1620 O1622   1.939   .     S
Zn1620 O1621   1.934   .     S
Zn1620 O1631   1.941   .     S
O1622  C1634   1.267   .     A
O1623  C1635   1.271   .     A
O1624  C1636   1.277   .     A
O1625  C1637   1.275   .     A
O1626  C1638   1.279   .     A
O1627  C1639   1.282   .     A
O1628  C1638   1.282   .     A
O1629  C1639   1.292   .     A
O1630  C1636   1.264   .     A
O1631  C1637   1.272   .     A
O1632  C1634   1.269   .     A
O1633  C1635   1.283   .     A
C1634  C1663   1.430   .     S
C1635  C1661   1.454   .     S
C1636  C1665   1.436   .     S
C1637  C1664   1.464   .     S
C1638  C1641   1.453   .     S
C1639  C1640   1.499   .     S
C1640  C1643   1.422   .     A
C1640  C1644   1.410   .     A
C1641  C1656   1.391   .     A
C1641  C1657   1.386   .     A
C1642  C1643   1.414   .     A
C1642  N1698   1.427   .     S
C1642  C1646   1.425   .     A
C1643  C1704   1.481   .     S
C1644  C1708   1.486   .     S
C1644  C1645   1.421   .     A
C1645  C1646   1.420   .     A
C1645  C1647   1.419   .     A
C1646  C741    1.429   1_556 S
C1647  C1651   1.406   .     A
C1647  C739    1.404   1_556 S
C1648  C1654   1.426   .     A
C1648  C1649   1.421   .     A
C1649  C1650   1.418   .     A
C1649  N1712   1.429   .     S
C1650  C1666   1.485   .     S
C1651  C1652   1.397   .     A
C1651  H1660   1.080   .     S
C1652  N1692   1.423   .     S
C1652  C744    1.415   1_556 S
C1653  C1654   1.429   .     A
C1653  C1655   1.426   .     A
C1654  C1657   1.405   .     A
C1655  N1670   1.422   .     S
C1655  C1656   1.400   .     A
C1656  H1659   1.084   .     S
C1657  H1658   1.081   .     S
C1661  H1763   1.088   .     S
C1661  C1764   1.345   .     S
C1664  C1059   1.358   1_565 S
C1664  C1076   1.499   1_565 S
C1666  O1668   1.397   .     S
C1666  O1667   1.223   .     D
H1669  O1769   1.014   .     S
N1670  C1672   1.446   .     S
N1670  H1671   1.032   .     S
C1672  H1674   1.111   .     S
H1673  C763    1.110   1_556 S
H1675  C763    1.111   1_556 S
N1676  C1678   1.448   .     S
N1676  H1677   1.030   .     S
N1676  C1764   1.427   .     S
C1678  H1679   1.108   .     S
C1678  H1781   1.111   .     S
C1678  H1782   1.111   .     S
C1682  O1684   1.399   .     S
O1683  C1076   1.223   1_565 S
O1684  H1685   1.014   .     S
N1686  H1687   1.032   .     S
N1686  C1059   1.434   1_565 S
N1686  C1082   1.448   1_565 S
C1688  H1691   1.111   .     S
C1688  H1690   1.111   .     S
C1688  H1689   1.110   .     S
N1692  H1693   1.031   .     S
N1692  C1694   1.447   .     S
C1694  H1696   1.111   .     S
C1694  H1695   1.110   .     S
C1694  H1697   1.109   .     S
N1698  C1700   1.447   .     S
N1698  H1699   1.031   .     S
C1700  H1702   1.111   .     S
C1700  H792    1.110   1_556 S
C1700  H794    1.111   1_556 S
C1704  O1706   1.397   .     S
C1704  O1705   1.223   .     D
O1706  H1707   1.014   .     S
C1708  O1710   1.396   .     S
C1708  O1709   1.223   .     D
O1710  H1711   1.011   .     S
N1712  C1714   1.447   .     S
N1712  H1713   1.030   .     S
C1714  H1715   1.110   .     S
C1714  H1717   1.111   .     S
C1714  H1716   1.111   .     S
Zn1718 O1722   1.947   .     S
Zn1718 O1730   1.922   .     S
Zn1718 O1724   1.933   .     S
Zn1718 O1731   1.941   .     S
Zn1719 O1733   1.930   .     S
Zn1719 O1722   1.951   .     S
Zn1719 O1727   1.924   .     S
Zn1719 O1725   1.939   .     S
Zn1720 O1729   1.928   .     S
Zn1720 O1726   1.937   .     S
Zn1720 O1722   1.942   .     S
Zn1720 O1734   1.935   .     S
Zn1721 O1728   1.928   .     S
Zn1721 O1723   1.939   .     S
Zn1721 O1722   1.934   .     S
Zn1721 O1732   1.941   .     S
O1723  C1735   1.267   .     A
O1724  C1736   1.271   .     A
O1725  C1737   1.277   .     A
O1726  C1738   1.275   .     A
O1727  C1739   1.279   .     A
O1728  C1740   1.282   .     A
O1729  C1739   1.282   .     A
O1730  C1740   1.292   .     A
O1731  C1737   1.264   .     A
O1732  C1738   1.272   .     A
O1733  C1735   1.269   .     A
O1734  C1736   1.283   .     A
C1735  C1764   1.430   .     S
C1736  C1762   1.454   .     S
C1737  C1766   1.436   .     S
C1738  C1765   1.464   .     S
C1739  C1742   1.453   .     S
C1740  C1741   1.499   .     S
C1741  C1744   1.422   .     A
C1741  C1745   1.410   .     A
C1742  C1757   1.391   .     A
C1742  C1758   1.386   .     A
C1743  C1744   1.414   .     A
C1743  N1799   1.427   .     S
C1743  C1747   1.425   .     A
C1744  C1805   1.481   .     S
C1745  C1809   1.486   .     S
C1745  C1746   1.421   .     A
C1746  C1747   1.420   .     A
C1746  C1748   1.419   .     A
C1747  C842    1.429   1_556 S
C1748  C1752   1.406   .     A
C1748  C840    1.404   1_556 S
C1749  C1755   1.426   .     A
C1749  C1750   1.421   .     A
C1750  C1751   1.418   .     A
C1750  N1813   1.429   .     S
C1751  C1767   1.485   .     S
C1752  C1753   1.397   .     A
C1752  H1761   1.080   .     S
C1753  N1793   1.423   .     S
C1753  C845    1.415   1_556 S
C1754  C1755   1.429   .     A
C1754  C1756   1.426   .     A
C1755  C1758   1.405   .     A
C1756  N1771   1.422   .     S
C1756  C1757   1.400   .     A
C1757  H1760   1.084   .     S
C1758  H1759   1.081   .     S
C1762  H1561   1.088   1_655 S
C1762  C1562   1.345   1_655 S
C1765  C1160   1.358   1_565 S
C1765  C1177   1.499   1_565 S
C1767  O1769   1.397   .     S
C1767  O1768   1.223   .     D
H1770  O1567   1.014   1_655 S
N1771  C1773   1.446   .     S
N1771  H1772   1.032   .     S
C1773  H1775   1.111   .     S
H1774  C864    1.110   1_556 S
H1776  C864    1.111   1_556 S
N1777  C1779   1.448   .     S
N1777  H1778   1.030   .     S
N1777  C1562   1.427   1_655 S
C1779  H1780   1.108   .     S
C1779  H1579   1.111   1_655 S
C1779  H1580   1.111   1_655 S
C1783  O1785   1.399   .     S
O1784  C1177   1.223   1_565 S
O1785  H1786   1.014   .     S
N1787  H1788   1.032   .     S
N1787  C1160   1.434   1_565 S
N1787  C1183   1.448   1_565 S
C1789  H1792   1.111   .     S
C1789  H1791   1.111   .     S
C1789  H1790   1.110   .     S
N1793  H1794   1.031   .     S
N1793  C1795   1.447   .     S
C1795  H1797   1.111   .     S
C1795  H1796   1.110   .     S
C1795  H1798   1.109   .     S
N1799  C1801   1.447   .     S
N1799  H1800   1.031   .     S
C1801  H1803   1.111   .     S
C1801  H893    1.110   1_556 S
C1801  H895    1.111   1_556 S
C1805  O1807   1.397   .     S
C1805  O1806   1.223   .     D
O1807  H1808   1.014   .     S
C1809  O1811   1.396   .     S
C1809  O1810   1.223   .     D
O1811  H1812   1.011   .     S
N1813  C1815   1.447   .     S
N1813  H1814   1.030   .     S
C1815  H1816   1.110   .     S
C1815  H1818   1.111   .     S
C1815  H1817   1.111   .     S
