data_str_m3_o1_o10_pcu_sym.105
_audit_creation_date              2020-01-03
_audit_creation_method            'Materials Studio'
_symmetry_space_group_name_H-M    'P1'
_symmetry_Int_Tables_number       1
_symmetry_cell_setting            triclinic
loop_
_symmetry_equiv_pos_as_xyz
  x,y,z
_cell_length_a                    25.7825
_cell_length_b                    32.1866
_cell_length_c                    29.5483
_cell_angle_alpha                 90.0408
_cell_angle_beta                  98.6849
_cell_angle_gamma                 90.1516
loop_
_atom_site_label
_atom_site_type_symbol
_atom_site_fract_x
_atom_site_fract_y
_atom_site_fract_z
_atom_site_U_iso_or_equiv
_atom_site_adp_type
_atom_site_occupancy
C1     C     0.16662   0.08662   0.16664   0.00000  Uiso   1.00
C2     C     0.16672   0.24671   0.16670   0.00000  Uiso   1.00
C3     C     0.06703   0.16665   0.15468   0.00000  Uiso   1.00
C4     C     0.26630   0.16668   0.17865   0.00000  Uiso   1.00
C5     C     0.01198   0.16668   0.14824   0.00000  Uiso   1.00
C6     C     0.32135   0.16665   0.18509   0.00000  Uiso   1.00
C7     C     0.16616   0.02124   0.12531   0.00000  Uiso   1.00
C8     C     0.16718   0.31209   0.20802   0.00000  Uiso   1.00
C9     C     0.16623   0.31202   0.12534   0.00000  Uiso   1.00
C10    C     0.16710   0.02131   0.20799   0.00000  Uiso   1.00
C11    C     0.16673   0.29087   0.16670   0.00000  Uiso   1.00
C12    C     0.16661   0.04247   0.16664   0.00000  Uiso   1.00
C13    C     0.19893   0.19280   0.02826   0.00000  Uiso   1.00
C14    C     0.13440   0.14053   0.30507   0.00000  Uiso   1.00
C15    C     0.19895   0.19281   0.31365   0.00000  Uiso   1.00
C16    C     0.13439   0.14053   0.01968   0.00000  Uiso   1.00
H17    H     0.32466   0.16675   0.11329   0.00000  Uiso   1.00
H18    H     0.00867   0.16659   0.22004   0.00000  Uiso   1.00
H19    H     0.16574   0.03734   0.09307   0.00000  Uiso   1.00
H20    H     0.16760   0.29599   0.24026   0.00000  Uiso   1.00
H21    H     0.16588   0.29587   0.09311   0.00000  Uiso   1.00
H22    H     0.16745   0.03747   0.24022   0.00000  Uiso   1.00
H23    H     0.22472   0.21368   0.04987   0.00000  Uiso   1.00
H24    H     0.10861   0.11965   0.28346   0.00000  Uiso   1.00
N25    N     0.16665   0.16666   0.28573   0.00000  Uiso   1.00
N26    N     0.16668   0.16668   0.04760   0.00000  Uiso   1.00
O27    O     0.16666   0.10558   0.20487   0.00000  Uiso   1.00
O28    O     0.16667   0.22775   0.12846   0.00000  Uiso   1.00
O29    O     0.16666   0.10559   0.12843   0.00000  Uiso   1.00
O30    O     0.16667   0.22774   0.20490   0.00000  Uiso   1.00
O31    O     0.09058   0.16666   0.19595   0.00000  Uiso   1.00
O32    O     0.24275   0.16667   0.13739   0.00000  Uiso   1.00
O33    O     0.09058   0.16667   0.11950   0.00000  Uiso   1.00
O34    O     0.24275   0.16666   0.21383   0.00000  Uiso   1.00
Zn35   Zn    0.16667   0.16666   0.21771   0.00000  Uiso   1.00
Zn36   Zn    0.16667   0.16667   0.11563   0.00000  Uiso   1.00
F37    F     0.23135   0.21902   0.29533   0.00000  Uiso   1.00
F38    F     0.10198   0.11432   0.03800   0.00000  Uiso   1.00
C39    C     0.49995   0.08662   0.16664   0.00000  Uiso   1.00
C40    C     0.50005   0.24671   0.16670   0.00000  Uiso   1.00
C41    C     0.40036   0.16665   0.15468   0.00000  Uiso   1.00
C42    C     0.59964   0.16668   0.17865   0.00000  Uiso   1.00
C43    C     0.34532   0.16668   0.14824   0.00000  Uiso   1.00
C44    C     0.65468   0.16665   0.18509   0.00000  Uiso   1.00
C45    C     0.49949   0.02124   0.12531   0.00000  Uiso   1.00
C46    C     0.50051   0.31209   0.20802   0.00000  Uiso   1.00
C47    C     0.49957   0.31202   0.12534   0.00000  Uiso   1.00
C48    C     0.50043   0.02131   0.20799   0.00000  Uiso   1.00
C49    C     0.50006   0.29087   0.16670   0.00000  Uiso   1.00
C50    C     0.49994   0.04247   0.16664   0.00000  Uiso   1.00
C51    C     0.53227   0.19280   0.02826   0.00000  Uiso   1.00
C52    C     0.46773   0.14053   0.30507   0.00000  Uiso   1.00
C53    C     0.53228   0.19281   0.31365   0.00000  Uiso   1.00
C54    C     0.46772   0.14053   0.01968   0.00000  Uiso   1.00
H55    H     0.65799   0.16675   0.11329   0.00000  Uiso   1.00
H56    H     0.34201   0.16659   0.22004   0.00000  Uiso   1.00
H57    H     0.49907   0.03734   0.09307   0.00000  Uiso   1.00
H58    H     0.50093   0.29599   0.24026   0.00000  Uiso   1.00
H59    H     0.49922   0.29587   0.09311   0.00000  Uiso   1.00
H60    H     0.50078   0.03747   0.24022   0.00000  Uiso   1.00
H61    H     0.55806   0.21368   0.04987   0.00000  Uiso   1.00
H62    H     0.44194   0.11965   0.28346   0.00000  Uiso   1.00
N63    N     0.49999   0.16666   0.28573   0.00000  Uiso   1.00
N64    N     0.50001   0.16668   0.04760   0.00000  Uiso   1.00
O65    O     0.50000   0.10558   0.20487   0.00000  Uiso   1.00
O66    O     0.50000   0.22775   0.12846   0.00000  Uiso   1.00
O67    O     0.50000   0.10559   0.12843   0.00000  Uiso   1.00
O68    O     0.50000   0.22774   0.20490   0.00000  Uiso   1.00
O69    O     0.42392   0.16666   0.19595   0.00000  Uiso   1.00
O70    O     0.57608   0.16667   0.13739   0.00000  Uiso   1.00
O71    O     0.42392   0.16667   0.11950   0.00000  Uiso   1.00
O72    O     0.57608   0.16666   0.21383   0.00000  Uiso   1.00
Zn73   Zn    0.50000   0.16666   0.21771   0.00000  Uiso   1.00
Zn74   Zn    0.50000   0.16667   0.11563   0.00000  Uiso   1.00
F75    F     0.56468   0.21902   0.29533   0.00000  Uiso   1.00
F76    F     0.43532   0.11432   0.03800   0.00000  Uiso   1.00
C77    C     0.83328   0.08662   0.16664   0.00000  Uiso   1.00
C78    C     0.83338   0.24671   0.16670   0.00000  Uiso   1.00
C79    C     0.73370   0.16665   0.15468   0.00000  Uiso   1.00
C80    C     0.93297   0.16668   0.17865   0.00000  Uiso   1.00
C81    C     0.67865   0.16668   0.14824   0.00000  Uiso   1.00
C82    C     0.98802   0.16665   0.18509   0.00000  Uiso   1.00
C83    C     0.83282   0.02124   0.12531   0.00000  Uiso   1.00
C84    C     0.83384   0.31209   0.20802   0.00000  Uiso   1.00
C85    C     0.83290   0.31202   0.12534   0.00000  Uiso   1.00
C86    C     0.83377   0.02131   0.20799   0.00000  Uiso   1.00
C87    C     0.83339   0.29087   0.16670   0.00000  Uiso   1.00
C88    C     0.83327   0.04247   0.16664   0.00000  Uiso   1.00
C89    C     0.86560   0.19280   0.02826   0.00000  Uiso   1.00
C90    C     0.80107   0.14053   0.30507   0.00000  Uiso   1.00
C91    C     0.86561   0.19281   0.31365   0.00000  Uiso   1.00
C92    C     0.80105   0.14053   0.01968   0.00000  Uiso   1.00
H93    H     0.99133   0.16675   0.11329   0.00000  Uiso   1.00
H94    H     0.67534   0.16659   0.22004   0.00000  Uiso   1.00
H95    H     0.83240   0.03734   0.09307   0.00000  Uiso   1.00
H96    H     0.83426   0.29599   0.24026   0.00000  Uiso   1.00
H97    H     0.83255   0.29587   0.09311   0.00000  Uiso   1.00
H98    H     0.83412   0.03747   0.24022   0.00000  Uiso   1.00
H99    H     0.89139   0.21368   0.04987   0.00000  Uiso   1.00
H100   H     0.77528   0.11965   0.28346   0.00000  Uiso   1.00
N101   N     0.83332   0.16666   0.28573   0.00000  Uiso   1.00
N102   N     0.83335   0.16668   0.04760   0.00000  Uiso   1.00
O103   O     0.83333   0.10558   0.20487   0.00000  Uiso   1.00
O104   O     0.83334   0.22775   0.12846   0.00000  Uiso   1.00
O105   O     0.83333   0.10559   0.12843   0.00000  Uiso   1.00
O106   O     0.83334   0.22774   0.20490   0.00000  Uiso   1.00
O107   O     0.75725   0.16666   0.19595   0.00000  Uiso   1.00
O108   O     0.90942   0.16667   0.13739   0.00000  Uiso   1.00
O109   O     0.75725   0.16667   0.11950   0.00000  Uiso   1.00
O110   O     0.90942   0.16666   0.21383   0.00000  Uiso   1.00
Zn111  Zn    0.83333   0.16666   0.21771   0.00000  Uiso   1.00
Zn112  Zn    0.83333   0.16667   0.11563   0.00000  Uiso   1.00
F113   F     0.89802   0.21902   0.29533   0.00000  Uiso   1.00
F114   F     0.76865   0.11432   0.03800   0.00000  Uiso   1.00
C115   C     0.16662   0.41996   0.16664   0.00000  Uiso   1.00
C116   C     0.16672   0.58004   0.16670   0.00000  Uiso   1.00
C117   C     0.06703   0.49999   0.15468   0.00000  Uiso   1.00
C118   C     0.26630   0.50001   0.17865   0.00000  Uiso   1.00
C119   C     0.01198   0.50002   0.14824   0.00000  Uiso   1.00
C120   C     0.32135   0.49998   0.18509   0.00000  Uiso   1.00
C121   C     0.16616   0.35457   0.12531   0.00000  Uiso   1.00
C122   C     0.16718   0.64543   0.20802   0.00000  Uiso   1.00
C123   C     0.16623   0.64536   0.12534   0.00000  Uiso   1.00
C124   C     0.16710   0.35464   0.20799   0.00000  Uiso   1.00
C125   C     0.16673   0.62420   0.16670   0.00000  Uiso   1.00
C126   C     0.16661   0.37580   0.16664   0.00000  Uiso   1.00
C127   C     0.19893   0.52613   0.02826   0.00000  Uiso   1.00
C128   C     0.13440   0.47387   0.30507   0.00000  Uiso   1.00
C129   C     0.19895   0.52614   0.31365   0.00000  Uiso   1.00
C130   C     0.13439   0.47386   0.01968   0.00000  Uiso   1.00
H131   H     0.32466   0.50008   0.11329   0.00000  Uiso   1.00
H132   H     0.00867   0.49992   0.22004   0.00000  Uiso   1.00
H133   H     0.16574   0.37068   0.09307   0.00000  Uiso   1.00
H134   H     0.16760   0.62932   0.24026   0.00000  Uiso   1.00
H135   H     0.16588   0.62920   0.09311   0.00000  Uiso   1.00
H136   H     0.16745   0.37080   0.24022   0.00000  Uiso   1.00
H137   H     0.22472   0.54702   0.04987   0.00000  Uiso   1.00
H138   H     0.10861   0.45298   0.28346   0.00000  Uiso   1.00
N139   N     0.16665   0.49999   0.28573   0.00000  Uiso   1.00
N140   N     0.16668   0.50001   0.04760   0.00000  Uiso   1.00
O141   O     0.16666   0.43892   0.20487   0.00000  Uiso   1.00
O142   O     0.16667   0.56108   0.12846   0.00000  Uiso   1.00
O143   O     0.16666   0.43893   0.12843   0.00000  Uiso   1.00
O144   O     0.16667   0.56107   0.20490   0.00000  Uiso   1.00
O145   O     0.09058   0.50000   0.19595   0.00000  Uiso   1.00
O146   O     0.24275   0.50000   0.13739   0.00000  Uiso   1.00
O147   O     0.09058   0.50000   0.11950   0.00000  Uiso   1.00
O148   O     0.24275   0.50000   0.21383   0.00000  Uiso   1.00
Zn149  Zn    0.16667   0.49999   0.21771   0.00000  Uiso   1.00
Zn150  Zn    0.16667   0.50001   0.11563   0.00000  Uiso   1.00
F151   F     0.23135   0.55235   0.29533   0.00000  Uiso   1.00
F152   F     0.10198   0.44765   0.03800   0.00000  Uiso   1.00
C153   C     0.49995   0.41996   0.16664   0.00000  Uiso   1.00
C154   C     0.50005   0.58004   0.16670   0.00000  Uiso   1.00
C155   C     0.40036   0.49999   0.15468   0.00000  Uiso   1.00
C156   C     0.59964   0.50001   0.17865   0.00000  Uiso   1.00
C157   C     0.34532   0.50002   0.14824   0.00000  Uiso   1.00
C158   C     0.65468   0.49998   0.18509   0.00000  Uiso   1.00
C159   C     0.49949   0.35457   0.12531   0.00000  Uiso   1.00
C160   C     0.50051   0.64543   0.20802   0.00000  Uiso   1.00
C161   C     0.49957   0.64536   0.12534   0.00000  Uiso   1.00
C162   C     0.50043   0.35464   0.20799   0.00000  Uiso   1.00
C163   C     0.50006   0.62420   0.16670   0.00000  Uiso   1.00
C164   C     0.49994   0.37580   0.16664   0.00000  Uiso   1.00
C165   C     0.53227   0.52613   0.02826   0.00000  Uiso   1.00
C166   C     0.46773   0.47387   0.30507   0.00000  Uiso   1.00
C167   C     0.53228   0.52614   0.31365   0.00000  Uiso   1.00
C168   C     0.46772   0.47386   0.01968   0.00000  Uiso   1.00
H169   H     0.65799   0.50008   0.11329   0.00000  Uiso   1.00
H170   H     0.34201   0.49992   0.22004   0.00000  Uiso   1.00
H171   H     0.49907   0.37068   0.09307   0.00000  Uiso   1.00
H172   H     0.50093   0.62932   0.24026   0.00000  Uiso   1.00
H173   H     0.49922   0.62920   0.09311   0.00000  Uiso   1.00
H174   H     0.50078   0.37080   0.24022   0.00000  Uiso   1.00
H175   H     0.55806   0.54702   0.04987   0.00000  Uiso   1.00
H176   H     0.44194   0.45298   0.28346   0.00000  Uiso   1.00
N177   N     0.49999   0.49999   0.28573   0.00000  Uiso   1.00
N178   N     0.50001   0.50001   0.04760   0.00000  Uiso   1.00
O179   O     0.50000   0.43892   0.20487   0.00000  Uiso   1.00
O180   O     0.50000   0.56108   0.12846   0.00000  Uiso   1.00
O181   O     0.50000   0.43893   0.12843   0.00000  Uiso   1.00
O182   O     0.50000   0.56107   0.20490   0.00000  Uiso   1.00
O183   O     0.42392   0.50000   0.19595   0.00000  Uiso   1.00
O184   O     0.57608   0.50000   0.13739   0.00000  Uiso   1.00
O185   O     0.42392   0.50000   0.11950   0.00000  Uiso   1.00
O186   O     0.57608   0.50000   0.21383   0.00000  Uiso   1.00
Zn187  Zn    0.50000   0.49999   0.21771   0.00000  Uiso   1.00
Zn188  Zn    0.50000   0.50001   0.11563   0.00000  Uiso   1.00
F189   F     0.56468   0.55235   0.29533   0.00000  Uiso   1.00
F190   F     0.43532   0.44765   0.03800   0.00000  Uiso   1.00
C191   C     0.83328   0.41996   0.16664   0.00000  Uiso   1.00
C192   C     0.83338   0.58004   0.16670   0.00000  Uiso   1.00
C193   C     0.73370   0.49999   0.15468   0.00000  Uiso   1.00
C194   C     0.93297   0.50001   0.17865   0.00000  Uiso   1.00
C195   C     0.67865   0.50002   0.14824   0.00000  Uiso   1.00
C196   C     0.98802   0.49998   0.18509   0.00000  Uiso   1.00
C197   C     0.83282   0.35457   0.12531   0.00000  Uiso   1.00
C198   C     0.83384   0.64543   0.20802   0.00000  Uiso   1.00
C199   C     0.83290   0.64536   0.12534   0.00000  Uiso   1.00
C200   C     0.83377   0.35464   0.20799   0.00000  Uiso   1.00
C201   C     0.83339   0.62420   0.16670   0.00000  Uiso   1.00
C202   C     0.83327   0.37580   0.16664   0.00000  Uiso   1.00
C203   C     0.86560   0.52613   0.02826   0.00000  Uiso   1.00
C204   C     0.80107   0.47387   0.30507   0.00000  Uiso   1.00
C205   C     0.86561   0.52614   0.31365   0.00000  Uiso   1.00
C206   C     0.80105   0.47386   0.01968   0.00000  Uiso   1.00
H207   H     0.99133   0.50008   0.11329   0.00000  Uiso   1.00
H208   H     0.67534   0.49992   0.22004   0.00000  Uiso   1.00
H209   H     0.83240   0.37068   0.09307   0.00000  Uiso   1.00
H210   H     0.83426   0.62932   0.24026   0.00000  Uiso   1.00
H211   H     0.83255   0.62920   0.09311   0.00000  Uiso   1.00
H212   H     0.83412   0.37080   0.24022   0.00000  Uiso   1.00
H213   H     0.89139   0.54702   0.04987   0.00000  Uiso   1.00
H214   H     0.77528   0.45298   0.28346   0.00000  Uiso   1.00
N215   N     0.83332   0.49999   0.28573   0.00000  Uiso   1.00
N216   N     0.83335   0.50001   0.04760   0.00000  Uiso   1.00
O217   O     0.83333   0.43892   0.20487   0.00000  Uiso   1.00
O218   O     0.83334   0.56108   0.12846   0.00000  Uiso   1.00
O219   O     0.83333   0.43893   0.12843   0.00000  Uiso   1.00
O220   O     0.83334   0.56107   0.20490   0.00000  Uiso   1.00
O221   O     0.75725   0.50000   0.19595   0.00000  Uiso   1.00
O222   O     0.90942   0.50000   0.13739   0.00000  Uiso   1.00
O223   O     0.75725   0.50000   0.11950   0.00000  Uiso   1.00
O224   O     0.90942   0.50000   0.21383   0.00000  Uiso   1.00
Zn225  Zn    0.83333   0.49999   0.21771   0.00000  Uiso   1.00
Zn226  Zn    0.83333   0.50001   0.11563   0.00000  Uiso   1.00
F227   F     0.89802   0.55235   0.29533   0.00000  Uiso   1.00
F228   F     0.76865   0.44765   0.03800   0.00000  Uiso   1.00
C229   C     0.16662   0.75329   0.16664   0.00000  Uiso   1.00
C230   C     0.16672   0.91338   0.16670   0.00000  Uiso   1.00
C231   C     0.06703   0.83332   0.15468   0.00000  Uiso   1.00
C232   C     0.26630   0.83335   0.17865   0.00000  Uiso   1.00
C233   C     0.01198   0.83335   0.14824   0.00000  Uiso   1.00
C234   C     0.32135   0.83332   0.18509   0.00000  Uiso   1.00
C235   C     0.16616   0.68791   0.12531   0.00000  Uiso   1.00
C236   C     0.16718   0.97876   0.20802   0.00000  Uiso   1.00
C237   C     0.16623   0.97869   0.12534   0.00000  Uiso   1.00
C238   C     0.16710   0.68798   0.20799   0.00000  Uiso   1.00
C239   C     0.16673   0.95753   0.16670   0.00000  Uiso   1.00
C240   C     0.16661   0.70913   0.16664   0.00000  Uiso   1.00
C241   C     0.19893   0.85947   0.02826   0.00000  Uiso   1.00
C242   C     0.13440   0.80720   0.30507   0.00000  Uiso   1.00
C243   C     0.19895   0.85947   0.31365   0.00000  Uiso   1.00
C244   C     0.13439   0.80719   0.01968   0.00000  Uiso   1.00
H245   H     0.32466   0.83341   0.11329   0.00000  Uiso   1.00
H246   H     0.00867   0.83325   0.22004   0.00000  Uiso   1.00
H247   H     0.16574   0.70401   0.09307   0.00000  Uiso   1.00
H248   H     0.16760   0.96266   0.24026   0.00000  Uiso   1.00
H249   H     0.16588   0.96253   0.09311   0.00000  Uiso   1.00
H250   H     0.16745   0.70413   0.24022   0.00000  Uiso   1.00
H251   H     0.22472   0.88035   0.04987   0.00000  Uiso   1.00
H252   H     0.10861   0.78632   0.28346   0.00000  Uiso   1.00
N253   N     0.16665   0.83332   0.28573   0.00000  Uiso   1.00
N254   N     0.16668   0.83334   0.04760   0.00000  Uiso   1.00
O255   O     0.16666   0.77225   0.20487   0.00000  Uiso   1.00
O256   O     0.16667   0.89442   0.12846   0.00000  Uiso   1.00
O257   O     0.16666   0.77226   0.12843   0.00000  Uiso   1.00
O258   O     0.16667   0.89441   0.20490   0.00000  Uiso   1.00
O259   O     0.09058   0.83333   0.19595   0.00000  Uiso   1.00
O260   O     0.24275   0.83334   0.13739   0.00000  Uiso   1.00
O261   O     0.09058   0.83334   0.11950   0.00000  Uiso   1.00
O262   O     0.24275   0.83333   0.21383   0.00000  Uiso   1.00
Zn263  Zn    0.16667   0.83333   0.21771   0.00000  Uiso   1.00
Zn264  Zn    0.16667   0.83334   0.11563   0.00000  Uiso   1.00
F265   F     0.23135   0.88568   0.29533   0.00000  Uiso   1.00
F266   F     0.10198   0.78098   0.03800   0.00000  Uiso   1.00
C267   C     0.49995   0.75329   0.16664   0.00000  Uiso   1.00
C268   C     0.50005   0.91338   0.16670   0.00000  Uiso   1.00
C269   C     0.40036   0.83332   0.15468   0.00000  Uiso   1.00
C270   C     0.59964   0.83335   0.17865   0.00000  Uiso   1.00
C271   C     0.34532   0.83335   0.14824   0.00000  Uiso   1.00
C272   C     0.65468   0.83332   0.18509   0.00000  Uiso   1.00
C273   C     0.49949   0.68791   0.12531   0.00000  Uiso   1.00
C274   C     0.50051   0.97876   0.20802   0.00000  Uiso   1.00
C275   C     0.49957   0.97869   0.12534   0.00000  Uiso   1.00
C276   C     0.50043   0.68798   0.20799   0.00000  Uiso   1.00
C277   C     0.50006   0.95753   0.16670   0.00000  Uiso   1.00
C278   C     0.49994   0.70913   0.16664   0.00000  Uiso   1.00
C279   C     0.53227   0.85947   0.02826   0.00000  Uiso   1.00
C280   C     0.46773   0.80720   0.30507   0.00000  Uiso   1.00
C281   C     0.53228   0.85947   0.31365   0.00000  Uiso   1.00
C282   C     0.46772   0.80719   0.01968   0.00000  Uiso   1.00
H283   H     0.65799   0.83341   0.11329   0.00000  Uiso   1.00
H284   H     0.34201   0.83325   0.22004   0.00000  Uiso   1.00
H285   H     0.49907   0.70401   0.09307   0.00000  Uiso   1.00
H286   H     0.50093   0.96266   0.24026   0.00000  Uiso   1.00
H287   H     0.49922   0.96253   0.09311   0.00000  Uiso   1.00
H288   H     0.50078   0.70413   0.24022   0.00000  Uiso   1.00
H289   H     0.55806   0.88035   0.04987   0.00000  Uiso   1.00
H290   H     0.44194   0.78632   0.28346   0.00000  Uiso   1.00
N291   N     0.49999   0.83332   0.28573   0.00000  Uiso   1.00
N292   N     0.50001   0.83334   0.04760   0.00000  Uiso   1.00
O293   O     0.50000   0.77225   0.20487   0.00000  Uiso   1.00
O294   O     0.50000   0.89442   0.12846   0.00000  Uiso   1.00
O295   O     0.50000   0.77226   0.12843   0.00000  Uiso   1.00
O296   O     0.50000   0.89441   0.20490   0.00000  Uiso   1.00
O297   O     0.42392   0.83333   0.19595   0.00000  Uiso   1.00
O298   O     0.57608   0.83334   0.13739   0.00000  Uiso   1.00
O299   O     0.42392   0.83334   0.11950   0.00000  Uiso   1.00
O300   O     0.57608   0.83333   0.21383   0.00000  Uiso   1.00
Zn301  Zn    0.50000   0.83333   0.21771   0.00000  Uiso   1.00
Zn302  Zn    0.50000   0.83334   0.11563   0.00000  Uiso   1.00
F303   F     0.56468   0.88568   0.29533   0.00000  Uiso   1.00
F304   F     0.43532   0.78098   0.03800   0.00000  Uiso   1.00
C305   C     0.83328   0.75329   0.16664   0.00000  Uiso   1.00
C306   C     0.83338   0.91338   0.16670   0.00000  Uiso   1.00
C307   C     0.73370   0.83332   0.15468   0.00000  Uiso   1.00
C308   C     0.93297   0.83335   0.17865   0.00000  Uiso   1.00
C309   C     0.67865   0.83335   0.14824   0.00000  Uiso   1.00
C310   C     0.98802   0.83332   0.18509   0.00000  Uiso   1.00
C311   C     0.83282   0.68791   0.12531   0.00000  Uiso   1.00
C312   C     0.83384   0.97876   0.20802   0.00000  Uiso   1.00
C313   C     0.83290   0.97869   0.12534   0.00000  Uiso   1.00
C314   C     0.83377   0.68798   0.20799   0.00000  Uiso   1.00
C315   C     0.83339   0.95753   0.16670   0.00000  Uiso   1.00
C316   C     0.83327   0.70913   0.16664   0.00000  Uiso   1.00
C317   C     0.86560   0.85947   0.02826   0.00000  Uiso   1.00
C318   C     0.80107   0.80720   0.30507   0.00000  Uiso   1.00
C319   C     0.86561   0.85947   0.31365   0.00000  Uiso   1.00
C320   C     0.80105   0.80719   0.01968   0.00000  Uiso   1.00
H321   H     0.99133   0.83341   0.11329   0.00000  Uiso   1.00
H322   H     0.67534   0.83325   0.22004   0.00000  Uiso   1.00
H323   H     0.83240   0.70401   0.09307   0.00000  Uiso   1.00
H324   H     0.83426   0.96266   0.24026   0.00000  Uiso   1.00
H325   H     0.83255   0.96253   0.09311   0.00000  Uiso   1.00
H326   H     0.83412   0.70413   0.24022   0.00000  Uiso   1.00
H327   H     0.89139   0.88035   0.04987   0.00000  Uiso   1.00
H328   H     0.77528   0.78632   0.28346   0.00000  Uiso   1.00
N329   N     0.83332   0.83332   0.28573   0.00000  Uiso   1.00
N330   N     0.83335   0.83334   0.04760   0.00000  Uiso   1.00
O331   O     0.83333   0.77225   0.20487   0.00000  Uiso   1.00
O332   O     0.83334   0.89442   0.12846   0.00000  Uiso   1.00
O333   O     0.83333   0.77226   0.12843   0.00000  Uiso   1.00
O334   O     0.83334   0.89441   0.20490   0.00000  Uiso   1.00
O335   O     0.75725   0.83333   0.19595   0.00000  Uiso   1.00
O336   O     0.90942   0.83334   0.13739   0.00000  Uiso   1.00
O337   O     0.75725   0.83334   0.11950   0.00000  Uiso   1.00
O338   O     0.90942   0.83333   0.21383   0.00000  Uiso   1.00
Zn339  Zn    0.83333   0.83333   0.21771   0.00000  Uiso   1.00
Zn340  Zn    0.83333   0.83334   0.11563   0.00000  Uiso   1.00
F341   F     0.89802   0.88568   0.29533   0.00000  Uiso   1.00
F342   F     0.76865   0.78098   0.03800   0.00000  Uiso   1.00
C343   C     0.16662   0.08662   0.49997   0.00000  Uiso   1.00
C344   C     0.16672   0.24671   0.50003   0.00000  Uiso   1.00
C345   C     0.06703   0.16665   0.48802   0.00000  Uiso   1.00
C346   C     0.26630   0.16668   0.51198   0.00000  Uiso   1.00
C347   C     0.01198   0.16668   0.48157   0.00000  Uiso   1.00
C348   C     0.32135   0.16665   0.51843   0.00000  Uiso   1.00
C349   C     0.16616   0.02124   0.45865   0.00000  Uiso   1.00
C350   C     0.16718   0.31209   0.54135   0.00000  Uiso   1.00
C351   C     0.16623   0.31202   0.45868   0.00000  Uiso   1.00
C352   C     0.16710   0.02131   0.54132   0.00000  Uiso   1.00
C353   C     0.16673   0.29087   0.50003   0.00000  Uiso   1.00
C354   C     0.16661   0.04247   0.49997   0.00000  Uiso   1.00
C355   C     0.19893   0.19280   0.36159   0.00000  Uiso   1.00
C356   C     0.13440   0.14053   0.63841   0.00000  Uiso   1.00
C357   C     0.19895   0.19281   0.64699   0.00000  Uiso   1.00
C358   C     0.13439   0.14053   0.35302   0.00000  Uiso   1.00
H359   H     0.32466   0.16675   0.44663   0.00000  Uiso   1.00
H360   H     0.00867   0.16659   0.55337   0.00000  Uiso   1.00
H361   H     0.16574   0.03734   0.42640   0.00000  Uiso   1.00
H362   H     0.16760   0.29599   0.57360   0.00000  Uiso   1.00
H363   H     0.16588   0.29587   0.42645   0.00000  Uiso   1.00
H364   H     0.16745   0.03747   0.57355   0.00000  Uiso   1.00
H365   H     0.22472   0.21368   0.38320   0.00000  Uiso   1.00
H366   H     0.10861   0.11965   0.61680   0.00000  Uiso   1.00
N367   N     0.16665   0.16666   0.61907   0.00000  Uiso   1.00
N368   N     0.16668   0.16668   0.38093   0.00000  Uiso   1.00
O369   O     0.16666   0.10558   0.53821   0.00000  Uiso   1.00
O370   O     0.16667   0.22775   0.46179   0.00000  Uiso   1.00
O371   O     0.16666   0.10559   0.46176   0.00000  Uiso   1.00
O372   O     0.16667   0.22774   0.53824   0.00000  Uiso   1.00
O373   O     0.09058   0.16666   0.52928   0.00000  Uiso   1.00
O374   O     0.24275   0.16667   0.47072   0.00000  Uiso   1.00
O375   O     0.09058   0.16667   0.45284   0.00000  Uiso   1.00
O376   O     0.24275   0.16666   0.54716   0.00000  Uiso   1.00
Zn377  Zn    0.16667   0.16666   0.55104   0.00000  Uiso   1.00
Zn378  Zn    0.16667   0.16667   0.44896   0.00000  Uiso   1.00
F379   F     0.23135   0.21902   0.62867   0.00000  Uiso   1.00
F380   F     0.10198   0.11432   0.37133   0.00000  Uiso   1.00
C381   C     0.49995   0.08662   0.49997   0.00000  Uiso   1.00
C382   C     0.50005   0.24671   0.50003   0.00000  Uiso   1.00
C383   C     0.40036   0.16665   0.48802   0.00000  Uiso   1.00
C384   C     0.59964   0.16668   0.51198   0.00000  Uiso   1.00
C385   C     0.34532   0.16668   0.48157   0.00000  Uiso   1.00
C386   C     0.65468   0.16665   0.51843   0.00000  Uiso   1.00
C387   C     0.49949   0.02124   0.45865   0.00000  Uiso   1.00
C388   C     0.50051   0.31209   0.54135   0.00000  Uiso   1.00
C389   C     0.49957   0.31202   0.45868   0.00000  Uiso   1.00
C390   C     0.50043   0.02131   0.54132   0.00000  Uiso   1.00
C391   C     0.50006   0.29087   0.50003   0.00000  Uiso   1.00
C392   C     0.49994   0.04247   0.49997   0.00000  Uiso   1.00
C393   C     0.53227   0.19280   0.36159   0.00000  Uiso   1.00
C394   C     0.46773   0.14053   0.63841   0.00000  Uiso   1.00
C395   C     0.53228   0.19281   0.64699   0.00000  Uiso   1.00
C396   C     0.46772   0.14053   0.35302   0.00000  Uiso   1.00
H397   H     0.65799   0.16675   0.44663   0.00000  Uiso   1.00
H398   H     0.34201   0.16659   0.55337   0.00000  Uiso   1.00
H399   H     0.49907   0.03734   0.42640   0.00000  Uiso   1.00
H400   H     0.50093   0.29599   0.57360   0.00000  Uiso   1.00
H401   H     0.49922   0.29587   0.42645   0.00000  Uiso   1.00
H402   H     0.50078   0.03747   0.57355   0.00000  Uiso   1.00
H403   H     0.55806   0.21368   0.38320   0.00000  Uiso   1.00
H404   H     0.44194   0.11965   0.61680   0.00000  Uiso   1.00
N405   N     0.49999   0.16666   0.61907   0.00000  Uiso   1.00
N406   N     0.50001   0.16668   0.38093   0.00000  Uiso   1.00
O407   O     0.50000   0.10558   0.53821   0.00000  Uiso   1.00
O408   O     0.50000   0.22775   0.46179   0.00000  Uiso   1.00
O409   O     0.50000   0.10559   0.46176   0.00000  Uiso   1.00
O410   O     0.50000   0.22774   0.53824   0.00000  Uiso   1.00
O411   O     0.42392   0.16666   0.52928   0.00000  Uiso   1.00
O412   O     0.57608   0.16667   0.47072   0.00000  Uiso   1.00
O413   O     0.42392   0.16667   0.45284   0.00000  Uiso   1.00
O414   O     0.57608   0.16666   0.54716   0.00000  Uiso   1.00
Zn415  Zn    0.50000   0.16666   0.55104   0.00000  Uiso   1.00
Zn416  Zn    0.50000   0.16667   0.44896   0.00000  Uiso   1.00
F417   F     0.56468   0.21902   0.62867   0.00000  Uiso   1.00
F418   F     0.43532   0.11432   0.37133   0.00000  Uiso   1.00
C419   C     0.83328   0.08662   0.49997   0.00000  Uiso   1.00
C420   C     0.83338   0.24671   0.50003   0.00000  Uiso   1.00
C421   C     0.73370   0.16665   0.48802   0.00000  Uiso   1.00
C422   C     0.93297   0.16668   0.51198   0.00000  Uiso   1.00
C423   C     0.67865   0.16668   0.48157   0.00000  Uiso   1.00
C424   C     0.98802   0.16665   0.51843   0.00000  Uiso   1.00
C425   C     0.83282   0.02124   0.45865   0.00000  Uiso   1.00
C426   C     0.83384   0.31209   0.54135   0.00000  Uiso   1.00
C427   C     0.83290   0.31202   0.45868   0.00000  Uiso   1.00
C428   C     0.83377   0.02131   0.54132   0.00000  Uiso   1.00
C429   C     0.83339   0.29087   0.50003   0.00000  Uiso   1.00
C430   C     0.83327   0.04247   0.49997   0.00000  Uiso   1.00
C431   C     0.86560   0.19280   0.36159   0.00000  Uiso   1.00
C432   C     0.80107   0.14053   0.63841   0.00000  Uiso   1.00
C433   C     0.86561   0.19281   0.64699   0.00000  Uiso   1.00
C434   C     0.80105   0.14053   0.35302   0.00000  Uiso   1.00
H435   H     0.99133   0.16675   0.44663   0.00000  Uiso   1.00
H436   H     0.67534   0.16659   0.55337   0.00000  Uiso   1.00
H437   H     0.83240   0.03734   0.42640   0.00000  Uiso   1.00
H438   H     0.83426   0.29599   0.57360   0.00000  Uiso   1.00
H439   H     0.83255   0.29587   0.42645   0.00000  Uiso   1.00
H440   H     0.83412   0.03747   0.57355   0.00000  Uiso   1.00
H441   H     0.89139   0.21368   0.38320   0.00000  Uiso   1.00
H442   H     0.77528   0.11965   0.61680   0.00000  Uiso   1.00
N443   N     0.83332   0.16666   0.61907   0.00000  Uiso   1.00
N444   N     0.83335   0.16668   0.38093   0.00000  Uiso   1.00
O445   O     0.83333   0.10558   0.53821   0.00000  Uiso   1.00
O446   O     0.83334   0.22775   0.46179   0.00000  Uiso   1.00
O447   O     0.83333   0.10559   0.46176   0.00000  Uiso   1.00
O448   O     0.83334   0.22774   0.53824   0.00000  Uiso   1.00
O449   O     0.75725   0.16666   0.52928   0.00000  Uiso   1.00
O450   O     0.90942   0.16667   0.47072   0.00000  Uiso   1.00
O451   O     0.75725   0.16667   0.45284   0.00000  Uiso   1.00
O452   O     0.90942   0.16666   0.54716   0.00000  Uiso   1.00
Zn453  Zn    0.83333   0.16666   0.55104   0.00000  Uiso   1.00
Zn454  Zn    0.83333   0.16667   0.44896   0.00000  Uiso   1.00
F455   F     0.89802   0.21902   0.62867   0.00000  Uiso   1.00
F456   F     0.76865   0.11432   0.37133   0.00000  Uiso   1.00
C457   C     0.16662   0.41996   0.49997   0.00000  Uiso   1.00
C458   C     0.16672   0.58004   0.50003   0.00000  Uiso   1.00
C459   C     0.06703   0.49999   0.48802   0.00000  Uiso   1.00
C460   C     0.26630   0.50001   0.51198   0.00000  Uiso   1.00
C461   C     0.01198   0.50002   0.48157   0.00000  Uiso   1.00
C462   C     0.32135   0.49998   0.51843   0.00000  Uiso   1.00
C463   C     0.16616   0.35457   0.45865   0.00000  Uiso   1.00
C464   C     0.16718   0.64543   0.54135   0.00000  Uiso   1.00
C465   C     0.16623   0.64536   0.45868   0.00000  Uiso   1.00
C466   C     0.16710   0.35464   0.54132   0.00000  Uiso   1.00
C467   C     0.16673   0.62420   0.50003   0.00000  Uiso   1.00
C468   C     0.16661   0.37580   0.49997   0.00000  Uiso   1.00
C469   C     0.19893   0.52613   0.36159   0.00000  Uiso   1.00
C470   C     0.13440   0.47387   0.63841   0.00000  Uiso   1.00
C471   C     0.19895   0.52614   0.64699   0.00000  Uiso   1.00
C472   C     0.13439   0.47386   0.35302   0.00000  Uiso   1.00
H473   H     0.32466   0.50008   0.44663   0.00000  Uiso   1.00
H474   H     0.00867   0.49992   0.55337   0.00000  Uiso   1.00
H475   H     0.16574   0.37068   0.42640   0.00000  Uiso   1.00
H476   H     0.16760   0.62932   0.57360   0.00000  Uiso   1.00
H477   H     0.16588   0.62920   0.42645   0.00000  Uiso   1.00
H478   H     0.16745   0.37080   0.57355   0.00000  Uiso   1.00
H479   H     0.22472   0.54702   0.38320   0.00000  Uiso   1.00
H480   H     0.10861   0.45298   0.61680   0.00000  Uiso   1.00
N481   N     0.16665   0.49999   0.61907   0.00000  Uiso   1.00
N482   N     0.16668   0.50001   0.38093   0.00000  Uiso   1.00
O483   O     0.16666   0.43892   0.53821   0.00000  Uiso   1.00
O484   O     0.16667   0.56108   0.46179   0.00000  Uiso   1.00
O485   O     0.16666   0.43893   0.46176   0.00000  Uiso   1.00
O486   O     0.16667   0.56107   0.53824   0.00000  Uiso   1.00
O487   O     0.09058   0.50000   0.52928   0.00000  Uiso   1.00
O488   O     0.24275   0.50000   0.47072   0.00000  Uiso   1.00
O489   O     0.09058   0.50000   0.45284   0.00000  Uiso   1.00
O490   O     0.24275   0.50000   0.54716   0.00000  Uiso   1.00
Zn491  Zn    0.16667   0.49999   0.55104   0.00000  Uiso   1.00
Zn492  Zn    0.16667   0.50001   0.44896   0.00000  Uiso   1.00
F493   F     0.23135   0.55235   0.62867   0.00000  Uiso   1.00
F494   F     0.10198   0.44765   0.37133   0.00000  Uiso   1.00
C495   C     0.49995   0.41996   0.49997   0.00000  Uiso   1.00
C496   C     0.50005   0.58004   0.50003   0.00000  Uiso   1.00
C497   C     0.40036   0.49999   0.48802   0.00000  Uiso   1.00
C498   C     0.59964   0.50001   0.51198   0.00000  Uiso   1.00
C499   C     0.34532   0.50002   0.48157   0.00000  Uiso   1.00
C500   C     0.65468   0.49998   0.51843   0.00000  Uiso   1.00
C501   C     0.49949   0.35457   0.45865   0.00000  Uiso   1.00
C502   C     0.50051   0.64543   0.54135   0.00000  Uiso   1.00
C503   C     0.49957   0.64536   0.45868   0.00000  Uiso   1.00
C504   C     0.50043   0.35464   0.54132   0.00000  Uiso   1.00
C505   C     0.50006   0.62420   0.50003   0.00000  Uiso   1.00
C506   C     0.49994   0.37580   0.49997   0.00000  Uiso   1.00
C507   C     0.53227   0.52613   0.36159   0.00000  Uiso   1.00
C508   C     0.46773   0.47387   0.63841   0.00000  Uiso   1.00
C509   C     0.53228   0.52614   0.64699   0.00000  Uiso   1.00
C510   C     0.46772   0.47386   0.35302   0.00000  Uiso   1.00
H511   H     0.65799   0.50008   0.44663   0.00000  Uiso   1.00
H512   H     0.34201   0.49992   0.55337   0.00000  Uiso   1.00
H513   H     0.49907   0.37068   0.42640   0.00000  Uiso   1.00
H514   H     0.50093   0.62932   0.57360   0.00000  Uiso   1.00
H515   H     0.49922   0.62920   0.42645   0.00000  Uiso   1.00
H516   H     0.50078   0.37080   0.57355   0.00000  Uiso   1.00
H517   H     0.55806   0.54702   0.38320   0.00000  Uiso   1.00
H518   H     0.44194   0.45298   0.61680   0.00000  Uiso   1.00
N519   N     0.49999   0.49999   0.61907   0.00000  Uiso   1.00
N520   N     0.50001   0.50001   0.38093   0.00000  Uiso   1.00
O521   O     0.50000   0.43892   0.53821   0.00000  Uiso   1.00
O522   O     0.50000   0.56108   0.46179   0.00000  Uiso   1.00
O523   O     0.50000   0.43893   0.46176   0.00000  Uiso   1.00
O524   O     0.50000   0.56107   0.53824   0.00000  Uiso   1.00
O525   O     0.42392   0.50000   0.52928   0.00000  Uiso   1.00
O526   O     0.57608   0.50000   0.47072   0.00000  Uiso   1.00
O527   O     0.42392   0.50000   0.45284   0.00000  Uiso   1.00
O528   O     0.57608   0.50000   0.54716   0.00000  Uiso   1.00
Zn529  Zn    0.50000   0.49999   0.55104   0.00000  Uiso   1.00
Zn530  Zn    0.50000   0.50001   0.44896   0.00000  Uiso   1.00
F531   F     0.56468   0.55235   0.62867   0.00000  Uiso   1.00
F532   F     0.43532   0.44765   0.37133   0.00000  Uiso   1.00
C533   C     0.83328   0.41996   0.49997   0.00000  Uiso   1.00
C534   C     0.83338   0.58004   0.50003   0.00000  Uiso   1.00
C535   C     0.73370   0.49999   0.48802   0.00000  Uiso   1.00
C536   C     0.93297   0.50001   0.51198   0.00000  Uiso   1.00
C537   C     0.67865   0.50002   0.48157   0.00000  Uiso   1.00
C538   C     0.98802   0.49998   0.51843   0.00000  Uiso   1.00
C539   C     0.83282   0.35457   0.45865   0.00000  Uiso   1.00
C540   C     0.83384   0.64543   0.54135   0.00000  Uiso   1.00
C541   C     0.83290   0.64536   0.45868   0.00000  Uiso   1.00
C542   C     0.83377   0.35464   0.54132   0.00000  Uiso   1.00
C543   C     0.83339   0.62420   0.50003   0.00000  Uiso   1.00
C544   C     0.83327   0.37580   0.49997   0.00000  Uiso   1.00
C545   C     0.86560   0.52613   0.36159   0.00000  Uiso   1.00
C546   C     0.80107   0.47387   0.63841   0.00000  Uiso   1.00
C547   C     0.86561   0.52614   0.64699   0.00000  Uiso   1.00
C548   C     0.80105   0.47386   0.35302   0.00000  Uiso   1.00
H549   H     0.99133   0.50008   0.44663   0.00000  Uiso   1.00
H550   H     0.67534   0.49992   0.55337   0.00000  Uiso   1.00
H551   H     0.83240   0.37068   0.42640   0.00000  Uiso   1.00
H552   H     0.83426   0.62932   0.57360   0.00000  Uiso   1.00
H553   H     0.83255   0.62920   0.42645   0.00000  Uiso   1.00
H554   H     0.83412   0.37080   0.57355   0.00000  Uiso   1.00
H555   H     0.89139   0.54702   0.38320   0.00000  Uiso   1.00
H556   H     0.77528   0.45298   0.61680   0.00000  Uiso   1.00
N557   N     0.83332   0.49999   0.61907   0.00000  Uiso   1.00
N558   N     0.83335   0.50001   0.38093   0.00000  Uiso   1.00
O559   O     0.83333   0.43892   0.53821   0.00000  Uiso   1.00
O560   O     0.83334   0.56108   0.46179   0.00000  Uiso   1.00
O561   O     0.83333   0.43893   0.46176   0.00000  Uiso   1.00
O562   O     0.83334   0.56107   0.53824   0.00000  Uiso   1.00
O563   O     0.75725   0.50000   0.52928   0.00000  Uiso   1.00
O564   O     0.90942   0.50000   0.47072   0.00000  Uiso   1.00
O565   O     0.75725   0.50000   0.45284   0.00000  Uiso   1.00
O566   O     0.90942   0.50000   0.54716   0.00000  Uiso   1.00
Zn567  Zn    0.83333   0.49999   0.55104   0.00000  Uiso   1.00
Zn568  Zn    0.83333   0.50001   0.44896   0.00000  Uiso   1.00
F569   F     0.89802   0.55235   0.62867   0.00000  Uiso   1.00
F570   F     0.76865   0.44765   0.37133   0.00000  Uiso   1.00
C571   C     0.16662   0.75329   0.49997   0.00000  Uiso   1.00
C572   C     0.16672   0.91338   0.50003   0.00000  Uiso   1.00
C573   C     0.06703   0.83332   0.48802   0.00000  Uiso   1.00
C574   C     0.26630   0.83335   0.51198   0.00000  Uiso   1.00
C575   C     0.01198   0.83335   0.48157   0.00000  Uiso   1.00
C576   C     0.32135   0.83332   0.51843   0.00000  Uiso   1.00
C577   C     0.16616   0.68791   0.45865   0.00000  Uiso   1.00
C578   C     0.16718   0.97876   0.54135   0.00000  Uiso   1.00
C579   C     0.16623   0.97869   0.45868   0.00000  Uiso   1.00
C580   C     0.16710   0.68798   0.54132   0.00000  Uiso   1.00
C581   C     0.16673   0.95753   0.50003   0.00000  Uiso   1.00
C582   C     0.16661   0.70913   0.49997   0.00000  Uiso   1.00
C583   C     0.19893   0.85947   0.36159   0.00000  Uiso   1.00
C584   C     0.13440   0.80720   0.63841   0.00000  Uiso   1.00
C585   C     0.19895   0.85947   0.64699   0.00000  Uiso   1.00
C586   C     0.13439   0.80719   0.35302   0.00000  Uiso   1.00
H587   H     0.32466   0.83341   0.44663   0.00000  Uiso   1.00
H588   H     0.00867   0.83325   0.55337   0.00000  Uiso   1.00
H589   H     0.16574   0.70401   0.42640   0.00000  Uiso   1.00
H590   H     0.16760   0.96266   0.57360   0.00000  Uiso   1.00
H591   H     0.16588   0.96253   0.42645   0.00000  Uiso   1.00
H592   H     0.16745   0.70413   0.57355   0.00000  Uiso   1.00
H593   H     0.22472   0.88035   0.38320   0.00000  Uiso   1.00
H594   H     0.10861   0.78632   0.61680   0.00000  Uiso   1.00
N595   N     0.16665   0.83332   0.61907   0.00000  Uiso   1.00
N596   N     0.16668   0.83334   0.38093   0.00000  Uiso   1.00
O597   O     0.16666   0.77225   0.53821   0.00000  Uiso   1.00
O598   O     0.16667   0.89442   0.46179   0.00000  Uiso   1.00
O599   O     0.16666   0.77226   0.46176   0.00000  Uiso   1.00
O600   O     0.16667   0.89441   0.53824   0.00000  Uiso   1.00
O601   O     0.09058   0.83333   0.52928   0.00000  Uiso   1.00
O602   O     0.24275   0.83334   0.47072   0.00000  Uiso   1.00
O603   O     0.09058   0.83334   0.45284   0.00000  Uiso   1.00
O604   O     0.24275   0.83333   0.54716   0.00000  Uiso   1.00
Zn605  Zn    0.16667   0.83333   0.55104   0.00000  Uiso   1.00
Zn606  Zn    0.16667   0.83334   0.44896   0.00000  Uiso   1.00
F607   F     0.23135   0.88568   0.62867   0.00000  Uiso   1.00
F608   F     0.10198   0.78098   0.37133   0.00000  Uiso   1.00
C609   C     0.49995   0.75329   0.49997   0.00000  Uiso   1.00
C610   C     0.50005   0.91338   0.50003   0.00000  Uiso   1.00
C611   C     0.40036   0.83332   0.48802   0.00000  Uiso   1.00
C612   C     0.59964   0.83335   0.51198   0.00000  Uiso   1.00
C613   C     0.34532   0.83335   0.48157   0.00000  Uiso   1.00
C614   C     0.65468   0.83332   0.51843   0.00000  Uiso   1.00
C615   C     0.49949   0.68791   0.45865   0.00000  Uiso   1.00
C616   C     0.50051   0.97876   0.54135   0.00000  Uiso   1.00
C617   C     0.49957   0.97869   0.45868   0.00000  Uiso   1.00
C618   C     0.50043   0.68798   0.54132   0.00000  Uiso   1.00
C619   C     0.50006   0.95753   0.50003   0.00000  Uiso   1.00
C620   C     0.49994   0.70913   0.49997   0.00000  Uiso   1.00
C621   C     0.53227   0.85947   0.36159   0.00000  Uiso   1.00
C622   C     0.46773   0.80720   0.63841   0.00000  Uiso   1.00
C623   C     0.53228   0.85947   0.64699   0.00000  Uiso   1.00
C624   C     0.46772   0.80719   0.35302   0.00000  Uiso   1.00
H625   H     0.65799   0.83341   0.44663   0.00000  Uiso   1.00
H626   H     0.34201   0.83325   0.55337   0.00000  Uiso   1.00
H627   H     0.49907   0.70401   0.42640   0.00000  Uiso   1.00
H628   H     0.50093   0.96266   0.57360   0.00000  Uiso   1.00
H629   H     0.49922   0.96253   0.42645   0.00000  Uiso   1.00
H630   H     0.50078   0.70413   0.57355   0.00000  Uiso   1.00
H631   H     0.55806   0.88035   0.38320   0.00000  Uiso   1.00
H632   H     0.44194   0.78632   0.61680   0.00000  Uiso   1.00
N633   N     0.49999   0.83332   0.61907   0.00000  Uiso   1.00
N634   N     0.50001   0.83334   0.38093   0.00000  Uiso   1.00
O635   O     0.50000   0.77225   0.53821   0.00000  Uiso   1.00
O636   O     0.50000   0.89442   0.46179   0.00000  Uiso   1.00
O637   O     0.50000   0.77226   0.46176   0.00000  Uiso   1.00
O638   O     0.50000   0.89441   0.53824   0.00000  Uiso   1.00
O639   O     0.42392   0.83333   0.52928   0.00000  Uiso   1.00
O640   O     0.57608   0.83334   0.47072   0.00000  Uiso   1.00
O641   O     0.42392   0.83334   0.45284   0.00000  Uiso   1.00
O642   O     0.57608   0.83333   0.54716   0.00000  Uiso   1.00
Zn643  Zn    0.50000   0.83333   0.55104   0.00000  Uiso   1.00
Zn644  Zn    0.50000   0.83334   0.44896   0.00000  Uiso   1.00
F645   F     0.56468   0.88568   0.62867   0.00000  Uiso   1.00
F646   F     0.43532   0.78098   0.37133   0.00000  Uiso   1.00
C647   C     0.83328   0.75329   0.49997   0.00000  Uiso   1.00
C648   C     0.83338   0.91338   0.50003   0.00000  Uiso   1.00
C649   C     0.73370   0.83332   0.48802   0.00000  Uiso   1.00
C650   C     0.93297   0.83335   0.51198   0.00000  Uiso   1.00
C651   C     0.67865   0.83335   0.48157   0.00000  Uiso   1.00
C652   C     0.98802   0.83332   0.51843   0.00000  Uiso   1.00
C653   C     0.83282   0.68791   0.45865   0.00000  Uiso   1.00
C654   C     0.83384   0.97876   0.54135   0.00000  Uiso   1.00
C655   C     0.83290   0.97869   0.45868   0.00000  Uiso   1.00
C656   C     0.83377   0.68798   0.54132   0.00000  Uiso   1.00
C657   C     0.83339   0.95753   0.50003   0.00000  Uiso   1.00
C658   C     0.83327   0.70913   0.49997   0.00000  Uiso   1.00
C659   C     0.86560   0.85947   0.36159   0.00000  Uiso   1.00
C660   C     0.80107   0.80720   0.63841   0.00000  Uiso   1.00
C661   C     0.86561   0.85947   0.64699   0.00000  Uiso   1.00
C662   C     0.80105   0.80719   0.35302   0.00000  Uiso   1.00
H663   H     0.99133   0.83341   0.44663   0.00000  Uiso   1.00
H664   H     0.67534   0.83325   0.55337   0.00000  Uiso   1.00
H665   H     0.83240   0.70401   0.42640   0.00000  Uiso   1.00
H666   H     0.83426   0.96266   0.57360   0.00000  Uiso   1.00
H667   H     0.83255   0.96253   0.42645   0.00000  Uiso   1.00
H668   H     0.83412   0.70413   0.57355   0.00000  Uiso   1.00
H669   H     0.89139   0.88035   0.38320   0.00000  Uiso   1.00
H670   H     0.77528   0.78632   0.61680   0.00000  Uiso   1.00
N671   N     0.83332   0.83332   0.61907   0.00000  Uiso   1.00
N672   N     0.83335   0.83334   0.38093   0.00000  Uiso   1.00
O673   O     0.83333   0.77225   0.53821   0.00000  Uiso   1.00
O674   O     0.83334   0.89442   0.46179   0.00000  Uiso   1.00
O675   O     0.83333   0.77226   0.46176   0.00000  Uiso   1.00
O676   O     0.83334   0.89441   0.53824   0.00000  Uiso   1.00
O677   O     0.75725   0.83333   0.52928   0.00000  Uiso   1.00
O678   O     0.90942   0.83334   0.47072   0.00000  Uiso   1.00
O679   O     0.75725   0.83334   0.45284   0.00000  Uiso   1.00
O680   O     0.90942   0.83333   0.54716   0.00000  Uiso   1.00
Zn681  Zn    0.83333   0.83333   0.55104   0.00000  Uiso   1.00
Zn682  Zn    0.83333   0.83334   0.44896   0.00000  Uiso   1.00
F683   F     0.89802   0.88568   0.62867   0.00000  Uiso   1.00
F684   F     0.76865   0.78098   0.37133   0.00000  Uiso   1.00
C685   C     0.16662   0.08662   0.83330   0.00000  Uiso   1.00
C686   C     0.16672   0.24671   0.83336   0.00000  Uiso   1.00
C687   C     0.06703   0.16665   0.82135   0.00000  Uiso   1.00
C688   C     0.26630   0.16668   0.84532   0.00000  Uiso   1.00
C689   C     0.01198   0.16668   0.81491   0.00000  Uiso   1.00
C690   C     0.32135   0.16665   0.85176   0.00000  Uiso   1.00
C691   C     0.16616   0.02124   0.79198   0.00000  Uiso   1.00
C692   C     0.16718   0.31209   0.87469   0.00000  Uiso   1.00
C693   C     0.16623   0.31202   0.79201   0.00000  Uiso   1.00
C694   C     0.16710   0.02131   0.87466   0.00000  Uiso   1.00
C695   C     0.16673   0.29087   0.83336   0.00000  Uiso   1.00
C696   C     0.16661   0.04247   0.83330   0.00000  Uiso   1.00
C697   C     0.19893   0.19280   0.69493   0.00000  Uiso   1.00
C698   C     0.13440   0.14053   0.97174   0.00000  Uiso   1.00
C699   C     0.19895   0.19281   0.98032   0.00000  Uiso   1.00
C700   C     0.13439   0.14053   0.68635   0.00000  Uiso   1.00
H701   H     0.32466   0.16675   0.77996   0.00000  Uiso   1.00
H702   H     0.00867   0.16659   0.88671   0.00000  Uiso   1.00
H703   H     0.16574   0.03734   0.75974   0.00000  Uiso   1.00
H704   H     0.16760   0.29599   0.90693   0.00000  Uiso   1.00
H705   H     0.16588   0.29587   0.75978   0.00000  Uiso   1.00
H706   H     0.16745   0.03747   0.90689   0.00000  Uiso   1.00
H707   H     0.22472   0.21368   0.71654   0.00000  Uiso   1.00
H708   H     0.10861   0.11965   0.95013   0.00000  Uiso   1.00
N709   N     0.16665   0.16666   0.95240   0.00000  Uiso   1.00
N710   N     0.16668   0.16668   0.71427   0.00000  Uiso   1.00
O711   O     0.16666   0.10558   0.87154   0.00000  Uiso   1.00
O712   O     0.16667   0.22775   0.79513   0.00000  Uiso   1.00
O713   O     0.16666   0.10559   0.79510   0.00000  Uiso   1.00
O714   O     0.16667   0.22774   0.87157   0.00000  Uiso   1.00
O715   O     0.09058   0.16666   0.86261   0.00000  Uiso   1.00
O716   O     0.24275   0.16667   0.80405   0.00000  Uiso   1.00
O717   O     0.09058   0.16667   0.78617   0.00000  Uiso   1.00
O718   O     0.24275   0.16666   0.88050   0.00000  Uiso   1.00
Zn719  Zn    0.16667   0.16666   0.88437   0.00000  Uiso   1.00
Zn720  Zn    0.16667   0.16667   0.78229   0.00000  Uiso   1.00
F721   F     0.23135   0.21902   0.96200   0.00000  Uiso   1.00
F722   F     0.10198   0.11432   0.70467   0.00000  Uiso   1.00
C723   C     0.49995   0.08662   0.83330   0.00000  Uiso   1.00
C724   C     0.50005   0.24671   0.83336   0.00000  Uiso   1.00
C725   C     0.40036   0.16665   0.82135   0.00000  Uiso   1.00
C726   C     0.59964   0.16668   0.84532   0.00000  Uiso   1.00
C727   C     0.34532   0.16668   0.81491   0.00000  Uiso   1.00
C728   C     0.65468   0.16665   0.85176   0.00000  Uiso   1.00
C729   C     0.49949   0.02124   0.79198   0.00000  Uiso   1.00
C730   C     0.50051   0.31209   0.87469   0.00000  Uiso   1.00
C731   C     0.49957   0.31202   0.79201   0.00000  Uiso   1.00
C732   C     0.50043   0.02131   0.87466   0.00000  Uiso   1.00
C733   C     0.50006   0.29087   0.83336   0.00000  Uiso   1.00
C734   C     0.49994   0.04247   0.83330   0.00000  Uiso   1.00
C735   C     0.53227   0.19280   0.69493   0.00000  Uiso   1.00
C736   C     0.46773   0.14053   0.97174   0.00000  Uiso   1.00
C737   C     0.53228   0.19281   0.98032   0.00000  Uiso   1.00
C738   C     0.46772   0.14053   0.68635   0.00000  Uiso   1.00
H739   H     0.65799   0.16675   0.77996   0.00000  Uiso   1.00
H740   H     0.34201   0.16659   0.88671   0.00000  Uiso   1.00
H741   H     0.49907   0.03734   0.75974   0.00000  Uiso   1.00
H742   H     0.50093   0.29599   0.90693   0.00000  Uiso   1.00
H743   H     0.49922   0.29587   0.75978   0.00000  Uiso   1.00
H744   H     0.50078   0.03747   0.90689   0.00000  Uiso   1.00
H745   H     0.55806   0.21368   0.71654   0.00000  Uiso   1.00
H746   H     0.44194   0.11965   0.95013   0.00000  Uiso   1.00
N747   N     0.49999   0.16666   0.95240   0.00000  Uiso   1.00
N748   N     0.50001   0.16668   0.71427   0.00000  Uiso   1.00
O749   O     0.50000   0.10558   0.87154   0.00000  Uiso   1.00
O750   O     0.50000   0.22775   0.79513   0.00000  Uiso   1.00
O751   O     0.50000   0.10559   0.79510   0.00000  Uiso   1.00
O752   O     0.50000   0.22774   0.87157   0.00000  Uiso   1.00
O753   O     0.42392   0.16666   0.86261   0.00000  Uiso   1.00
O754   O     0.57608   0.16667   0.80405   0.00000  Uiso   1.00
O755   O     0.42392   0.16667   0.78617   0.00000  Uiso   1.00
O756   O     0.57608   0.16666   0.88050   0.00000  Uiso   1.00
Zn757  Zn    0.50000   0.16666   0.88437   0.00000  Uiso   1.00
Zn758  Zn    0.50000   0.16667   0.78229   0.00000  Uiso   1.00
F759   F     0.56468   0.21902   0.96200   0.00000  Uiso   1.00
F760   F     0.43532   0.11432   0.70467   0.00000  Uiso   1.00
C761   C     0.83328   0.08662   0.83330   0.00000  Uiso   1.00
C762   C     0.83338   0.24671   0.83336   0.00000  Uiso   1.00
C763   C     0.73370   0.16665   0.82135   0.00000  Uiso   1.00
C764   C     0.93297   0.16668   0.84532   0.00000  Uiso   1.00
C765   C     0.67865   0.16668   0.81491   0.00000  Uiso   1.00
C766   C     0.98802   0.16665   0.85176   0.00000  Uiso   1.00
C767   C     0.83282   0.02124   0.79198   0.00000  Uiso   1.00
C768   C     0.83384   0.31209   0.87469   0.00000  Uiso   1.00
C769   C     0.83290   0.31202   0.79201   0.00000  Uiso   1.00
C770   C     0.83377   0.02131   0.87466   0.00000  Uiso   1.00
C771   C     0.83339   0.29087   0.83336   0.00000  Uiso   1.00
C772   C     0.83327   0.04247   0.83330   0.00000  Uiso   1.00
C773   C     0.86560   0.19280   0.69493   0.00000  Uiso   1.00
C774   C     0.80107   0.14053   0.97174   0.00000  Uiso   1.00
C775   C     0.86561   0.19281   0.98032   0.00000  Uiso   1.00
C776   C     0.80105   0.14053   0.68635   0.00000  Uiso   1.00
H777   H     0.99133   0.16675   0.77996   0.00000  Uiso   1.00
H778   H     0.67534   0.16659   0.88671   0.00000  Uiso   1.00
H779   H     0.83240   0.03734   0.75974   0.00000  Uiso   1.00
H780   H     0.83426   0.29599   0.90693   0.00000  Uiso   1.00
H781   H     0.83255   0.29587   0.75978   0.00000  Uiso   1.00
H782   H     0.83412   0.03747   0.90689   0.00000  Uiso   1.00
H783   H     0.89139   0.21368   0.71654   0.00000  Uiso   1.00
H784   H     0.77528   0.11965   0.95013   0.00000  Uiso   1.00
N785   N     0.83332   0.16666   0.95240   0.00000  Uiso   1.00
N786   N     0.83335   0.16668   0.71427   0.00000  Uiso   1.00
O787   O     0.83333   0.10558   0.87154   0.00000  Uiso   1.00
O788   O     0.83334   0.22775   0.79513   0.00000  Uiso   1.00
O789   O     0.83333   0.10559   0.79510   0.00000  Uiso   1.00
O790   O     0.83334   0.22774   0.87157   0.00000  Uiso   1.00
O791   O     0.75725   0.16666   0.86261   0.00000  Uiso   1.00
O792   O     0.90942   0.16667   0.80405   0.00000  Uiso   1.00
O793   O     0.75725   0.16667   0.78617   0.00000  Uiso   1.00
O794   O     0.90942   0.16666   0.88050   0.00000  Uiso   1.00
Zn795  Zn    0.83333   0.16666   0.88437   0.00000  Uiso   1.00
Zn796  Zn    0.83333   0.16667   0.78229   0.00000  Uiso   1.00
F797   F     0.89802   0.21902   0.96200   0.00000  Uiso   1.00
F798   F     0.76865   0.11432   0.70467   0.00000  Uiso   1.00
C799   C     0.16662   0.41996   0.83330   0.00000  Uiso   1.00
C800   C     0.16672   0.58004   0.83336   0.00000  Uiso   1.00
C801   C     0.06703   0.49999   0.82135   0.00000  Uiso   1.00
C802   C     0.26630   0.50001   0.84532   0.00000  Uiso   1.00
C803   C     0.01198   0.50002   0.81491   0.00000  Uiso   1.00
C804   C     0.32135   0.49998   0.85176   0.00000  Uiso   1.00
C805   C     0.16616   0.35457   0.79198   0.00000  Uiso   1.00
C806   C     0.16718   0.64543   0.87469   0.00000  Uiso   1.00
C807   C     0.16623   0.64536   0.79201   0.00000  Uiso   1.00
C808   C     0.16710   0.35464   0.87466   0.00000  Uiso   1.00
C809   C     0.16673   0.62420   0.83336   0.00000  Uiso   1.00
C810   C     0.16661   0.37580   0.83330   0.00000  Uiso   1.00
C811   C     0.19893   0.52613   0.69493   0.00000  Uiso   1.00
C812   C     0.13440   0.47387   0.97174   0.00000  Uiso   1.00
C813   C     0.19895   0.52614   0.98032   0.00000  Uiso   1.00
C814   C     0.13439   0.47386   0.68635   0.00000  Uiso   1.00
H815   H     0.32466   0.50008   0.77996   0.00000  Uiso   1.00
H816   H     0.00867   0.49992   0.88671   0.00000  Uiso   1.00
H817   H     0.16574   0.37068   0.75974   0.00000  Uiso   1.00
H818   H     0.16760   0.62932   0.90693   0.00000  Uiso   1.00
H819   H     0.16588   0.62920   0.75978   0.00000  Uiso   1.00
H820   H     0.16745   0.37080   0.90689   0.00000  Uiso   1.00
H821   H     0.22472   0.54702   0.71654   0.00000  Uiso   1.00
H822   H     0.10861   0.45298   0.95013   0.00000  Uiso   1.00
N823   N     0.16665   0.49999   0.95240   0.00000  Uiso   1.00
N824   N     0.16668   0.50001   0.71427   0.00000  Uiso   1.00
O825   O     0.16666   0.43892   0.87154   0.00000  Uiso   1.00
O826   O     0.16667   0.56108   0.79513   0.00000  Uiso   1.00
O827   O     0.16666   0.43893   0.79510   0.00000  Uiso   1.00
O828   O     0.16667   0.56107   0.87157   0.00000  Uiso   1.00
O829   O     0.09058   0.50000   0.86261   0.00000  Uiso   1.00
O830   O     0.24275   0.50000   0.80405   0.00000  Uiso   1.00
O831   O     0.09058   0.50000   0.78617   0.00000  Uiso   1.00
O832   O     0.24275   0.50000   0.88050   0.00000  Uiso   1.00
Zn833  Zn    0.16667   0.49999   0.88437   0.00000  Uiso   1.00
Zn834  Zn    0.16667   0.50001   0.78229   0.00000  Uiso   1.00
F835   F     0.23135   0.55235   0.96200   0.00000  Uiso   1.00
F836   F     0.10198   0.44765   0.70467   0.00000  Uiso   1.00
C837   C     0.49995   0.41996   0.83330   0.00000  Uiso   1.00
C838   C     0.50005   0.58004   0.83336   0.00000  Uiso   1.00
C839   C     0.40036   0.49999   0.82135   0.00000  Uiso   1.00
C840   C     0.59964   0.50001   0.84532   0.00000  Uiso   1.00
C841   C     0.34532   0.50002   0.81491   0.00000  Uiso   1.00
C842   C     0.65468   0.49998   0.85176   0.00000  Uiso   1.00
C843   C     0.49949   0.35457   0.79198   0.00000  Uiso   1.00
C844   C     0.50051   0.64543   0.87469   0.00000  Uiso   1.00
C845   C     0.49957   0.64536   0.79201   0.00000  Uiso   1.00
C846   C     0.50043   0.35464   0.87466   0.00000  Uiso   1.00
C847   C     0.50006   0.62420   0.83336   0.00000  Uiso   1.00
C848   C     0.49994   0.37580   0.83330   0.00000  Uiso   1.00
C849   C     0.53227   0.52613   0.69493   0.00000  Uiso   1.00
C850   C     0.46773   0.47387   0.97174   0.00000  Uiso   1.00
C851   C     0.53228   0.52614   0.98032   0.00000  Uiso   1.00
C852   C     0.46772   0.47386   0.68635   0.00000  Uiso   1.00
H853   H     0.65799   0.50008   0.77996   0.00000  Uiso   1.00
H854   H     0.34201   0.49992   0.88671   0.00000  Uiso   1.00
H855   H     0.49907   0.37068   0.75974   0.00000  Uiso   1.00
H856   H     0.50093   0.62932   0.90693   0.00000  Uiso   1.00
H857   H     0.49922   0.62920   0.75978   0.00000  Uiso   1.00
H858   H     0.50078   0.37080   0.90689   0.00000  Uiso   1.00
H859   H     0.55806   0.54702   0.71654   0.00000  Uiso   1.00
H860   H     0.44194   0.45298   0.95013   0.00000  Uiso   1.00
N861   N     0.49999   0.49999   0.95240   0.00000  Uiso   1.00
N862   N     0.50001   0.50001   0.71427   0.00000  Uiso   1.00
O863   O     0.50000   0.43892   0.87154   0.00000  Uiso   1.00
O864   O     0.50000   0.56108   0.79513   0.00000  Uiso   1.00
O865   O     0.50000   0.43893   0.79510   0.00000  Uiso   1.00
O866   O     0.50000   0.56107   0.87157   0.00000  Uiso   1.00
O867   O     0.42392   0.50000   0.86261   0.00000  Uiso   1.00
O868   O     0.57608   0.50000   0.80405   0.00000  Uiso   1.00
O869   O     0.42392   0.50000   0.78617   0.00000  Uiso   1.00
O870   O     0.57608   0.50000   0.88050   0.00000  Uiso   1.00
Zn871  Zn    0.50000   0.49999   0.88437   0.00000  Uiso   1.00
Zn872  Zn    0.50000   0.50001   0.78229   0.00000  Uiso   1.00
F873   F     0.56468   0.55235   0.96200   0.00000  Uiso   1.00
F874   F     0.43532   0.44765   0.70467   0.00000  Uiso   1.00
C875   C     0.83328   0.41996   0.83330   0.00000  Uiso   1.00
C876   C     0.83338   0.58004   0.83336   0.00000  Uiso   1.00
C877   C     0.73370   0.49999   0.82135   0.00000  Uiso   1.00
C878   C     0.93297   0.50001   0.84532   0.00000  Uiso   1.00
C879   C     0.67865   0.50002   0.81491   0.00000  Uiso   1.00
C880   C     0.98802   0.49998   0.85176   0.00000  Uiso   1.00
C881   C     0.83282   0.35457   0.79198   0.00000  Uiso   1.00
C882   C     0.83384   0.64543   0.87469   0.00000  Uiso   1.00
C883   C     0.83290   0.64536   0.79201   0.00000  Uiso   1.00
C884   C     0.83377   0.35464   0.87466   0.00000  Uiso   1.00
C885   C     0.83339   0.62420   0.83336   0.00000  Uiso   1.00
C886   C     0.83327   0.37580   0.83330   0.00000  Uiso   1.00
C887   C     0.86560   0.52613   0.69493   0.00000  Uiso   1.00
C888   C     0.80107   0.47387   0.97174   0.00000  Uiso   1.00
C889   C     0.86561   0.52614   0.98032   0.00000  Uiso   1.00
C890   C     0.80105   0.47386   0.68635   0.00000  Uiso   1.00
H891   H     0.99133   0.50008   0.77996   0.00000  Uiso   1.00
H892   H     0.67534   0.49992   0.88671   0.00000  Uiso   1.00
H893   H     0.83240   0.37068   0.75974   0.00000  Uiso   1.00
H894   H     0.83426   0.62932   0.90693   0.00000  Uiso   1.00
H895   H     0.83255   0.62920   0.75978   0.00000  Uiso   1.00
H896   H     0.83412   0.37080   0.90689   0.00000  Uiso   1.00
H897   H     0.89139   0.54702   0.71654   0.00000  Uiso   1.00
H898   H     0.77528   0.45298   0.95013   0.00000  Uiso   1.00
N899   N     0.83332   0.49999   0.95240   0.00000  Uiso   1.00
N900   N     0.83335   0.50001   0.71427   0.00000  Uiso   1.00
O901   O     0.83333   0.43892   0.87154   0.00000  Uiso   1.00
O902   O     0.83334   0.56108   0.79513   0.00000  Uiso   1.00
O903   O     0.83333   0.43893   0.79510   0.00000  Uiso   1.00
O904   O     0.83334   0.56107   0.87157   0.00000  Uiso   1.00
O905   O     0.75725   0.50000   0.86261   0.00000  Uiso   1.00
O906   O     0.90942   0.50000   0.80405   0.00000  Uiso   1.00
O907   O     0.75725   0.50000   0.78617   0.00000  Uiso   1.00
O908   O     0.90942   0.50000   0.88050   0.00000  Uiso   1.00
Zn909  Zn    0.83333   0.49999   0.88437   0.00000  Uiso   1.00
Zn910  Zn    0.83333   0.50001   0.78229   0.00000  Uiso   1.00
F911   F     0.89802   0.55235   0.96200   0.00000  Uiso   1.00
F912   F     0.76865   0.44765   0.70467   0.00000  Uiso   1.00
C913   C     0.16662   0.75329   0.83330   0.00000  Uiso   1.00
C914   C     0.16672   0.91338   0.83336   0.00000  Uiso   1.00
C915   C     0.06703   0.83332   0.82135   0.00000  Uiso   1.00
C916   C     0.26630   0.83335   0.84532   0.00000  Uiso   1.00
C917   C     0.01198   0.83335   0.81491   0.00000  Uiso   1.00
C918   C     0.32135   0.83332   0.85176   0.00000  Uiso   1.00
C919   C     0.16616   0.68791   0.79198   0.00000  Uiso   1.00
C920   C     0.16718   0.97876   0.87469   0.00000  Uiso   1.00
C921   C     0.16623   0.97869   0.79201   0.00000  Uiso   1.00
C922   C     0.16710   0.68798   0.87466   0.00000  Uiso   1.00
C923   C     0.16673   0.95753   0.83336   0.00000  Uiso   1.00
C924   C     0.16661   0.70913   0.83330   0.00000  Uiso   1.00
C925   C     0.19893   0.85947   0.69493   0.00000  Uiso   1.00
C926   C     0.13440   0.80720   0.97174   0.00000  Uiso   1.00
C927   C     0.19895   0.85947   0.98032   0.00000  Uiso   1.00
C928   C     0.13439   0.80719   0.68635   0.00000  Uiso   1.00
H929   H     0.32466   0.83341   0.77996   0.00000  Uiso   1.00
H930   H     0.00867   0.83325   0.88671   0.00000  Uiso   1.00
H931   H     0.16574   0.70401   0.75974   0.00000  Uiso   1.00
H932   H     0.16760   0.96266   0.90693   0.00000  Uiso   1.00
H933   H     0.16588   0.96253   0.75978   0.00000  Uiso   1.00
H934   H     0.16745   0.70413   0.90689   0.00000  Uiso   1.00
H935   H     0.22472   0.88035   0.71654   0.00000  Uiso   1.00
H936   H     0.10861   0.78632   0.95013   0.00000  Uiso   1.00
N937   N     0.16665   0.83332   0.95240   0.00000  Uiso   1.00
N938   N     0.16668   0.83334   0.71427   0.00000  Uiso   1.00
O939   O     0.16666   0.77225   0.87154   0.00000  Uiso   1.00
O940   O     0.16667   0.89442   0.79513   0.00000  Uiso   1.00
O941   O     0.16666   0.77226   0.79510   0.00000  Uiso   1.00
O942   O     0.16667   0.89441   0.87157   0.00000  Uiso   1.00
O943   O     0.09058   0.83333   0.86261   0.00000  Uiso   1.00
O944   O     0.24275   0.83334   0.80405   0.00000  Uiso   1.00
O945   O     0.09058   0.83334   0.78617   0.00000  Uiso   1.00
O946   O     0.24275   0.83333   0.88050   0.00000  Uiso   1.00
Zn947  Zn    0.16667   0.83333   0.88437   0.00000  Uiso   1.00
Zn948  Zn    0.16667   0.83334   0.78229   0.00000  Uiso   1.00
F949   F     0.23135   0.88568   0.96200   0.00000  Uiso   1.00
F950   F     0.10198   0.78098   0.70467   0.00000  Uiso   1.00
C951   C     0.49995   0.75329   0.83330   0.00000  Uiso   1.00
C952   C     0.50005   0.91338   0.83336   0.00000  Uiso   1.00
C953   C     0.40036   0.83332   0.82135   0.00000  Uiso   1.00
C954   C     0.59964   0.83335   0.84532   0.00000  Uiso   1.00
C955   C     0.34532   0.83335   0.81491   0.00000  Uiso   1.00
C956   C     0.65468   0.83332   0.85176   0.00000  Uiso   1.00
C957   C     0.49949   0.68791   0.79198   0.00000  Uiso   1.00
C958   C     0.50051   0.97876   0.87469   0.00000  Uiso   1.00
C959   C     0.49957   0.97869   0.79201   0.00000  Uiso   1.00
C960   C     0.50043   0.68798   0.87466   0.00000  Uiso   1.00
C961   C     0.50006   0.95753   0.83336   0.00000  Uiso   1.00
C962   C     0.49994   0.70913   0.83330   0.00000  Uiso   1.00
C963   C     0.53227   0.85947   0.69493   0.00000  Uiso   1.00
C964   C     0.46773   0.80720   0.97174   0.00000  Uiso   1.00
C965   C     0.53228   0.85947   0.98032   0.00000  Uiso   1.00
C966   C     0.46772   0.80719   0.68635   0.00000  Uiso   1.00
H967   H     0.65799   0.83341   0.77996   0.00000  Uiso   1.00
H968   H     0.34201   0.83325   0.88671   0.00000  Uiso   1.00
H969   H     0.49907   0.70401   0.75974   0.00000  Uiso   1.00
H970   H     0.50093   0.96266   0.90693   0.00000  Uiso   1.00
H971   H     0.49922   0.96253   0.75978   0.00000  Uiso   1.00
H972   H     0.50078   0.70413   0.90689   0.00000  Uiso   1.00
H973   H     0.55806   0.88035   0.71654   0.00000  Uiso   1.00
H974   H     0.44194   0.78632   0.95013   0.00000  Uiso   1.00
N975   N     0.49999   0.83332   0.95240   0.00000  Uiso   1.00
N976   N     0.50001   0.83334   0.71427   0.00000  Uiso   1.00
O977   O     0.50000   0.77225   0.87154   0.00000  Uiso   1.00
O978   O     0.50000   0.89442   0.79513   0.00000  Uiso   1.00
O979   O     0.50000   0.77226   0.79510   0.00000  Uiso   1.00
O980   O     0.50000   0.89441   0.87157   0.00000  Uiso   1.00
O981   O     0.42392   0.83333   0.86261   0.00000  Uiso   1.00
O982   O     0.57608   0.83334   0.80405   0.00000  Uiso   1.00
O983   O     0.42392   0.83334   0.78617   0.00000  Uiso   1.00
O984   O     0.57608   0.83333   0.88050   0.00000  Uiso   1.00
Zn985  Zn    0.50000   0.83333   0.88437   0.00000  Uiso   1.00
Zn986  Zn    0.50000   0.83334   0.78229   0.00000  Uiso   1.00
F987   F     0.56468   0.88568   0.96200   0.00000  Uiso   1.00
F988   F     0.43532   0.78098   0.70467   0.00000  Uiso   1.00
C989   C     0.83328   0.75329   0.83330   0.00000  Uiso   1.00
C990   C     0.83338   0.91338   0.83336   0.00000  Uiso   1.00
C991   C     0.73370   0.83332   0.82135   0.00000  Uiso   1.00
C992   C     0.93297   0.83335   0.84532   0.00000  Uiso   1.00
C993   C     0.67865   0.83335   0.81491   0.00000  Uiso   1.00
C994   C     0.98802   0.83332   0.85176   0.00000  Uiso   1.00
C995   C     0.83282   0.68791   0.79198   0.00000  Uiso   1.00
C996   C     0.83384   0.97876   0.87469   0.00000  Uiso   1.00
C997   C     0.83290   0.97869   0.79201   0.00000  Uiso   1.00
C998   C     0.83377   0.68798   0.87466   0.00000  Uiso   1.00
C999   C     0.83339   0.95753   0.83336   0.00000  Uiso   1.00
C1000  C     0.83327   0.70913   0.83330   0.00000  Uiso   1.00
C1001  C     0.86560   0.85947   0.69493   0.00000  Uiso   1.00
C1002  C     0.80107   0.80720   0.97174   0.00000  Uiso   1.00
C1003  C     0.86561   0.85947   0.98032   0.00000  Uiso   1.00
C1004  C     0.80105   0.80719   0.68635   0.00000  Uiso   1.00
H1005  H     0.99133   0.83341   0.77996   0.00000  Uiso   1.00
H1006  H     0.67534   0.83325   0.88671   0.00000  Uiso   1.00
H1007  H     0.83240   0.70401   0.75974   0.00000  Uiso   1.00
H1008  H     0.83426   0.96266   0.90693   0.00000  Uiso   1.00
H1009  H     0.83255   0.96253   0.75978   0.00000  Uiso   1.00
H1010  H     0.83412   0.70413   0.90689   0.00000  Uiso   1.00
H1011  H     0.89139   0.88035   0.71654   0.00000  Uiso   1.00
H1012  H     0.77528   0.78632   0.95013   0.00000  Uiso   1.00
N1013  N     0.83332   0.83332   0.95240   0.00000  Uiso   1.00
N1014  N     0.83335   0.83334   0.71427   0.00000  Uiso   1.00
O1015  O     0.83333   0.77225   0.87154   0.00000  Uiso   1.00
O1016  O     0.83334   0.89442   0.79513   0.00000  Uiso   1.00
O1017  O     0.83333   0.77226   0.79510   0.00000  Uiso   1.00
O1018  O     0.83334   0.89441   0.87157   0.00000  Uiso   1.00
O1019  O     0.75725   0.83333   0.86261   0.00000  Uiso   1.00
O1020  O     0.90942   0.83334   0.80405   0.00000  Uiso   1.00
O1021  O     0.75725   0.83334   0.78617   0.00000  Uiso   1.00
O1022  O     0.90942   0.83333   0.88050   0.00000  Uiso   1.00
Zn1023 Zn    0.83333   0.83333   0.88437   0.00000  Uiso   1.00
Zn1024 Zn    0.83333   0.83334   0.78229   0.00000  Uiso   1.00
F1025  F     0.89802   0.88568   0.96200   0.00000  Uiso   1.00
F1026  F     0.76865   0.78098   0.70467   0.00000  Uiso   1.00
loop_
_geom_bond_atom_site_label_1
_geom_bond_atom_site_label_2
_geom_bond_distance
_geom_bond_site_symmetry_2
_ccdc_geom_bond_type
C1     O29     1.284   .     A
C1     C12     1.421   .     S
C1     O27     1.284   .     A
C2     O30     1.284   .     A
C2     C11     1.421   .     S
C2     O28     1.284   .     A
C3     O31     1.277   .     A
C3     O33     1.281   .     A
C3     C5      1.403   .     S
C4     O34     1.281   .     A
C4     O32     1.277   .     A
C4     C6      1.403   .     S
C5     C82     1.331   1_455 S
C5     H93     1.088   1_455 S
C6     C43     1.331   .     S
C6     H56     1.088   .     S
C7     H19     1.084   .     S
C7     C12     1.397   .     A
C7     C237    1.370   1_545 S
C8     H20     1.084   .     S
C8     C11     1.397   .     A
C8     C124    1.370   .     S
C9     C11     1.398   .     A
C9     H21     1.084   .     S
C9     C121    1.370   .     S
C10    H22     1.084   .     S
C10    C12     1.398   .     A
C10    C236    1.370   1_545 S
C13    N26     1.366   .     A
C13    H23     1.082   .     S
C13    C699    1.417   1_554 S
C14    N25     1.366   .     A
C14    H24     1.082   .     S
C14    C358    1.417   .     S
C15    N25     1.367   .     A
C15    F37     1.355   .     S
C15    C355    1.417   .     S
C16    N26     1.367   .     A
C16    F38     1.355   .     S
C16    C698    1.417   1_554 S
H17    C43     1.088   .     S
H18    C82     1.088   1_455 S
N25    Zn35    2.010   .     S
N26    Zn36    2.010   .     S
O27    Zn35    2.002   .     S
O28    Zn36    2.002   .     S
O29    Zn36    2.002   .     S
O30    Zn35    2.002   .     S
O31    Zn35    1.970   .     S
O32    Zn36    1.970   .     S
O33    Zn36    1.982   .     S
O34    Zn35    1.982   .     S
C39    O67     1.284   .     A
C39    C50     1.421   .     S
C39    O65     1.284   .     A
C40    O68     1.284   .     A
C40    C49     1.421   .     S
C40    O66     1.284   .     A
C41    O69     1.277   .     A
C41    O71     1.281   .     A
C41    C43     1.403   .     S
C42    O72     1.281   .     A
C42    O70     1.277   .     A
C42    C44     1.403   .     S
C44    C81     1.331   .     S
C44    H94     1.088   .     S
C45    H57     1.084   .     S
C45    C50     1.397   .     A
C45    C275    1.370   1_545 S
C46    H58     1.084   .     S
C46    C49     1.397   .     A
C46    C162    1.370   .     S
C47    C49     1.398   .     A
C47    H59     1.084   .     S
C47    C159    1.370   .     S
C48    H60     1.084   .     S
C48    C50     1.398   .     A
C48    C274    1.370   1_545 S
C51    N64     1.366   .     A
C51    H61     1.082   .     S
C51    C737    1.417   1_554 S
C52    N63     1.366   .     A
C52    H62     1.082   .     S
C52    C396    1.417   .     S
C53    N63     1.367   .     A
C53    F75     1.355   .     S
C53    C393    1.417   .     S
C54    N64     1.367   .     A
C54    F76     1.355   .     S
C54    C736    1.417   1_554 S
H55    C81     1.088   .     S
N63    Zn73    2.010   .     S
N64    Zn74    2.010   .     S
O65    Zn73    2.002   .     S
O66    Zn74    2.002   .     S
O67    Zn74    2.002   .     S
O68    Zn73    2.002   .     S
O69    Zn73    1.970   .     S
O70    Zn74    1.970   .     S
O71    Zn74    1.982   .     S
O72    Zn73    1.982   .     S
C77    O105    1.284   .     A
C77    C88     1.421   .     S
C77    O103    1.284   .     A
C78    O106    1.284   .     A
C78    C87     1.421   .     S
C78    O104    1.284   .     A
C79    O107    1.277   .     A
C79    O109    1.281   .     A
C79    C81     1.403   .     S
C80    O110    1.281   .     A
C80    O108    1.277   .     A
C80    C82     1.403   .     S
C82    C5      1.331   1_655 S
C82    H18     1.088   1_655 S
C83    H95     1.084   .     S
C83    C88     1.397   .     A
C83    C313    1.370   1_545 S
C84    H96     1.084   .     S
C84    C87     1.397   .     A
C84    C200    1.370   .     S
C85    C87     1.398   .     A
C85    H97     1.084   .     S
C85    C197    1.370   .     S
C86    H98     1.084   .     S
C86    C88     1.398   .     A
C86    C312    1.370   1_545 S
C89    N102    1.366   .     A
C89    H99     1.082   .     S
C89    C775    1.417   1_554 S
C90    N101    1.366   .     A
C90    H100    1.082   .     S
C90    C434    1.417   .     S
C91    N101    1.367   .     A
C91    F113    1.355   .     S
C91    C431    1.417   .     S
C92    N102    1.367   .     A
C92    F114    1.355   .     S
C92    C774    1.417   1_554 S
H93    C5      1.088   1_655 S
N101   Zn111   2.010   .     S
N102   Zn112   2.010   .     S
O103   Zn111   2.002   .     S
O104   Zn112   2.002   .     S
O105   Zn112   2.002   .     S
O106   Zn111   2.002   .     S
O107   Zn111   1.970   .     S
O108   Zn112   1.970   .     S
O109   Zn112   1.982   .     S
O110   Zn111   1.982   .     S
C115   O143    1.284   .     A
C115   C126    1.421   .     S
C115   O141    1.284   .     A
C116   O144    1.284   .     A
C116   C125    1.421   .     S
C116   O142    1.284   .     A
C117   O145    1.277   .     A
C117   O147    1.281   .     A
C117   C119    1.403   .     S
C118   O148    1.281   .     A
C118   O146    1.277   .     A
C118   C120    1.403   .     S
C119   C196    1.331   1_455 S
C119   H207    1.088   1_455 S
C120   C157    1.331   .     S
C120   H170    1.088   .     S
C121   H133    1.084   .     S
C121   C126    1.397   .     A
C122   H134    1.084   .     S
C122   C125    1.397   .     A
C122   C238    1.370   .     S
C123   C125    1.398   .     A
C123   H135    1.084   .     S
C123   C235    1.370   .     S
C124   H136    1.084   .     S
C124   C126    1.398   .     A
C127   N140    1.366   .     A
C127   H137    1.082   .     S
C127   C813    1.417   1_554 S
C128   N139    1.366   .     A
C128   H138    1.082   .     S
C128   C472    1.417   .     S
C129   N139    1.367   .     A
C129   F151    1.355   .     S
C129   C469    1.417   .     S
C130   N140    1.367   .     A
C130   F152    1.355   .     S
C130   C812    1.417   1_554 S
H131   C157    1.088   .     S
H132   C196    1.088   1_455 S
N139   Zn149   2.010   .     S
N140   Zn150   2.010   .     S
O141   Zn149   2.002   .     S
O142   Zn150   2.002   .     S
O143   Zn150   2.002   .     S
O144   Zn149   2.002   .     S
O145   Zn149   1.970   .     S
O146   Zn150   1.970   .     S
O147   Zn150   1.982   .     S
O148   Zn149   1.982   .     S
C153   O181    1.284   .     A
C153   C164    1.421   .     S
C153   O179    1.284   .     A
C154   O182    1.284   .     A
C154   C163    1.421   .     S
C154   O180    1.284   .     A
C155   O183    1.277   .     A
C155   O185    1.281   .     A
C155   C157    1.403   .     S
C156   O186    1.281   .     A
C156   O184    1.277   .     A
C156   C158    1.403   .     S
C158   C195    1.331   .     S
C158   H208    1.088   .     S
C159   H171    1.084   .     S
C159   C164    1.397   .     A
C160   H172    1.084   .     S
C160   C163    1.397   .     A
C160   C276    1.370   .     S
C161   C163    1.398   .     A
C161   H173    1.084   .     S
C161   C273    1.370   .     S
C162   H174    1.084   .     S
C162   C164    1.398   .     A
C165   N178    1.366   .     A
C165   H175    1.082   .     S
C165   C851    1.417   1_554 S
C166   N177    1.366   .     A
C166   H176    1.082   .     S
C166   C510    1.417   .     S
C167   N177    1.367   .     A
C167   F189    1.355   .     S
C167   C507    1.417   .     S
C168   N178    1.367   .     A
C168   F190    1.355   .     S
C168   C850    1.417   1_554 S
H169   C195    1.088   .     S
N177   Zn187   2.010   .     S
N178   Zn188   2.010   .     S
O179   Zn187   2.002   .     S
O180   Zn188   2.002   .     S
O181   Zn188   2.002   .     S
O182   Zn187   2.002   .     S
O183   Zn187   1.970   .     S
O184   Zn188   1.970   .     S
O185   Zn188   1.982   .     S
O186   Zn187   1.982   .     S
C191   O219    1.284   .     A
C191   C202    1.421   .     S
C191   O217    1.284   .     A
C192   O220    1.284   .     A
C192   C201    1.421   .     S
C192   O218    1.284   .     A
C193   O221    1.277   .     A
C193   O223    1.281   .     A
C193   C195    1.403   .     S
C194   O224    1.281   .     A
C194   O222    1.277   .     A
C194   C196    1.403   .     S
C196   C119    1.331   1_655 S
C196   H132    1.088   1_655 S
C197   H209    1.084   .     S
C197   C202    1.397   .     A
C198   H210    1.084   .     S
C198   C201    1.397   .     A
C198   C314    1.370   .     S
C199   C201    1.398   .     A
C199   H211    1.084   .     S
C199   C311    1.370   .     S
C200   H212    1.084   .     S
C200   C202    1.398   .     A
C203   N216    1.366   .     A
C203   H213    1.082   .     S
C203   C889    1.417   1_554 S
C204   N215    1.366   .     A
C204   H214    1.082   .     S
C204   C548    1.417   .     S
C205   N215    1.367   .     A
C205   F227    1.355   .     S
C205   C545    1.417   .     S
C206   N216    1.367   .     A
C206   F228    1.355   .     S
C206   C888    1.417   1_554 S
H207   C119    1.088   1_655 S
N215   Zn225   2.010   .     S
N216   Zn226   2.010   .     S
O217   Zn225   2.002   .     S
O218   Zn226   2.002   .     S
O219   Zn226   2.002   .     S
O220   Zn225   2.002   .     S
O221   Zn225   1.970   .     S
O222   Zn226   1.970   .     S
O223   Zn226   1.982   .     S
O224   Zn225   1.982   .     S
C229   O257    1.284   .     A
C229   C240    1.421   .     S
C229   O255    1.284   .     A
C230   O258    1.284   .     A
C230   C239    1.421   .     S
C230   O256    1.284   .     A
C231   O259    1.277   .     A
C231   O261    1.281   .     A
C231   C233    1.403   .     S
C232   O262    1.281   .     A
C232   O260    1.277   .     A
C232   C234    1.403   .     S
C233   C310    1.331   1_455 S
C233   H321    1.088   1_455 S
C234   C271    1.331   .     S
C234   H284    1.088   .     S
C235   H247    1.084   .     S
C235   C240    1.397   .     A
C236   H248    1.084   .     S
C236   C239    1.397   .     A
C236   C10     1.370   1_565 S
C237   C239    1.398   .     A
C237   H249    1.084   .     S
C237   C7      1.370   1_565 S
C238   H250    1.084   .     S
C238   C240    1.398   .     A
C241   N254    1.366   .     A
C241   H251    1.082   .     S
C241   C927    1.417   1_554 S
C242   N253    1.366   .     A
C242   H252    1.082   .     S
C242   C586    1.417   .     S
C243   N253    1.367   .     A
C243   F265    1.355   .     S
C243   C583    1.417   .     S
C244   N254    1.367   .     A
C244   F266    1.355   .     S
C244   C926    1.417   1_554 S
H245   C271    1.088   .     S
H246   C310    1.088   1_455 S
N253   Zn263   2.010   .     S
N254   Zn264   2.010   .     S
O255   Zn263   2.002   .     S
O256   Zn264   2.002   .     S
O257   Zn264   2.002   .     S
O258   Zn263   2.002   .     S
O259   Zn263   1.970   .     S
O260   Zn264   1.970   .     S
O261   Zn264   1.982   .     S
O262   Zn263   1.982   .     S
C267   O295    1.284   .     A
C267   C278    1.421   .     S
C267   O293    1.284   .     A
C268   O296    1.284   .     A
C268   C277    1.421   .     S
C268   O294    1.284   .     A
C269   O297    1.277   .     A
C269   O299    1.281   .     A
C269   C271    1.403   .     S
C270   O300    1.281   .     A
C270   O298    1.277   .     A
C270   C272    1.403   .     S
C272   C309    1.331   .     S
C272   H322    1.088   .     S
C273   H285    1.084   .     S
C273   C278    1.397   .     A
C274   H286    1.084   .     S
C274   C277    1.397   .     A
C274   C48     1.370   1_565 S
C275   C277    1.398   .     A
C275   H287    1.084   .     S
C275   C45     1.370   1_565 S
C276   H288    1.084   .     S
C276   C278    1.398   .     A
C279   N292    1.366   .     A
C279   H289    1.082   .     S
C279   C965    1.417   1_554 S
C280   N291    1.366   .     A
C280   H290    1.082   .     S
C280   C624    1.417   .     S
C281   N291    1.367   .     A
C281   F303    1.355   .     S
C281   C621    1.417   .     S
C282   N292    1.367   .     A
C282   F304    1.355   .     S
C282   C964    1.417   1_554 S
H283   C309    1.088   .     S
N291   Zn301   2.010   .     S
N292   Zn302   2.010   .     S
O293   Zn301   2.002   .     S
O294   Zn302   2.002   .     S
O295   Zn302   2.002   .     S
O296   Zn301   2.002   .     S
O297   Zn301   1.970   .     S
O298   Zn302   1.970   .     S
O299   Zn302   1.982   .     S
O300   Zn301   1.982   .     S
C305   O333    1.284   .     A
C305   C316    1.421   .     S
C305   O331    1.284   .     A
C306   O334    1.284   .     A
C306   C315    1.421   .     S
C306   O332    1.284   .     A
C307   O335    1.277   .     A
C307   O337    1.281   .     A
C307   C309    1.403   .     S
C308   O338    1.281   .     A
C308   O336    1.277   .     A
C308   C310    1.403   .     S
C310   C233    1.331   1_655 S
C310   H246    1.088   1_655 S
C311   H323    1.084   .     S
C311   C316    1.397   .     A
C312   H324    1.084   .     S
C312   C315    1.397   .     A
C312   C86     1.370   1_565 S
C313   C315    1.398   .     A
C313   H325    1.084   .     S
C313   C83     1.370   1_565 S
C314   H326    1.084   .     S
C314   C316    1.398   .     A
C317   N330    1.366   .     A
C317   H327    1.082   .     S
C317   C1003   1.417   1_554 S
C318   N329    1.366   .     A
C318   H328    1.082   .     S
C318   C662    1.417   .     S
C319   N329    1.367   .     A
C319   F341    1.355   .     S
C319   C659    1.417   .     S
C320   N330    1.367   .     A
C320   F342    1.355   .     S
C320   C1002   1.417   1_554 S
H321   C233    1.088   1_655 S
N329   Zn339   2.010   .     S
N330   Zn340   2.010   .     S
O331   Zn339   2.002   .     S
O332   Zn340   2.002   .     S
O333   Zn340   2.002   .     S
O334   Zn339   2.002   .     S
O335   Zn339   1.970   .     S
O336   Zn340   1.970   .     S
O337   Zn340   1.982   .     S
O338   Zn339   1.982   .     S
C343   O371    1.284   .     A
C343   C354    1.421   .     S
C343   O369    1.284   .     A
C344   O372    1.284   .     A
C344   C353    1.421   .     S
C344   O370    1.284   .     A
C345   O373    1.277   .     A
C345   O375    1.281   .     A
C345   C347    1.403   .     S
C346   O376    1.281   .     A
C346   O374    1.277   .     A
C346   C348    1.403   .     S
C347   C424    1.331   1_455 S
C347   H435    1.088   1_455 S
C348   C385    1.331   .     S
C348   H398    1.088   .     S
C349   H361    1.084   .     S
C349   C354    1.397   .     A
C349   C579    1.370   1_545 S
C350   H362    1.084   .     S
C350   C353    1.397   .     A
C350   C466    1.370   .     S
C351   C353    1.398   .     A
C351   H363    1.084   .     S
C351   C463    1.370   .     S
C352   H364    1.084   .     S
C352   C354    1.398   .     A
C352   C578    1.370   1_545 S
C355   N368    1.366   .     A
C355   H365    1.082   .     S
C356   N367    1.366   .     A
C356   H366    1.082   .     S
C356   C700    1.417   .     S
C357   N367    1.367   .     A
C357   F379    1.355   .     S
C357   C697    1.417   .     S
C358   N368    1.367   .     A
C358   F380    1.355   .     S
H359   C385    1.088   .     S
H360   C424    1.088   1_455 S
N367   Zn377   2.010   .     S
N368   Zn378   2.010   .     S
O369   Zn377   2.002   .     S
O370   Zn378   2.002   .     S
O371   Zn378   2.002   .     S
O372   Zn377   2.002   .     S
O373   Zn377   1.970   .     S
O374   Zn378   1.970   .     S
O375   Zn378   1.982   .     S
O376   Zn377   1.982   .     S
C381   O409    1.284   .     A
C381   C392    1.421   .     S
C381   O407    1.284   .     A
C382   O410    1.284   .     A
C382   C391    1.421   .     S
C382   O408    1.284   .     A
C383   O411    1.277   .     A
C383   O413    1.281   .     A
C383   C385    1.403   .     S
C384   O414    1.281   .     A
C384   O412    1.277   .     A
C384   C386    1.403   .     S
C386   C423    1.331   .     S
C386   H436    1.088   .     S
C387   H399    1.084   .     S
C387   C392    1.397   .     A
C387   C617    1.370   1_545 S
C388   H400    1.084   .     S
C388   C391    1.397   .     A
C388   C504    1.370   .     S
C389   C391    1.398   .     A
C389   H401    1.084   .     S
C389   C501    1.370   .     S
C390   H402    1.084   .     S
C390   C392    1.398   .     A
C390   C616    1.370   1_545 S
C393   N406    1.366   .     A
C393   H403    1.082   .     S
C394   N405    1.366   .     A
C394   H404    1.082   .     S
C394   C738    1.417   .     S
C395   N405    1.367   .     A
C395   F417    1.355   .     S
C395   C735    1.417   .     S
C396   N406    1.367   .     A
C396   F418    1.355   .     S
H397   C423    1.088   .     S
N405   Zn415   2.010   .     S
N406   Zn416   2.010   .     S
O407   Zn415   2.002   .     S
O408   Zn416   2.002   .     S
O409   Zn416   2.002   .     S
O410   Zn415   2.002   .     S
O411   Zn415   1.970   .     S
O412   Zn416   1.970   .     S
O413   Zn416   1.982   .     S
O414   Zn415   1.982   .     S
C419   O447    1.284   .     A
C419   C430    1.421   .     S
C419   O445    1.284   .     A
C420   O448    1.284   .     A
C420   C429    1.421   .     S
C420   O446    1.284   .     A
C421   O449    1.277   .     A
C421   O451    1.281   .     A
C421   C423    1.403   .     S
C422   O452    1.281   .     A
C422   O450    1.277   .     A
C422   C424    1.403   .     S
C424   C347    1.331   1_655 S
C424   H360    1.088   1_655 S
C425   H437    1.084   .     S
C425   C430    1.397   .     A
C425   C655    1.370   1_545 S
C426   H438    1.084   .     S
C426   C429    1.397   .     A
C426   C542    1.370   .     S
C427   C429    1.398   .     A
C427   H439    1.084   .     S
C427   C539    1.370   .     S
C428   H440    1.084   .     S
C428   C430    1.398   .     A
C428   C654    1.370   1_545 S
C431   N444    1.366   .     A
C431   H441    1.082   .     S
C432   N443    1.366   .     A
C432   H442    1.082   .     S
C432   C776    1.417   .     S
C433   N443    1.367   .     A
C433   F455    1.355   .     S
C433   C773    1.417   .     S
C434   N444    1.367   .     A
C434   F456    1.355   .     S
H435   C347    1.088   1_655 S
N443   Zn453   2.010   .     S
N444   Zn454   2.010   .     S
O445   Zn453   2.002   .     S
O446   Zn454   2.002   .     S
O447   Zn454   2.002   .     S
O448   Zn453   2.002   .     S
O449   Zn453   1.970   .     S
O450   Zn454   1.970   .     S
O451   Zn454   1.982   .     S
O452   Zn453   1.982   .     S
C457   O485    1.284   .     A
C457   C468    1.421   .     S
C457   O483    1.284   .     A
C458   O486    1.284   .     A
C458   C467    1.421   .     S
C458   O484    1.284   .     A
C459   O487    1.277   .     A
C459   O489    1.281   .     A
C459   C461    1.403   .     S
C460   O490    1.281   .     A
C460   O488    1.277   .     A
C460   C462    1.403   .     S
C461   C538    1.331   1_455 S
C461   H549    1.088   1_455 S
C462   C499    1.331   .     S
C462   H512    1.088   .     S
C463   H475    1.084   .     S
C463   C468    1.397   .     A
C464   H476    1.084   .     S
C464   C467    1.397   .     A
C464   C580    1.370   .     S
C465   C467    1.398   .     A
C465   H477    1.084   .     S
C465   C577    1.370   .     S
C466   H478    1.084   .     S
C466   C468    1.398   .     A
C469   N482    1.366   .     A
C469   H479    1.082   .     S
C470   N481    1.366   .     A
C470   H480    1.082   .     S
C470   C814    1.417   .     S
C471   N481    1.367   .     A
C471   F493    1.355   .     S
C471   C811    1.417   .     S
C472   N482    1.367   .     A
C472   F494    1.355   .     S
H473   C499    1.088   .     S
H474   C538    1.088   1_455 S
N481   Zn491   2.010   .     S
N482   Zn492   2.010   .     S
O483   Zn491   2.002   .     S
O484   Zn492   2.002   .     S
O485   Zn492   2.002   .     S
O486   Zn491   2.002   .     S
O487   Zn491   1.970   .     S
O488   Zn492   1.970   .     S
O489   Zn492   1.982   .     S
O490   Zn491   1.982   .     S
C495   O523    1.284   .     A
C495   C506    1.421   .     S
C495   O521    1.284   .     A
C496   O524    1.284   .     A
C496   C505    1.421   .     S
C496   O522    1.284   .     A
C497   O525    1.277   .     A
C497   O527    1.281   .     A
C497   C499    1.403   .     S
C498   O528    1.281   .     A
C498   O526    1.277   .     A
C498   C500    1.403   .     S
C500   C537    1.331   .     S
C500   H550    1.088   .     S
C501   H513    1.084   .     S
C501   C506    1.397   .     A
C502   H514    1.084   .     S
C502   C505    1.397   .     A
C502   C618    1.370   .     S
C503   C505    1.398   .     A
C503   H515    1.084   .     S
C503   C615    1.370   .     S
C504   H516    1.084   .     S
C504   C506    1.398   .     A
C507   N520    1.366   .     A
C507   H517    1.082   .     S
C508   N519    1.366   .     A
C508   H518    1.082   .     S
C508   C852    1.417   .     S
C509   N519    1.367   .     A
C509   F531    1.355   .     S
C509   C849    1.417   .     S
C510   N520    1.367   .     A
C510   F532    1.355   .     S
H511   C537    1.088   .     S
N519   Zn529   2.010   .     S
N520   Zn530   2.010   .     S
O521   Zn529   2.002   .     S
O522   Zn530   2.002   .     S
O523   Zn530   2.002   .     S
O524   Zn529   2.002   .     S
O525   Zn529   1.970   .     S
O526   Zn530   1.970   .     S
O527   Zn530   1.982   .     S
O528   Zn529   1.982   .     S
C533   O561    1.284   .     A
C533   C544    1.421   .     S
C533   O559    1.284   .     A
C534   O562    1.284   .     A
C534   C543    1.421   .     S
C534   O560    1.284   .     A
C535   O563    1.277   .     A
C535   O565    1.281   .     A
C535   C537    1.403   .     S
C536   O566    1.281   .     A
C536   O564    1.277   .     A
C536   C538    1.403   .     S
C538   C461    1.331   1_655 S
C538   H474    1.088   1_655 S
C539   H551    1.084   .     S
C539   C544    1.397   .     A
C540   H552    1.084   .     S
C540   C543    1.397   .     A
C540   C656    1.370   .     S
C541   C543    1.398   .     A
C541   H553    1.084   .     S
C541   C653    1.370   .     S
C542   H554    1.084   .     S
C542   C544    1.398   .     A
C545   N558    1.366   .     A
C545   H555    1.082   .     S
C546   N557    1.366   .     A
C546   H556    1.082   .     S
C546   C890    1.417   .     S
C547   N557    1.367   .     A
C547   F569    1.355   .     S
C547   C887    1.417   .     S
C548   N558    1.367   .     A
C548   F570    1.355   .     S
H549   C461    1.088   1_655 S
N557   Zn567   2.010   .     S
N558   Zn568   2.010   .     S
O559   Zn567   2.002   .     S
O560   Zn568   2.002   .     S
O561   Zn568   2.002   .     S
O562   Zn567   2.002   .     S
O563   Zn567   1.970   .     S
O564   Zn568   1.970   .     S
O565   Zn568   1.982   .     S
O566   Zn567   1.982   .     S
C571   O599    1.284   .     A
C571   C582    1.421   .     S
C571   O597    1.284   .     A
C572   O600    1.284   .     A
C572   C581    1.421   .     S
C572   O598    1.284   .     A
C573   O601    1.277   .     A
C573   O603    1.281   .     A
C573   C575    1.403   .     S
C574   O604    1.281   .     A
C574   O602    1.277   .     A
C574   C576    1.403   .     S
C575   C652    1.331   1_455 S
C575   H663    1.088   1_455 S
C576   C613    1.331   .     S
C576   H626    1.088   .     S
C577   H589    1.084   .     S
C577   C582    1.397   .     A
C578   H590    1.084   .     S
C578   C581    1.397   .     A
C578   C352    1.370   1_565 S
C579   C581    1.398   .     A
C579   H591    1.084   .     S
C579   C349    1.370   1_565 S
C580   H592    1.084   .     S
C580   C582    1.398   .     A
C583   N596    1.366   .     A
C583   H593    1.082   .     S
C584   N595    1.366   .     A
C584   H594    1.082   .     S
C584   C928    1.417   .     S
C585   N595    1.367   .     A
C585   F607    1.355   .     S
C585   C925    1.417   .     S
C586   N596    1.367   .     A
C586   F608    1.355   .     S
H587   C613    1.088   .     S
H588   C652    1.088   1_455 S
N595   Zn605   2.010   .     S
N596   Zn606   2.010   .     S
O597   Zn605   2.002   .     S
O598   Zn606   2.002   .     S
O599   Zn606   2.002   .     S
O600   Zn605   2.002   .     S
O601   Zn605   1.970   .     S
O602   Zn606   1.970   .     S
O603   Zn606   1.982   .     S
O604   Zn605   1.982   .     S
C609   O637    1.284   .     A
C609   C620    1.421   .     S
C609   O635    1.284   .     A
C610   O638    1.284   .     A
C610   C619    1.421   .     S
C610   O636    1.284   .     A
C611   O639    1.277   .     A
C611   O641    1.281   .     A
C611   C613    1.403   .     S
C612   O642    1.281   .     A
C612   O640    1.277   .     A
C612   C614    1.403   .     S
C614   C651    1.331   .     S
C614   H664    1.088   .     S
C615   H627    1.084   .     S
C615   C620    1.397   .     A
C616   H628    1.084   .     S
C616   C619    1.397   .     A
C616   C390    1.370   1_565 S
C617   C619    1.398   .     A
C617   H629    1.084   .     S
C617   C387    1.370   1_565 S
C618   H630    1.084   .     S
C618   C620    1.398   .     A
C621   N634    1.366   .     A
C621   H631    1.082   .     S
C622   N633    1.366   .     A
C622   H632    1.082   .     S
C622   C966    1.417   .     S
C623   N633    1.367   .     A
C623   F645    1.355   .     S
C623   C963    1.417   .     S
C624   N634    1.367   .     A
C624   F646    1.355   .     S
H625   C651    1.088   .     S
N633   Zn643   2.010   .     S
N634   Zn644   2.010   .     S
O635   Zn643   2.002   .     S
O636   Zn644   2.002   .     S
O637   Zn644   2.002   .     S
O638   Zn643   2.002   .     S
O639   Zn643   1.970   .     S
O640   Zn644   1.970   .     S
O641   Zn644   1.982   .     S
O642   Zn643   1.982   .     S
C647   O675    1.284   .     A
C647   C658    1.421   .     S
C647   O673    1.284   .     A
C648   O676    1.284   .     A
C648   C657    1.421   .     S
C648   O674    1.284   .     A
C649   O677    1.277   .     A
C649   O679    1.281   .     A
C649   C651    1.403   .     S
C650   O680    1.281   .     A
C650   O678    1.277   .     A
C650   C652    1.403   .     S
C652   C575    1.331   1_655 S
C652   H588    1.088   1_655 S
C653   H665    1.084   .     S
C653   C658    1.397   .     A
C654   H666    1.084   .     S
C654   C657    1.397   .     A
C654   C428    1.370   1_565 S
C655   C657    1.398   .     A
C655   H667    1.084   .     S
C655   C425    1.370   1_565 S
C656   H668    1.084   .     S
C656   C658    1.398   .     A
C659   N672    1.366   .     A
C659   H669    1.082   .     S
C660   N671    1.366   .     A
C660   H670    1.082   .     S
C660   C1004   1.417   .     S
C661   N671    1.367   .     A
C661   F683    1.355   .     S
C661   C1001   1.417   .     S
C662   N672    1.367   .     A
C662   F684    1.355   .     S
H663   C575    1.088   1_655 S
N671   Zn681   2.010   .     S
N672   Zn682   2.010   .     S
O673   Zn681   2.002   .     S
O674   Zn682   2.002   .     S
O675   Zn682   2.002   .     S
O676   Zn681   2.002   .     S
O677   Zn681   1.970   .     S
O678   Zn682   1.970   .     S
O679   Zn682   1.982   .     S
O680   Zn681   1.982   .     S
C685   O713    1.284   .     A
C685   C696    1.421   .     S
C685   O711    1.284   .     A
C686   O714    1.284   .     A
C686   C695    1.421   .     S
C686   O712    1.284   .     A
C687   O715    1.277   .     A
C687   O717    1.281   .     A
C687   C689    1.403   .     S
C688   O718    1.281   .     A
C688   O716    1.277   .     A
C688   C690    1.403   .     S
C689   C766    1.331   1_455 S
C689   H777    1.088   1_455 S
C690   C727    1.331   .     S
C690   H740    1.088   .     S
C691   H703    1.084   .     S
C691   C696    1.397   .     A
C691   C921    1.370   1_545 S
C692   H704    1.084   .     S
C692   C695    1.397   .     A
C692   C808    1.370   .     S
C693   C695    1.398   .     A
C693   H705    1.084   .     S
C693   C805    1.370   .     S
C694   H706    1.084   .     S
C694   C696    1.398   .     A
C694   C920    1.370   1_545 S
C697   N710    1.366   .     A
C697   H707    1.082   .     S
C698   N709    1.366   .     A
C698   H708    1.082   .     S
C698   C16     1.417   1_556 S
C699   N709    1.367   .     A
C699   F721    1.355   .     S
C699   C13     1.417   1_556 S
C700   N710    1.367   .     A
C700   F722    1.355   .     S
H701   C727    1.088   .     S
H702   C766    1.088   1_455 S
N709   Zn719   2.010   .     S
N710   Zn720   2.010   .     S
O711   Zn719   2.002   .     S
O712   Zn720   2.002   .     S
O713   Zn720   2.002   .     S
O714   Zn719   2.002   .     S
O715   Zn719   1.970   .     S
O716   Zn720   1.970   .     S
O717   Zn720   1.982   .     S
O718   Zn719   1.982   .     S
C723   O751    1.284   .     A
C723   C734    1.421   .     S
C723   O749    1.284   .     A
C724   O752    1.284   .     A
C724   C733    1.421   .     S
C724   O750    1.284   .     A
C725   O753    1.277   .     A
C725   O755    1.281   .     A
C725   C727    1.403   .     S
C726   O756    1.281   .     A
C726   O754    1.277   .     A
C726   C728    1.403   .     S
C728   C765    1.331   .     S
C728   H778    1.088   .     S
C729   H741    1.084   .     S
C729   C734    1.397   .     A
C729   C959    1.370   1_545 S
C730   H742    1.084   .     S
C730   C733    1.397   .     A
C730   C846    1.370   .     S
C731   C733    1.398   .     A
C731   H743    1.084   .     S
C731   C843    1.370   .     S
C732   H744    1.084   .     S
C732   C734    1.398   .     A
C732   C958    1.370   1_545 S
C735   N748    1.366   .     A
C735   H745    1.082   .     S
C736   N747    1.366   .     A
C736   H746    1.082   .     S
C736   C54     1.417   1_556 S
C737   N747    1.367   .     A
C737   F759    1.355   .     S
C737   C51     1.417   1_556 S
C738   N748    1.367   .     A
C738   F760    1.355   .     S
H739   C765    1.088   .     S
N747   Zn757   2.010   .     S
N748   Zn758   2.010   .     S
O749   Zn757   2.002   .     S
O750   Zn758   2.002   .     S
O751   Zn758   2.002   .     S
O752   Zn757   2.002   .     S
O753   Zn757   1.970   .     S
O754   Zn758   1.970   .     S
O755   Zn758   1.982   .     S
O756   Zn757   1.982   .     S
C761   O789    1.284   .     A
C761   C772    1.421   .     S
C761   O787    1.284   .     A
C762   O790    1.284   .     A
C762   C771    1.421   .     S
C762   O788    1.284   .     A
C763   O791    1.277   .     A
C763   O793    1.281   .     A
C763   C765    1.403   .     S
C764   O794    1.281   .     A
C764   O792    1.277   .     A
C764   C766    1.403   .     S
C766   C689    1.331   1_655 S
C766   H702    1.088   1_655 S
C767   H779    1.084   .     S
C767   C772    1.397   .     A
C767   C997    1.370   1_545 S
C768   H780    1.084   .     S
C768   C771    1.397   .     A
C768   C884    1.370   .     S
C769   C771    1.398   .     A
C769   H781    1.084   .     S
C769   C881    1.370   .     S
C770   H782    1.084   .     S
C770   C772    1.398   .     A
C770   C996    1.370   1_545 S
C773   N786    1.366   .     A
C773   H783    1.082   .     S
C774   N785    1.366   .     A
C774   H784    1.082   .     S
C774   C92     1.417   1_556 S
C775   N785    1.367   .     A
C775   F797    1.355   .     S
C775   C89     1.417   1_556 S
C776   N786    1.367   .     A
C776   F798    1.355   .     S
H777   C689    1.088   1_655 S
N785   Zn795   2.010   .     S
N786   Zn796   2.010   .     S
O787   Zn795   2.002   .     S
O788   Zn796   2.002   .     S
O789   Zn796   2.002   .     S
O790   Zn795   2.002   .     S
O791   Zn795   1.970   .     S
O792   Zn796   1.970   .     S
O793   Zn796   1.982   .     S
O794   Zn795   1.982   .     S
C799   O827    1.284   .     A
C799   C810    1.421   .     S
C799   O825    1.284   .     A
C800   O828    1.284   .     A
C800   C809    1.421   .     S
C800   O826    1.284   .     A
C801   O829    1.277   .     A
C801   O831    1.281   .     A
C801   C803    1.403   .     S
C802   O832    1.281   .     A
C802   O830    1.277   .     A
C802   C804    1.403   .     S
C803   C880    1.331   1_455 S
C803   H891    1.088   1_455 S
C804   C841    1.331   .     S
C804   H854    1.088   .     S
C805   H817    1.084   .     S
C805   C810    1.397   .     A
C806   H818    1.084   .     S
C806   C809    1.397   .     A
C806   C922    1.370   .     S
C807   C809    1.398   .     A
C807   H819    1.084   .     S
C807   C919    1.370   .     S
C808   H820    1.084   .     S
C808   C810    1.398   .     A
C811   N824    1.366   .     A
C811   H821    1.082   .     S
C812   N823    1.366   .     A
C812   H822    1.082   .     S
C812   C130    1.417   1_556 S
C813   N823    1.367   .     A
C813   F835    1.355   .     S
C813   C127    1.417   1_556 S
C814   N824    1.367   .     A
C814   F836    1.355   .     S
H815   C841    1.088   .     S
H816   C880    1.088   1_455 S
N823   Zn833   2.010   .     S
N824   Zn834   2.010   .     S
O825   Zn833   2.002   .     S
O826   Zn834   2.002   .     S
O827   Zn834   2.002   .     S
O828   Zn833   2.002   .     S
O829   Zn833   1.970   .     S
O830   Zn834   1.970   .     S
O831   Zn834   1.982   .     S
O832   Zn833   1.982   .     S
C837   O865    1.284   .     A
C837   C848    1.421   .     S
C837   O863    1.284   .     A
C838   O866    1.284   .     A
C838   C847    1.421   .     S
C838   O864    1.284   .     A
C839   O867    1.277   .     A
C839   O869    1.281   .     A
C839   C841    1.403   .     S
C840   O870    1.281   .     A
C840   O868    1.277   .     A
C840   C842    1.403   .     S
C842   C879    1.331   .     S
C842   H892    1.088   .     S
C843   H855    1.084   .     S
C843   C848    1.397   .     A
C844   H856    1.084   .     S
C844   C847    1.397   .     A
C844   C960    1.370   .     S
C845   C847    1.398   .     A
C845   H857    1.084   .     S
C845   C957    1.370   .     S
C846   H858    1.084   .     S
C846   C848    1.398   .     A
C849   N862    1.366   .     A
C849   H859    1.082   .     S
C850   N861    1.366   .     A
C850   H860    1.082   .     S
C850   C168    1.417   1_556 S
C851   N861    1.367   .     A
C851   F873    1.355   .     S
C851   C165    1.417   1_556 S
C852   N862    1.367   .     A
C852   F874    1.355   .     S
H853   C879    1.088   .     S
N861   Zn871   2.010   .     S
N862   Zn872   2.010   .     S
O863   Zn871   2.002   .     S
O864   Zn872   2.002   .     S
O865   Zn872   2.002   .     S
O866   Zn871   2.002   .     S
O867   Zn871   1.970   .     S
O868   Zn872   1.970   .     S
O869   Zn872   1.982   .     S
O870   Zn871   1.982   .     S
C875   O903    1.284   .     A
C875   C886    1.421   .     S
C875   O901    1.284   .     A
C876   O904    1.284   .     A
C876   C885    1.421   .     S
C876   O902    1.284   .     A
C877   O905    1.277   .     A
C877   O907    1.281   .     A
C877   C879    1.403   .     S
C878   O908    1.281   .     A
C878   O906    1.277   .     A
C878   C880    1.403   .     S
C880   C803    1.331   1_655 S
C880   H816    1.088   1_655 S
C881   H893    1.084   .     S
C881   C886    1.397   .     A
C882   H894    1.084   .     S
C882   C885    1.397   .     A
C882   C998    1.370   .     S
C883   C885    1.398   .     A
C883   H895    1.084   .     S
C883   C995    1.370   .     S
C884   H896    1.084   .     S
C884   C886    1.398   .     A
C887   N900    1.366   .     A
C887   H897    1.082   .     S
C888   N899    1.366   .     A
C888   H898    1.082   .     S
C888   C206    1.417   1_556 S
C889   N899    1.367   .     A
C889   F911    1.355   .     S
C889   C203    1.417   1_556 S
C890   N900    1.367   .     A
C890   F912    1.355   .     S
H891   C803    1.088   1_655 S
N899   Zn909   2.010   .     S
N900   Zn910   2.010   .     S
O901   Zn909   2.002   .     S
O902   Zn910   2.002   .     S
O903   Zn910   2.002   .     S
O904   Zn909   2.002   .     S
O905   Zn909   1.970   .     S
O906   Zn910   1.970   .     S
O907   Zn910   1.982   .     S
O908   Zn909   1.982   .     S
C913   O941    1.284   .     A
C913   C924    1.421   .     S
C913   O939    1.284   .     A
C914   O942    1.284   .     A
C914   C923    1.421   .     S
C914   O940    1.284   .     A
C915   O943    1.277   .     A
C915   O945    1.281   .     A
C915   C917    1.403   .     S
C916   O946    1.281   .     A
C916   O944    1.277   .     A
C916   C918    1.403   .     S
C917   C994    1.331   1_455 S
C917   H1005   1.088   1_455 S
C918   C955    1.331   .     S
C918   H968    1.088   .     S
C919   H931    1.084   .     S
C919   C924    1.397   .     A
C920   H932    1.084   .     S
C920   C923    1.397   .     A
C920   C694    1.370   1_565 S
C921   C923    1.398   .     A
C921   H933    1.084   .     S
C921   C691    1.370   1_565 S
C922   H934    1.084   .     S
C922   C924    1.398   .     A
C925   N938    1.366   .     A
C925   H935    1.082   .     S
C926   N937    1.366   .     A
C926   H936    1.082   .     S
C926   C244    1.417   1_556 S
C927   N937    1.367   .     A
C927   F949    1.355   .     S
C927   C241    1.417   1_556 S
C928   N938    1.367   .     A
C928   F950    1.355   .     S
H929   C955    1.088   .     S
H930   C994    1.088   1_455 S
N937   Zn947   2.010   .     S
N938   Zn948   2.010   .     S
O939   Zn947   2.002   .     S
O940   Zn948   2.002   .     S
O941   Zn948   2.002   .     S
O942   Zn947   2.002   .     S
O943   Zn947   1.970   .     S
O944   Zn948   1.970   .     S
O945   Zn948   1.982   .     S
O946   Zn947   1.982   .     S
C951   O979    1.284   .     A
C951   C962    1.421   .     S
C951   O977    1.284   .     A
C952   O980    1.284   .     A
C952   C961    1.421   .     S
C952   O978    1.284   .     A
C953   O981    1.277   .     A
C953   O983    1.281   .     A
C953   C955    1.403   .     S
C954   O984    1.281   .     A
C954   O982    1.277   .     A
C954   C956    1.403   .     S
C956   C993    1.331   .     S
C956   H1006   1.088   .     S
C957   H969    1.084   .     S
C957   C962    1.397   .     A
C958   H970    1.084   .     S
C958   C961    1.397   .     A
C958   C732    1.370   1_565 S
C959   C961    1.398   .     A
C959   H971    1.084   .     S
C959   C729    1.370   1_565 S
C960   H972    1.084   .     S
C960   C962    1.398   .     A
C963   N976    1.366   .     A
C963   H973    1.082   .     S
C964   N975    1.366   .     A
C964   H974    1.082   .     S
C964   C282    1.417   1_556 S
C965   N975    1.367   .     A
C965   F987    1.355   .     S
C965   C279    1.417   1_556 S
C966   N976    1.367   .     A
C966   F988    1.355   .     S
H967   C993    1.088   .     S
N975   Zn985   2.010   .     S
N976   Zn986   2.010   .     S
O977   Zn985   2.002   .     S
O978   Zn986   2.002   .     S
O979   Zn986   2.002   .     S
O980   Zn985   2.002   .     S
O981   Zn985   1.970   .     S
O982   Zn986   1.970   .     S
O983   Zn986   1.982   .     S
O984   Zn985   1.982   .     S
C989   O1017   1.284   .     A
C989   C1000   1.421   .     S
C989   O1015   1.284   .     A
C990   O1018   1.284   .     A
C990   C999    1.421   .     S
C990   O1016   1.284   .     A
C991   O1019   1.277   .     A
C991   O1021   1.281   .     A
C991   C993    1.403   .     S
C992   O1022   1.281   .     A
C992   O1020   1.277   .     A
C992   C994    1.403   .     S
C994   C917    1.331   1_655 S
C994   H930    1.088   1_655 S
C995   H1007   1.084   .     S
C995   C1000   1.397   .     A
C996   H1008   1.084   .     S
C996   C999    1.397   .     A
C996   C770    1.370   1_565 S
C997   C999    1.398   .     A
C997   H1009   1.084   .     S
C997   C767    1.370   1_565 S
C998   H1010   1.084   .     S
C998   C1000   1.398   .     A
C1001  N1014   1.366   .     A
C1001  H1011   1.082   .     S
C1002  N1013   1.366   .     A
C1002  H1012   1.082   .     S
C1002  C320    1.417   1_556 S
C1003  N1013   1.367   .     A
C1003  F1025   1.355   .     S
C1003  C317    1.417   1_556 S
C1004  N1014   1.367   .     A
C1004  F1026   1.355   .     S
H1005  C917    1.088   1_655 S
N1013  Zn1023  2.010   .     S
N1014  Zn1024  2.010   .     S
O1015  Zn1023  2.002   .     S
O1016  Zn1024  2.002   .     S
O1017  Zn1024  2.002   .     S
O1018  Zn1023  2.002   .     S
O1019  Zn1023  1.970   .     S
O1020  Zn1024  1.970   .     S
O1021  Zn1024  1.982   .     S
O1022  Zn1023  1.982   .     S
