data_str_m3_o10_o16_pcu_sym.41
_audit_creation_date              2020-01-03
_audit_creation_method            'Materials Studio'
_symmetry_space_group_name_H-M    'P1'
_symmetry_Int_Tables_number       1
_symmetry_cell_setting            triclinic
loop_
_symmetry_equiv_pos_as_xyz
  x,y,z
_cell_length_a                    23.4457
_cell_length_b                    25.6996
_cell_length_c                    24.9779
_cell_angle_alpha                 92.6069
_cell_angle_beta                  103.1942
_cell_angle_gamma                 93.7223
loop_
_atom_site_label
_atom_site_type_symbol
_atom_site_fract_x
_atom_site_fract_y
_atom_site_fract_z
_atom_site_U_iso_or_equiv
_atom_site_adp_type
_atom_site_occupancy
C1     C     0.01491   0.26488   0.24916   0.00000  Uiso   1.00
C2     C     0.06434   0.20337   0.40956   0.00000  Uiso   1.00
C3     C     0.02314   0.31946   0.25003   0.00000  Uiso   1.00
C4     C     0.03853   0.17981   0.35314   0.00000  Uiso   1.00
C5     C     0.31102   0.01404   0.25271   0.00000  Uiso   1.00
C6     C     0.31869   0.06851   0.25166   0.00000  Uiso   1.00
C7     C     0.29615   0.16146   0.14558   0.00000  Uiso   1.00
C8     C     0.28207   0.13794   0.49354   0.00000  Uiso   1.00
C9     C     0.27467   0.15921   0.08648   0.00000  Uiso   1.00
C10    C     0.02885   0.22418   0.44197   0.00000  Uiso   1.00
C11    C     0.05189   0.23760   0.49784   0.00000  Uiso   1.00
C12    C     0.14643   0.20771   0.48987   0.00000  Uiso   1.00
C13    C     0.10947   0.22733   0.02244   0.00000  Uiso   1.00
C14    C     0.01446   0.09510   0.06804   0.00000  Uiso   1.00
C15    C     0.06621   0.09753   0.04849   0.00000  Uiso   1.00
C16    C     0.10868   0.06204   0.06457   0.00000  Uiso   1.00
C17    C     0.09918   0.02277   0.09908   0.00000  Uiso   1.00
C18    C     0.04708   0.01881   0.11728   0.00000  Uiso   1.00
C19    C     0.00497   0.05489   0.10216   0.00000  Uiso   1.00
C20    C     0.12541   0.20419   0.43244   0.00000  Uiso   1.00
C21    C     0.20187   0.18804   0.01110   0.00000  Uiso   1.00
C22    C     0.23359   0.16649   0.47443   0.00000  Uiso   1.00
C23    C     0.21672   0.17471   0.41891   0.00000  Uiso   1.00
C24    C     0.16626   0.19914   0.39982   0.00000  Uiso   1.00
C25    C     0.22512   0.18625   0.06698   0.00000  Uiso   1.00
C26    C     0.30185   0.13201   0.04975   0.00000  Uiso   1.00
H27    H     0.26799   0.33039   0.25502   0.00000  Uiso   1.00
H28    H     0.15825   0.21246   0.35913   0.00000  Uiso   1.00
H29    H     0.06623   0.00315   0.24793   0.00000  Uiso   1.00
H30    H     0.07351   0.12653   0.02042   0.00000  Uiso   1.00
H31    H     0.14866   0.06466   0.04976   0.00000  Uiso   1.00
H32    H     0.13184   0.32834   0.11114   0.00000  Uiso   1.00
H33    H     0.03910   0.32076   0.14264   0.00000  Uiso   1.00
H34    H     0.29795   0.05094   0.11628   0.00000  Uiso   1.00
H35    H     0.15697   0.12109   0.21422   0.00000  Uiso   1.00
H36    H     0.17646   0.21501   0.28071   0.00000  Uiso   1.00
H37    H     0.24243   0.16266   0.39048   0.00000  Uiso   1.00
H38    H     0.30334   0.11911   0.46441   0.00000  Uiso   1.00
H39    H     0.20520   0.20596   0.09620   0.00000  Uiso   1.00
H40    H     0.31692   0.23029   0.42414   0.00000  Uiso   1.00
H41    H     0.12317   0.23428   0.06653   0.00000  Uiso   1.00
H42    H     0.02401   0.25317   0.02278   0.00000  Uiso   1.00
N43    N     0.14493   0.15223   0.23543   0.00000  Uiso   1.00
N44    N     0.18840   0.18110   0.26458   0.00000  Uiso   1.00
O45    O     0.29769   0.24629   0.25358   0.00000  Uiso   1.00
O46    O     0.05742   0.23704   0.24424   0.00000  Uiso   1.00
O47    O     0.31490   0.17358   0.33380   0.00000  Uiso   1.00
O48    O     0.07463   0.16433   0.32446   0.00000  Uiso   1.00
O49    O     0.27592   0.09629   0.25577   0.00000  Uiso   1.00
O50    O     0.03565   0.08704   0.24643   0.00000  Uiso   1.00
O51    O     0.25870   0.16901   0.17554   0.00000  Uiso   1.00
O52    O     0.01843   0.15976   0.16620   0.00000  Uiso   1.00
Zn53   Zn    0.27119   0.17284   0.25624   0.00000  Uiso   1.00
Zn54   Zn    0.06214   0.16049   0.24377   0.00000  Uiso   1.00
C55    C     0.34825   0.26488   0.24916   0.00000  Uiso   1.00
C56    C     0.39768   0.20337   0.40956   0.00000  Uiso   1.00
C57    C     0.35648   0.31946   0.25003   0.00000  Uiso   1.00
C58    C     0.37187   0.17981   0.35314   0.00000  Uiso   1.00
C59    C     0.64436   0.01404   0.25271   0.00000  Uiso   1.00
C60    C     0.65203   0.06851   0.25166   0.00000  Uiso   1.00
C61    C     0.62949   0.16146   0.14558   0.00000  Uiso   1.00
C62    C     0.61541   0.13794   0.49354   0.00000  Uiso   1.00
C63    C     0.60801   0.15921   0.08648   0.00000  Uiso   1.00
C64    C     0.36218   0.22418   0.44197   0.00000  Uiso   1.00
C65    C     0.38523   0.23760   0.49784   0.00000  Uiso   1.00
C66    C     0.47976   0.20771   0.48987   0.00000  Uiso   1.00
C67    C     0.44280   0.22733   0.02244   0.00000  Uiso   1.00
C68    C     0.34779   0.09510   0.06804   0.00000  Uiso   1.00
C69    C     0.39954   0.09753   0.04849   0.00000  Uiso   1.00
C70    C     0.44202   0.06204   0.06457   0.00000  Uiso   1.00
C71    C     0.43251   0.02277   0.09908   0.00000  Uiso   1.00
C72    C     0.38041   0.01881   0.11728   0.00000  Uiso   1.00
C73    C     0.33831   0.05489   0.10216   0.00000  Uiso   1.00
C74    C     0.45874   0.20419   0.43244   0.00000  Uiso   1.00
C75    C     0.53520   0.18804   0.01110   0.00000  Uiso   1.00
C76    C     0.56692   0.16649   0.47443   0.00000  Uiso   1.00
C77    C     0.55005   0.17471   0.41891   0.00000  Uiso   1.00
C78    C     0.49960   0.19914   0.39982   0.00000  Uiso   1.00
C79    C     0.55845   0.18625   0.06698   0.00000  Uiso   1.00
C80    C     0.63518   0.13201   0.04975   0.00000  Uiso   1.00
H81    H     0.60133   0.33039   0.25502   0.00000  Uiso   1.00
H82    H     0.49159   0.21246   0.35913   0.00000  Uiso   1.00
H83    H     0.39956   0.00315   0.24793   0.00000  Uiso   1.00
H84    H     0.40684   0.12653   0.02042   0.00000  Uiso   1.00
H85    H     0.48200   0.06466   0.04976   0.00000  Uiso   1.00
H86    H     0.46517   0.32834   0.11114   0.00000  Uiso   1.00
H87    H     0.37243   0.32076   0.14264   0.00000  Uiso   1.00
H88    H     0.63128   0.05094   0.11628   0.00000  Uiso   1.00
H89    H     0.49031   0.12109   0.21422   0.00000  Uiso   1.00
H90    H     0.50979   0.21501   0.28071   0.00000  Uiso   1.00
H91    H     0.57577   0.16266   0.39048   0.00000  Uiso   1.00
H92    H     0.63667   0.11911   0.46441   0.00000  Uiso   1.00
H93    H     0.53853   0.20596   0.09620   0.00000  Uiso   1.00
H94    H     0.65025   0.23029   0.42414   0.00000  Uiso   1.00
H95    H     0.45650   0.23428   0.06653   0.00000  Uiso   1.00
H96    H     0.35735   0.25317   0.02278   0.00000  Uiso   1.00
N97    N     0.47827   0.15223   0.23543   0.00000  Uiso   1.00
N98    N     0.52173   0.18110   0.26458   0.00000  Uiso   1.00
O99    O     0.63102   0.24629   0.25358   0.00000  Uiso   1.00
O100   O     0.39075   0.23704   0.24424   0.00000  Uiso   1.00
O101   O     0.64823   0.17358   0.33380   0.00000  Uiso   1.00
O102   O     0.40796   0.16433   0.32446   0.00000  Uiso   1.00
O103   O     0.60925   0.09629   0.25577   0.00000  Uiso   1.00
O104   O     0.36898   0.08704   0.24643   0.00000  Uiso   1.00
O105   O     0.59204   0.16901   0.17554   0.00000  Uiso   1.00
O106   O     0.35177   0.15976   0.16620   0.00000  Uiso   1.00
Zn107  Zn    0.60453   0.17284   0.25624   0.00000  Uiso   1.00
Zn108  Zn    0.39547   0.16049   0.24377   0.00000  Uiso   1.00
C109   C     0.68158   0.26488   0.24916   0.00000  Uiso   1.00
C110   C     0.73101   0.20337   0.40956   0.00000  Uiso   1.00
C111   C     0.68981   0.31946   0.25003   0.00000  Uiso   1.00
C112   C     0.70520   0.17981   0.35314   0.00000  Uiso   1.00
C113   C     0.97769   0.01404   0.25271   0.00000  Uiso   1.00
C114   C     0.98536   0.06851   0.25166   0.00000  Uiso   1.00
C115   C     0.96282   0.16146   0.14558   0.00000  Uiso   1.00
C116   C     0.94874   0.13794   0.49354   0.00000  Uiso   1.00
C117   C     0.94134   0.15921   0.08648   0.00000  Uiso   1.00
C118   C     0.69552   0.22418   0.44197   0.00000  Uiso   1.00
C119   C     0.71856   0.23760   0.49784   0.00000  Uiso   1.00
C120   C     0.81310   0.20771   0.48987   0.00000  Uiso   1.00
C121   C     0.77614   0.22733   0.02244   0.00000  Uiso   1.00
C122   C     0.68113   0.09510   0.06804   0.00000  Uiso   1.00
C123   C     0.73288   0.09753   0.04849   0.00000  Uiso   1.00
C124   C     0.77535   0.06204   0.06457   0.00000  Uiso   1.00
C125   C     0.76584   0.02277   0.09908   0.00000  Uiso   1.00
C126   C     0.71374   0.01881   0.11728   0.00000  Uiso   1.00
C127   C     0.67164   0.05489   0.10216   0.00000  Uiso   1.00
C128   C     0.79207   0.20419   0.43244   0.00000  Uiso   1.00
C129   C     0.86853   0.18804   0.01110   0.00000  Uiso   1.00
C130   C     0.90026   0.16649   0.47443   0.00000  Uiso   1.00
C131   C     0.88339   0.17471   0.41891   0.00000  Uiso   1.00
C132   C     0.83293   0.19914   0.39982   0.00000  Uiso   1.00
C133   C     0.89178   0.18625   0.06698   0.00000  Uiso   1.00
C134   C     0.96852   0.13201   0.04975   0.00000  Uiso   1.00
H135   H     0.93466   0.33039   0.25502   0.00000  Uiso   1.00
H136   H     0.82492   0.21246   0.35913   0.00000  Uiso   1.00
H137   H     0.73290   0.00315   0.24793   0.00000  Uiso   1.00
H138   H     0.74017   0.12653   0.02042   0.00000  Uiso   1.00
H139   H     0.81533   0.06466   0.04976   0.00000  Uiso   1.00
H140   H     0.79850   0.32834   0.11114   0.00000  Uiso   1.00
H141   H     0.70577   0.32076   0.14264   0.00000  Uiso   1.00
H142   H     0.96461   0.05094   0.11628   0.00000  Uiso   1.00
H143   H     0.82364   0.12109   0.21422   0.00000  Uiso   1.00
H144   H     0.84312   0.21501   0.28071   0.00000  Uiso   1.00
H145   H     0.90910   0.16266   0.39048   0.00000  Uiso   1.00
H146   H     0.97001   0.11911   0.46441   0.00000  Uiso   1.00
H147   H     0.87187   0.20596   0.09620   0.00000  Uiso   1.00
H148   H     0.98358   0.23029   0.42414   0.00000  Uiso   1.00
H149   H     0.78984   0.23428   0.06653   0.00000  Uiso   1.00
H150   H     0.69068   0.25317   0.02278   0.00000  Uiso   1.00
N151   N     0.81160   0.15223   0.23543   0.00000  Uiso   1.00
N152   N     0.85507   0.18110   0.26458   0.00000  Uiso   1.00
O153   O     0.96435   0.24629   0.25358   0.00000  Uiso   1.00
O154   O     0.72408   0.23704   0.24424   0.00000  Uiso   1.00
O155   O     0.98157   0.17358   0.33380   0.00000  Uiso   1.00
O156   O     0.74130   0.16433   0.32446   0.00000  Uiso   1.00
O157   O     0.94258   0.09629   0.25577   0.00000  Uiso   1.00
O158   O     0.70231   0.08704   0.24643   0.00000  Uiso   1.00
O159   O     0.92537   0.16901   0.17554   0.00000  Uiso   1.00
O160   O     0.68510   0.15976   0.16620   0.00000  Uiso   1.00
Zn161  Zn    0.93786   0.17284   0.25624   0.00000  Uiso   1.00
Zn162  Zn    0.72881   0.16049   0.24377   0.00000  Uiso   1.00
C163   C     0.01491   0.59821   0.24916   0.00000  Uiso   1.00
C164   C     0.06434   0.53671   0.40956   0.00000  Uiso   1.00
C165   C     0.02314   0.65279   0.25003   0.00000  Uiso   1.00
C166   C     0.03853   0.51314   0.35314   0.00000  Uiso   1.00
C167   C     0.31102   0.34738   0.25271   0.00000  Uiso   1.00
C168   C     0.31869   0.40185   0.25166   0.00000  Uiso   1.00
C169   C     0.29615   0.49480   0.14558   0.00000  Uiso   1.00
C170   C     0.28207   0.47128   0.49354   0.00000  Uiso   1.00
C171   C     0.27467   0.49254   0.08648   0.00000  Uiso   1.00
C172   C     0.02885   0.55752   0.44197   0.00000  Uiso   1.00
C173   C     0.05189   0.57093   0.49784   0.00000  Uiso   1.00
C174   C     0.14643   0.54104   0.48987   0.00000  Uiso   1.00
C175   C     0.10947   0.56067   0.02244   0.00000  Uiso   1.00
C176   C     0.01446   0.42843   0.06804   0.00000  Uiso   1.00
C177   C     0.06621   0.43086   0.04849   0.00000  Uiso   1.00
C178   C     0.10868   0.39537   0.06457   0.00000  Uiso   1.00
C179   C     0.09918   0.35610   0.09908   0.00000  Uiso   1.00
C180   C     0.04708   0.35215   0.11728   0.00000  Uiso   1.00
C181   C     0.00497   0.38823   0.10216   0.00000  Uiso   1.00
C182   C     0.12541   0.53753   0.43244   0.00000  Uiso   1.00
C183   C     0.20187   0.52138   0.01110   0.00000  Uiso   1.00
C184   C     0.23359   0.49983   0.47443   0.00000  Uiso   1.00
C185   C     0.21672   0.50804   0.41891   0.00000  Uiso   1.00
C186   C     0.16626   0.53248   0.39982   0.00000  Uiso   1.00
C187   C     0.22512   0.51958   0.06698   0.00000  Uiso   1.00
C188   C     0.30185   0.46534   0.04975   0.00000  Uiso   1.00
H189   H     0.26799   0.66372   0.25502   0.00000  Uiso   1.00
H190   H     0.15825   0.54579   0.35913   0.00000  Uiso   1.00
H191   H     0.06623   0.33648   0.24793   0.00000  Uiso   1.00
H192   H     0.07351   0.45986   0.02042   0.00000  Uiso   1.00
H193   H     0.14866   0.39799   0.04976   0.00000  Uiso   1.00
H194   H     0.13184   0.66167   0.11114   0.00000  Uiso   1.00
H195   H     0.03910   0.65409   0.14264   0.00000  Uiso   1.00
H196   H     0.29795   0.38427   0.11628   0.00000  Uiso   1.00
H197   H     0.15697   0.45442   0.21422   0.00000  Uiso   1.00
H198   H     0.17646   0.54834   0.28071   0.00000  Uiso   1.00
H199   H     0.24243   0.49599   0.39048   0.00000  Uiso   1.00
H200   H     0.30334   0.45244   0.46441   0.00000  Uiso   1.00
H201   H     0.20520   0.53929   0.09620   0.00000  Uiso   1.00
H202   H     0.31692   0.56363   0.42414   0.00000  Uiso   1.00
H203   H     0.12317   0.56761   0.06653   0.00000  Uiso   1.00
H204   H     0.02401   0.58650   0.02278   0.00000  Uiso   1.00
N205   N     0.14493   0.48556   0.23543   0.00000  Uiso   1.00
N206   N     0.18840   0.51444   0.26458   0.00000  Uiso   1.00
O207   O     0.29769   0.57963   0.25358   0.00000  Uiso   1.00
O208   O     0.05742   0.57038   0.24424   0.00000  Uiso   1.00
O209   O     0.31490   0.50691   0.33380   0.00000  Uiso   1.00
O210   O     0.07463   0.49766   0.32446   0.00000  Uiso   1.00
O211   O     0.27592   0.42962   0.25577   0.00000  Uiso   1.00
O212   O     0.03565   0.42037   0.24643   0.00000  Uiso   1.00
O213   O     0.25870   0.50234   0.17554   0.00000  Uiso   1.00
O214   O     0.01843   0.49309   0.16620   0.00000  Uiso   1.00
Zn215  Zn    0.27119   0.50618   0.25624   0.00000  Uiso   1.00
Zn216  Zn    0.06214   0.49382   0.24377   0.00000  Uiso   1.00
C217   C     0.34825   0.59821   0.24916   0.00000  Uiso   1.00
C218   C     0.39768   0.53671   0.40956   0.00000  Uiso   1.00
C219   C     0.35648   0.65279   0.25003   0.00000  Uiso   1.00
C220   C     0.37187   0.51314   0.35314   0.00000  Uiso   1.00
C221   C     0.64436   0.34738   0.25271   0.00000  Uiso   1.00
C222   C     0.65203   0.40185   0.25166   0.00000  Uiso   1.00
C223   C     0.62949   0.49480   0.14558   0.00000  Uiso   1.00
C224   C     0.61541   0.47128   0.49354   0.00000  Uiso   1.00
C225   C     0.60801   0.49254   0.08648   0.00000  Uiso   1.00
C226   C     0.36218   0.55752   0.44197   0.00000  Uiso   1.00
C227   C     0.38523   0.57093   0.49784   0.00000  Uiso   1.00
C228   C     0.47976   0.54104   0.48987   0.00000  Uiso   1.00
C229   C     0.44280   0.56067   0.02244   0.00000  Uiso   1.00
C230   C     0.34779   0.42843   0.06804   0.00000  Uiso   1.00
C231   C     0.39954   0.43086   0.04849   0.00000  Uiso   1.00
C232   C     0.44202   0.39537   0.06457   0.00000  Uiso   1.00
C233   C     0.43251   0.35610   0.09908   0.00000  Uiso   1.00
C234   C     0.38041   0.35215   0.11728   0.00000  Uiso   1.00
C235   C     0.33831   0.38823   0.10216   0.00000  Uiso   1.00
C236   C     0.45874   0.53753   0.43244   0.00000  Uiso   1.00
C237   C     0.53520   0.52138   0.01110   0.00000  Uiso   1.00
C238   C     0.56692   0.49983   0.47443   0.00000  Uiso   1.00
C239   C     0.55005   0.50804   0.41891   0.00000  Uiso   1.00
C240   C     0.49960   0.53248   0.39982   0.00000  Uiso   1.00
C241   C     0.55845   0.51958   0.06698   0.00000  Uiso   1.00
C242   C     0.63518   0.46534   0.04975   0.00000  Uiso   1.00
H243   H     0.60133   0.66372   0.25502   0.00000  Uiso   1.00
H244   H     0.49159   0.54579   0.35913   0.00000  Uiso   1.00
H245   H     0.39956   0.33648   0.24793   0.00000  Uiso   1.00
H246   H     0.40684   0.45986   0.02042   0.00000  Uiso   1.00
H247   H     0.48200   0.39799   0.04976   0.00000  Uiso   1.00
H248   H     0.46517   0.66167   0.11114   0.00000  Uiso   1.00
H249   H     0.37243   0.65409   0.14264   0.00000  Uiso   1.00
H250   H     0.63128   0.38427   0.11628   0.00000  Uiso   1.00
H251   H     0.49031   0.45442   0.21422   0.00000  Uiso   1.00
H252   H     0.50979   0.54834   0.28071   0.00000  Uiso   1.00
H253   H     0.57577   0.49599   0.39048   0.00000  Uiso   1.00
H254   H     0.63667   0.45244   0.46441   0.00000  Uiso   1.00
H255   H     0.53853   0.53929   0.09620   0.00000  Uiso   1.00
H256   H     0.65025   0.56363   0.42414   0.00000  Uiso   1.00
H257   H     0.45650   0.56761   0.06653   0.00000  Uiso   1.00
H258   H     0.35735   0.58650   0.02278   0.00000  Uiso   1.00
N259   N     0.47827   0.48556   0.23543   0.00000  Uiso   1.00
N260   N     0.52173   0.51444   0.26458   0.00000  Uiso   1.00
O261   O     0.63102   0.57963   0.25358   0.00000  Uiso   1.00
O262   O     0.39075   0.57038   0.24424   0.00000  Uiso   1.00
O263   O     0.64823   0.50691   0.33380   0.00000  Uiso   1.00
O264   O     0.40796   0.49766   0.32446   0.00000  Uiso   1.00
O265   O     0.60925   0.42962   0.25577   0.00000  Uiso   1.00
O266   O     0.36898   0.42037   0.24643   0.00000  Uiso   1.00
O267   O     0.59204   0.50234   0.17554   0.00000  Uiso   1.00
O268   O     0.35177   0.49309   0.16620   0.00000  Uiso   1.00
Zn269  Zn    0.60453   0.50618   0.25624   0.00000  Uiso   1.00
Zn270  Zn    0.39547   0.49382   0.24377   0.00000  Uiso   1.00
C271   C     0.68158   0.59821   0.24916   0.00000  Uiso   1.00
C272   C     0.73101   0.53671   0.40956   0.00000  Uiso   1.00
C273   C     0.68981   0.65279   0.25003   0.00000  Uiso   1.00
C274   C     0.70520   0.51314   0.35314   0.00000  Uiso   1.00
C275   C     0.97769   0.34738   0.25271   0.00000  Uiso   1.00
C276   C     0.98536   0.40185   0.25166   0.00000  Uiso   1.00
C277   C     0.96282   0.49480   0.14558   0.00000  Uiso   1.00
C278   C     0.94874   0.47128   0.49354   0.00000  Uiso   1.00
C279   C     0.94134   0.49254   0.08648   0.00000  Uiso   1.00
C280   C     0.69552   0.55752   0.44197   0.00000  Uiso   1.00
C281   C     0.71856   0.57093   0.49784   0.00000  Uiso   1.00
C282   C     0.81310   0.54104   0.48987   0.00000  Uiso   1.00
C283   C     0.77614   0.56067   0.02244   0.00000  Uiso   1.00
C284   C     0.68113   0.42843   0.06804   0.00000  Uiso   1.00
C285   C     0.73288   0.43086   0.04849   0.00000  Uiso   1.00
C286   C     0.77535   0.39537   0.06457   0.00000  Uiso   1.00
C287   C     0.76584   0.35610   0.09908   0.00000  Uiso   1.00
C288   C     0.71374   0.35215   0.11728   0.00000  Uiso   1.00
C289   C     0.67164   0.38823   0.10216   0.00000  Uiso   1.00
C290   C     0.79207   0.53753   0.43244   0.00000  Uiso   1.00
C291   C     0.86853   0.52138   0.01110   0.00000  Uiso   1.00
C292   C     0.90026   0.49983   0.47443   0.00000  Uiso   1.00
C293   C     0.88339   0.50804   0.41891   0.00000  Uiso   1.00
C294   C     0.83293   0.53248   0.39982   0.00000  Uiso   1.00
C295   C     0.89178   0.51958   0.06698   0.00000  Uiso   1.00
C296   C     0.96852   0.46534   0.04975   0.00000  Uiso   1.00
H297   H     0.93466   0.66372   0.25502   0.00000  Uiso   1.00
H298   H     0.82492   0.54579   0.35913   0.00000  Uiso   1.00
H299   H     0.73290   0.33648   0.24793   0.00000  Uiso   1.00
H300   H     0.74017   0.45986   0.02042   0.00000  Uiso   1.00
H301   H     0.81533   0.39799   0.04976   0.00000  Uiso   1.00
H302   H     0.79850   0.66167   0.11114   0.00000  Uiso   1.00
H303   H     0.70577   0.65409   0.14264   0.00000  Uiso   1.00
H304   H     0.96461   0.38427   0.11628   0.00000  Uiso   1.00
H305   H     0.82364   0.45442   0.21422   0.00000  Uiso   1.00
H306   H     0.84312   0.54834   0.28071   0.00000  Uiso   1.00
H307   H     0.90910   0.49599   0.39048   0.00000  Uiso   1.00
H308   H     0.97001   0.45244   0.46441   0.00000  Uiso   1.00
H309   H     0.87187   0.53929   0.09620   0.00000  Uiso   1.00
H310   H     0.98358   0.56363   0.42414   0.00000  Uiso   1.00
H311   H     0.78984   0.56761   0.06653   0.00000  Uiso   1.00
H312   H     0.69068   0.58650   0.02278   0.00000  Uiso   1.00
N313   N     0.81160   0.48556   0.23543   0.00000  Uiso   1.00
N314   N     0.85507   0.51444   0.26458   0.00000  Uiso   1.00
O315   O     0.96435   0.57963   0.25358   0.00000  Uiso   1.00
O316   O     0.72408   0.57038   0.24424   0.00000  Uiso   1.00
O317   O     0.98157   0.50691   0.33380   0.00000  Uiso   1.00
O318   O     0.74130   0.49766   0.32446   0.00000  Uiso   1.00
O319   O     0.94258   0.42962   0.25577   0.00000  Uiso   1.00
O320   O     0.70231   0.42037   0.24643   0.00000  Uiso   1.00
O321   O     0.92537   0.50234   0.17554   0.00000  Uiso   1.00
O322   O     0.68510   0.49309   0.16620   0.00000  Uiso   1.00
Zn323  Zn    0.93786   0.50618   0.25624   0.00000  Uiso   1.00
Zn324  Zn    0.72881   0.49382   0.24377   0.00000  Uiso   1.00
C325   C     0.01491   0.93154   0.24916   0.00000  Uiso   1.00
C326   C     0.06434   0.87004   0.40956   0.00000  Uiso   1.00
C327   C     0.02314   0.98613   0.25003   0.00000  Uiso   1.00
C328   C     0.03853   0.84647   0.35314   0.00000  Uiso   1.00
C329   C     0.31102   0.68071   0.25271   0.00000  Uiso   1.00
C330   C     0.31869   0.73518   0.25166   0.00000  Uiso   1.00
C331   C     0.29615   0.82813   0.14558   0.00000  Uiso   1.00
C332   C     0.28207   0.80461   0.49354   0.00000  Uiso   1.00
C333   C     0.27467   0.82587   0.08648   0.00000  Uiso   1.00
C334   C     0.02885   0.89085   0.44197   0.00000  Uiso   1.00
C335   C     0.05189   0.90427   0.49784   0.00000  Uiso   1.00
C336   C     0.14643   0.87437   0.48987   0.00000  Uiso   1.00
C337   C     0.10947   0.89400   0.02244   0.00000  Uiso   1.00
C338   C     0.01446   0.76176   0.06804   0.00000  Uiso   1.00
C339   C     0.06621   0.76419   0.04849   0.00000  Uiso   1.00
C340   C     0.10868   0.72871   0.06457   0.00000  Uiso   1.00
C341   C     0.09918   0.68943   0.09908   0.00000  Uiso   1.00
C342   C     0.04708   0.68548   0.11728   0.00000  Uiso   1.00
C343   C     0.00497   0.72156   0.10216   0.00000  Uiso   1.00
C344   C     0.12541   0.87086   0.43244   0.00000  Uiso   1.00
C345   C     0.20187   0.85471   0.01110   0.00000  Uiso   1.00
C346   C     0.23359   0.83316   0.47443   0.00000  Uiso   1.00
C347   C     0.21672   0.84137   0.41891   0.00000  Uiso   1.00
C348   C     0.16626   0.86581   0.39982   0.00000  Uiso   1.00
C349   C     0.22512   0.85291   0.06698   0.00000  Uiso   1.00
C350   C     0.30185   0.79867   0.04975   0.00000  Uiso   1.00
H351   H     0.26799   0.99705   0.25502   0.00000  Uiso   1.00
H352   H     0.15825   0.87912   0.35913   0.00000  Uiso   1.00
H353   H     0.06623   0.66981   0.24793   0.00000  Uiso   1.00
H354   H     0.07351   0.79320   0.02042   0.00000  Uiso   1.00
H355   H     0.14866   0.73133   0.04976   0.00000  Uiso   1.00
H356   H     0.13184   0.99501   0.11114   0.00000  Uiso   1.00
H357   H     0.03910   0.98742   0.14264   0.00000  Uiso   1.00
H358   H     0.29795   0.71761   0.11628   0.00000  Uiso   1.00
H359   H     0.15697   0.78775   0.21422   0.00000  Uiso   1.00
H360   H     0.17646   0.88167   0.28071   0.00000  Uiso   1.00
H361   H     0.24243   0.82933   0.39048   0.00000  Uiso   1.00
H362   H     0.30334   0.78577   0.46441   0.00000  Uiso   1.00
H363   H     0.20520   0.87263   0.09620   0.00000  Uiso   1.00
H364   H     0.31692   0.89696   0.42414   0.00000  Uiso   1.00
H365   H     0.12317   0.90095   0.06653   0.00000  Uiso   1.00
H366   H     0.02401   0.91983   0.02278   0.00000  Uiso   1.00
N367   N     0.14493   0.81890   0.23543   0.00000  Uiso   1.00
N368   N     0.18840   0.84777   0.26458   0.00000  Uiso   1.00
O369   O     0.29769   0.91296   0.25358   0.00000  Uiso   1.00
O370   O     0.05742   0.90371   0.24424   0.00000  Uiso   1.00
O371   O     0.31490   0.84024   0.33380   0.00000  Uiso   1.00
O372   O     0.07463   0.83099   0.32446   0.00000  Uiso   1.00
O373   O     0.27592   0.76296   0.25577   0.00000  Uiso   1.00
O374   O     0.03565   0.75371   0.24643   0.00000  Uiso   1.00
O375   O     0.25870   0.83567   0.17554   0.00000  Uiso   1.00
O376   O     0.01843   0.82642   0.16620   0.00000  Uiso   1.00
Zn377  Zn    0.27119   0.83951   0.25624   0.00000  Uiso   1.00
Zn378  Zn    0.06214   0.82716   0.24377   0.00000  Uiso   1.00
C379   C     0.34825   0.93154   0.24916   0.00000  Uiso   1.00
C380   C     0.39768   0.87004   0.40956   0.00000  Uiso   1.00
C381   C     0.35648   0.98613   0.25003   0.00000  Uiso   1.00
C382   C     0.37187   0.84647   0.35314   0.00000  Uiso   1.00
C383   C     0.64436   0.68071   0.25271   0.00000  Uiso   1.00
C384   C     0.65203   0.73518   0.25166   0.00000  Uiso   1.00
C385   C     0.62949   0.82813   0.14558   0.00000  Uiso   1.00
C386   C     0.61541   0.80461   0.49354   0.00000  Uiso   1.00
C387   C     0.60801   0.82587   0.08648   0.00000  Uiso   1.00
C388   C     0.36218   0.89085   0.44197   0.00000  Uiso   1.00
C389   C     0.38523   0.90427   0.49784   0.00000  Uiso   1.00
C390   C     0.47976   0.87437   0.48987   0.00000  Uiso   1.00
C391   C     0.44280   0.89400   0.02244   0.00000  Uiso   1.00
C392   C     0.34779   0.76176   0.06804   0.00000  Uiso   1.00
C393   C     0.39954   0.76419   0.04849   0.00000  Uiso   1.00
C394   C     0.44202   0.72871   0.06457   0.00000  Uiso   1.00
C395   C     0.43251   0.68943   0.09908   0.00000  Uiso   1.00
C396   C     0.38041   0.68548   0.11728   0.00000  Uiso   1.00
C397   C     0.33831   0.72156   0.10216   0.00000  Uiso   1.00
C398   C     0.45874   0.87086   0.43244   0.00000  Uiso   1.00
C399   C     0.53520   0.85471   0.01110   0.00000  Uiso   1.00
C400   C     0.56692   0.83316   0.47443   0.00000  Uiso   1.00
C401   C     0.55005   0.84137   0.41891   0.00000  Uiso   1.00
C402   C     0.49960   0.86581   0.39982   0.00000  Uiso   1.00
C403   C     0.55845   0.85291   0.06698   0.00000  Uiso   1.00
C404   C     0.63518   0.79867   0.04975   0.00000  Uiso   1.00
H405   H     0.60133   0.99705   0.25502   0.00000  Uiso   1.00
H406   H     0.49159   0.87912   0.35913   0.00000  Uiso   1.00
H407   H     0.39956   0.66981   0.24793   0.00000  Uiso   1.00
H408   H     0.40684   0.79320   0.02042   0.00000  Uiso   1.00
H409   H     0.48200   0.73133   0.04976   0.00000  Uiso   1.00
H410   H     0.46517   0.99501   0.11114   0.00000  Uiso   1.00
H411   H     0.37243   0.98742   0.14264   0.00000  Uiso   1.00
H412   H     0.63128   0.71761   0.11628   0.00000  Uiso   1.00
H413   H     0.49031   0.78775   0.21422   0.00000  Uiso   1.00
H414   H     0.50979   0.88167   0.28071   0.00000  Uiso   1.00
H415   H     0.57577   0.82933   0.39048   0.00000  Uiso   1.00
H416   H     0.63667   0.78577   0.46441   0.00000  Uiso   1.00
H417   H     0.53853   0.87263   0.09620   0.00000  Uiso   1.00
H418   H     0.65025   0.89696   0.42414   0.00000  Uiso   1.00
H419   H     0.45650   0.90095   0.06653   0.00000  Uiso   1.00
H420   H     0.35735   0.91983   0.02278   0.00000  Uiso   1.00
N421   N     0.47827   0.81890   0.23543   0.00000  Uiso   1.00
N422   N     0.52173   0.84777   0.26458   0.00000  Uiso   1.00
O423   O     0.63102   0.91296   0.25358   0.00000  Uiso   1.00
O424   O     0.39075   0.90371   0.24424   0.00000  Uiso   1.00
O425   O     0.64823   0.84024   0.33380   0.00000  Uiso   1.00
O426   O     0.40796   0.83099   0.32446   0.00000  Uiso   1.00
O427   O     0.60925   0.76296   0.25577   0.00000  Uiso   1.00
O428   O     0.36898   0.75371   0.24643   0.00000  Uiso   1.00
O429   O     0.59204   0.83567   0.17554   0.00000  Uiso   1.00
O430   O     0.35177   0.82642   0.16620   0.00000  Uiso   1.00
Zn431  Zn    0.60453   0.83951   0.25624   0.00000  Uiso   1.00
Zn432  Zn    0.39547   0.82716   0.24377   0.00000  Uiso   1.00
C433   C     0.68158   0.93154   0.24916   0.00000  Uiso   1.00
C434   C     0.73101   0.87004   0.40956   0.00000  Uiso   1.00
C435   C     0.68981   0.98613   0.25003   0.00000  Uiso   1.00
C436   C     0.70520   0.84647   0.35314   0.00000  Uiso   1.00
C437   C     0.97769   0.68071   0.25271   0.00000  Uiso   1.00
C438   C     0.98536   0.73518   0.25166   0.00000  Uiso   1.00
C439   C     0.96282   0.82813   0.14558   0.00000  Uiso   1.00
C440   C     0.94874   0.80461   0.49354   0.00000  Uiso   1.00
C441   C     0.94134   0.82587   0.08648   0.00000  Uiso   1.00
C442   C     0.69552   0.89085   0.44197   0.00000  Uiso   1.00
C443   C     0.71856   0.90427   0.49784   0.00000  Uiso   1.00
C444   C     0.81310   0.87437   0.48987   0.00000  Uiso   1.00
C445   C     0.77614   0.89400   0.02244   0.00000  Uiso   1.00
C446   C     0.68113   0.76176   0.06804   0.00000  Uiso   1.00
C447   C     0.73288   0.76419   0.04849   0.00000  Uiso   1.00
C448   C     0.77535   0.72871   0.06457   0.00000  Uiso   1.00
C449   C     0.76584   0.68943   0.09908   0.00000  Uiso   1.00
C450   C     0.71374   0.68548   0.11728   0.00000  Uiso   1.00
C451   C     0.67164   0.72156   0.10216   0.00000  Uiso   1.00
C452   C     0.79207   0.87086   0.43244   0.00000  Uiso   1.00
C453   C     0.86853   0.85471   0.01110   0.00000  Uiso   1.00
C454   C     0.90026   0.83316   0.47443   0.00000  Uiso   1.00
C455   C     0.88339   0.84137   0.41891   0.00000  Uiso   1.00
C456   C     0.83293   0.86581   0.39982   0.00000  Uiso   1.00
C457   C     0.89178   0.85291   0.06698   0.00000  Uiso   1.00
C458   C     0.96852   0.79867   0.04975   0.00000  Uiso   1.00
H459   H     0.93466   0.99705   0.25502   0.00000  Uiso   1.00
H460   H     0.82492   0.87912   0.35913   0.00000  Uiso   1.00
H461   H     0.73290   0.66981   0.24793   0.00000  Uiso   1.00
H462   H     0.74017   0.79320   0.02042   0.00000  Uiso   1.00
H463   H     0.81533   0.73133   0.04976   0.00000  Uiso   1.00
H464   H     0.79850   0.99501   0.11114   0.00000  Uiso   1.00
H465   H     0.70577   0.98742   0.14264   0.00000  Uiso   1.00
H466   H     0.96461   0.71761   0.11628   0.00000  Uiso   1.00
H467   H     0.82364   0.78775   0.21422   0.00000  Uiso   1.00
H468   H     0.84312   0.88167   0.28071   0.00000  Uiso   1.00
H469   H     0.90910   0.82933   0.39048   0.00000  Uiso   1.00
H470   H     0.97001   0.78577   0.46441   0.00000  Uiso   1.00
H471   H     0.87187   0.87263   0.09620   0.00000  Uiso   1.00
H472   H     0.98358   0.89696   0.42414   0.00000  Uiso   1.00
H473   H     0.78984   0.90095   0.06653   0.00000  Uiso   1.00
H474   H     0.69068   0.91983   0.02278   0.00000  Uiso   1.00
N475   N     0.81160   0.81890   0.23543   0.00000  Uiso   1.00
N476   N     0.85507   0.84777   0.26458   0.00000  Uiso   1.00
O477   O     0.96435   0.91296   0.25358   0.00000  Uiso   1.00
O478   O     0.72408   0.90371   0.24424   0.00000  Uiso   1.00
O479   O     0.98157   0.84024   0.33380   0.00000  Uiso   1.00
O480   O     0.74130   0.83099   0.32446   0.00000  Uiso   1.00
O481   O     0.94258   0.76296   0.25577   0.00000  Uiso   1.00
O482   O     0.70231   0.75371   0.24643   0.00000  Uiso   1.00
O483   O     0.92537   0.83567   0.17554   0.00000  Uiso   1.00
O484   O     0.68510   0.82642   0.16620   0.00000  Uiso   1.00
Zn485  Zn    0.93786   0.83951   0.25624   0.00000  Uiso   1.00
Zn486  Zn    0.72881   0.82716   0.24377   0.00000  Uiso   1.00
C487   C     0.01491   0.26488   0.74916   0.00000  Uiso   1.00
C488   C     0.06434   0.20337   0.90956   0.00000  Uiso   1.00
C489   C     0.02314   0.31946   0.75003   0.00000  Uiso   1.00
C490   C     0.03853   0.17981   0.85314   0.00000  Uiso   1.00
C491   C     0.31102   0.01404   0.75271   0.00000  Uiso   1.00
C492   C     0.31869   0.06851   0.75166   0.00000  Uiso   1.00
C493   C     0.29615   0.16146   0.64558   0.00000  Uiso   1.00
C494   C     0.28207   0.13794   0.99354   0.00000  Uiso   1.00
C495   C     0.27467   0.15921   0.58648   0.00000  Uiso   1.00
C496   C     0.02885   0.22418   0.94197   0.00000  Uiso   1.00
C497   C     0.05189   0.23760   0.99784   0.00000  Uiso   1.00
C498   C     0.14643   0.20771   0.98987   0.00000  Uiso   1.00
C499   C     0.10947   0.22733   0.52244   0.00000  Uiso   1.00
C500   C     0.01446   0.09510   0.56804   0.00000  Uiso   1.00
C501   C     0.06621   0.09753   0.54849   0.00000  Uiso   1.00
C502   C     0.10868   0.06204   0.56457   0.00000  Uiso   1.00
C503   C     0.09918   0.02277   0.59908   0.00000  Uiso   1.00
C504   C     0.04708   0.01881   0.61728   0.00000  Uiso   1.00
C505   C     0.00497   0.05489   0.60216   0.00000  Uiso   1.00
C506   C     0.12541   0.20419   0.93244   0.00000  Uiso   1.00
C507   C     0.20187   0.18804   0.51110   0.00000  Uiso   1.00
C508   C     0.23359   0.16649   0.97443   0.00000  Uiso   1.00
C509   C     0.21672   0.17471   0.91891   0.00000  Uiso   1.00
C510   C     0.16626   0.19914   0.89982   0.00000  Uiso   1.00
C511   C     0.22512   0.18625   0.56698   0.00000  Uiso   1.00
C512   C     0.30185   0.13201   0.54975   0.00000  Uiso   1.00
H513   H     0.26799   0.33039   0.75502   0.00000  Uiso   1.00
H514   H     0.15825   0.21246   0.85913   0.00000  Uiso   1.00
H515   H     0.06623   0.00315   0.74793   0.00000  Uiso   1.00
H516   H     0.07351   0.12653   0.52042   0.00000  Uiso   1.00
H517   H     0.14866   0.06466   0.54976   0.00000  Uiso   1.00
H518   H     0.13184   0.32834   0.61114   0.00000  Uiso   1.00
H519   H     0.03910   0.32076   0.64264   0.00000  Uiso   1.00
H520   H     0.29795   0.05094   0.61628   0.00000  Uiso   1.00
H521   H     0.15697   0.12109   0.71422   0.00000  Uiso   1.00
H522   H     0.17646   0.21501   0.78071   0.00000  Uiso   1.00
H523   H     0.24243   0.16266   0.89048   0.00000  Uiso   1.00
H524   H     0.30334   0.11911   0.96441   0.00000  Uiso   1.00
H525   H     0.20520   0.20596   0.59620   0.00000  Uiso   1.00
H526   H     0.31692   0.23029   0.92414   0.00000  Uiso   1.00
H527   H     0.12317   0.23428   0.56653   0.00000  Uiso   1.00
H528   H     0.02401   0.25317   0.52278   0.00000  Uiso   1.00
N529   N     0.14493   0.15223   0.73543   0.00000  Uiso   1.00
N530   N     0.18840   0.18110   0.76458   0.00000  Uiso   1.00
O531   O     0.29769   0.24629   0.75358   0.00000  Uiso   1.00
O532   O     0.05742   0.23704   0.74424   0.00000  Uiso   1.00
O533   O     0.31490   0.17358   0.83380   0.00000  Uiso   1.00
O534   O     0.07463   0.16433   0.82446   0.00000  Uiso   1.00
O535   O     0.27592   0.09629   0.75577   0.00000  Uiso   1.00
O536   O     0.03565   0.08704   0.74643   0.00000  Uiso   1.00
O537   O     0.25870   0.16901   0.67554   0.00000  Uiso   1.00
O538   O     0.01843   0.15976   0.66620   0.00000  Uiso   1.00
Zn539  Zn    0.27119   0.17284   0.75624   0.00000  Uiso   1.00
Zn540  Zn    0.06214   0.16049   0.74377   0.00000  Uiso   1.00
C541   C     0.34825   0.26488   0.74916   0.00000  Uiso   1.00
C542   C     0.39768   0.20337   0.90956   0.00000  Uiso   1.00
C543   C     0.35648   0.31946   0.75003   0.00000  Uiso   1.00
C544   C     0.37187   0.17981   0.85314   0.00000  Uiso   1.00
C545   C     0.64436   0.01404   0.75271   0.00000  Uiso   1.00
C546   C     0.65203   0.06851   0.75166   0.00000  Uiso   1.00
C547   C     0.62949   0.16146   0.64558   0.00000  Uiso   1.00
C548   C     0.61541   0.13794   0.99354   0.00000  Uiso   1.00
C549   C     0.60801   0.15921   0.58648   0.00000  Uiso   1.00
C550   C     0.36218   0.22418   0.94197   0.00000  Uiso   1.00
C551   C     0.38523   0.23760   0.99784   0.00000  Uiso   1.00
C552   C     0.47976   0.20771   0.98987   0.00000  Uiso   1.00
C553   C     0.44280   0.22733   0.52244   0.00000  Uiso   1.00
C554   C     0.34779   0.09510   0.56804   0.00000  Uiso   1.00
C555   C     0.39954   0.09753   0.54849   0.00000  Uiso   1.00
C556   C     0.44202   0.06204   0.56457   0.00000  Uiso   1.00
C557   C     0.43251   0.02277   0.59908   0.00000  Uiso   1.00
C558   C     0.38041   0.01881   0.61728   0.00000  Uiso   1.00
C559   C     0.33831   0.05489   0.60216   0.00000  Uiso   1.00
C560   C     0.45874   0.20419   0.93244   0.00000  Uiso   1.00
C561   C     0.53520   0.18804   0.51110   0.00000  Uiso   1.00
C562   C     0.56692   0.16649   0.97443   0.00000  Uiso   1.00
C563   C     0.55005   0.17471   0.91891   0.00000  Uiso   1.00
C564   C     0.49960   0.19914   0.89982   0.00000  Uiso   1.00
C565   C     0.55845   0.18625   0.56698   0.00000  Uiso   1.00
C566   C     0.63518   0.13201   0.54975   0.00000  Uiso   1.00
H567   H     0.60133   0.33039   0.75502   0.00000  Uiso   1.00
H568   H     0.49159   0.21246   0.85913   0.00000  Uiso   1.00
H569   H     0.39956   0.00315   0.74793   0.00000  Uiso   1.00
H570   H     0.40684   0.12653   0.52042   0.00000  Uiso   1.00
H571   H     0.48200   0.06466   0.54976   0.00000  Uiso   1.00
H572   H     0.46517   0.32834   0.61114   0.00000  Uiso   1.00
H573   H     0.37243   0.32076   0.64264   0.00000  Uiso   1.00
H574   H     0.63128   0.05094   0.61628   0.00000  Uiso   1.00
H575   H     0.49031   0.12109   0.71422   0.00000  Uiso   1.00
H576   H     0.50979   0.21501   0.78071   0.00000  Uiso   1.00
H577   H     0.57577   0.16266   0.89048   0.00000  Uiso   1.00
H578   H     0.63667   0.11911   0.96441   0.00000  Uiso   1.00
H579   H     0.53853   0.20596   0.59620   0.00000  Uiso   1.00
H580   H     0.65025   0.23029   0.92414   0.00000  Uiso   1.00
H581   H     0.45650   0.23428   0.56653   0.00000  Uiso   1.00
H582   H     0.35735   0.25317   0.52278   0.00000  Uiso   1.00
N583   N     0.47827   0.15223   0.73543   0.00000  Uiso   1.00
N584   N     0.52173   0.18110   0.76458   0.00000  Uiso   1.00
O585   O     0.63102   0.24629   0.75358   0.00000  Uiso   1.00
O586   O     0.39075   0.23704   0.74424   0.00000  Uiso   1.00
O587   O     0.64823   0.17358   0.83380   0.00000  Uiso   1.00
O588   O     0.40796   0.16433   0.82446   0.00000  Uiso   1.00
O589   O     0.60925   0.09629   0.75577   0.00000  Uiso   1.00
O590   O     0.36898   0.08704   0.74643   0.00000  Uiso   1.00
O591   O     0.59204   0.16901   0.67554   0.00000  Uiso   1.00
O592   O     0.35177   0.15976   0.66620   0.00000  Uiso   1.00
Zn593  Zn    0.60453   0.17284   0.75624   0.00000  Uiso   1.00
Zn594  Zn    0.39547   0.16049   0.74377   0.00000  Uiso   1.00
C595   C     0.68158   0.26488   0.74916   0.00000  Uiso   1.00
C596   C     0.73101   0.20337   0.90956   0.00000  Uiso   1.00
C597   C     0.68981   0.31946   0.75003   0.00000  Uiso   1.00
C598   C     0.70520   0.17981   0.85314   0.00000  Uiso   1.00
C599   C     0.97769   0.01404   0.75271   0.00000  Uiso   1.00
C600   C     0.98536   0.06851   0.75166   0.00000  Uiso   1.00
C601   C     0.96282   0.16146   0.64558   0.00000  Uiso   1.00
C602   C     0.94874   0.13794   0.99354   0.00000  Uiso   1.00
C603   C     0.94134   0.15921   0.58648   0.00000  Uiso   1.00
C604   C     0.69552   0.22418   0.94197   0.00000  Uiso   1.00
C605   C     0.71856   0.23760   0.99784   0.00000  Uiso   1.00
C606   C     0.81310   0.20771   0.98987   0.00000  Uiso   1.00
C607   C     0.77614   0.22733   0.52244   0.00000  Uiso   1.00
C608   C     0.68113   0.09510   0.56804   0.00000  Uiso   1.00
C609   C     0.73288   0.09753   0.54849   0.00000  Uiso   1.00
C610   C     0.77535   0.06204   0.56457   0.00000  Uiso   1.00
C611   C     0.76584   0.02277   0.59908   0.00000  Uiso   1.00
C612   C     0.71374   0.01881   0.61728   0.00000  Uiso   1.00
C613   C     0.67164   0.05489   0.60216   0.00000  Uiso   1.00
C614   C     0.79207   0.20419   0.93244   0.00000  Uiso   1.00
C615   C     0.86853   0.18804   0.51110   0.00000  Uiso   1.00
C616   C     0.90026   0.16649   0.97443   0.00000  Uiso   1.00
C617   C     0.88339   0.17471   0.91891   0.00000  Uiso   1.00
C618   C     0.83293   0.19914   0.89982   0.00000  Uiso   1.00
C619   C     0.89178   0.18625   0.56698   0.00000  Uiso   1.00
C620   C     0.96852   0.13201   0.54975   0.00000  Uiso   1.00
H621   H     0.93466   0.33039   0.75502   0.00000  Uiso   1.00
H622   H     0.82492   0.21246   0.85913   0.00000  Uiso   1.00
H623   H     0.73290   0.00315   0.74793   0.00000  Uiso   1.00
H624   H     0.74017   0.12653   0.52042   0.00000  Uiso   1.00
H625   H     0.81533   0.06466   0.54976   0.00000  Uiso   1.00
H626   H     0.79850   0.32834   0.61114   0.00000  Uiso   1.00
H627   H     0.70577   0.32076   0.64264   0.00000  Uiso   1.00
H628   H     0.96461   0.05094   0.61628   0.00000  Uiso   1.00
H629   H     0.82364   0.12109   0.71422   0.00000  Uiso   1.00
H630   H     0.84312   0.21501   0.78071   0.00000  Uiso   1.00
H631   H     0.90910   0.16266   0.89048   0.00000  Uiso   1.00
H632   H     0.97001   0.11911   0.96441   0.00000  Uiso   1.00
H633   H     0.87187   0.20596   0.59620   0.00000  Uiso   1.00
H634   H     0.98358   0.23029   0.92414   0.00000  Uiso   1.00
H635   H     0.78984   0.23428   0.56653   0.00000  Uiso   1.00
H636   H     0.69068   0.25317   0.52278   0.00000  Uiso   1.00
N637   N     0.81160   0.15223   0.73543   0.00000  Uiso   1.00
N638   N     0.85507   0.18110   0.76458   0.00000  Uiso   1.00
O639   O     0.96435   0.24629   0.75358   0.00000  Uiso   1.00
O640   O     0.72408   0.23704   0.74424   0.00000  Uiso   1.00
O641   O     0.98157   0.17358   0.83380   0.00000  Uiso   1.00
O642   O     0.74130   0.16433   0.82446   0.00000  Uiso   1.00
O643   O     0.94258   0.09629   0.75577   0.00000  Uiso   1.00
O644   O     0.70231   0.08704   0.74643   0.00000  Uiso   1.00
O645   O     0.92537   0.16901   0.67554   0.00000  Uiso   1.00
O646   O     0.68510   0.15976   0.66620   0.00000  Uiso   1.00
Zn647  Zn    0.93786   0.17284   0.75624   0.00000  Uiso   1.00
Zn648  Zn    0.72881   0.16049   0.74377   0.00000  Uiso   1.00
C649   C     0.01491   0.59821   0.74916   0.00000  Uiso   1.00
C650   C     0.06434   0.53671   0.90956   0.00000  Uiso   1.00
C651   C     0.02314   0.65279   0.75003   0.00000  Uiso   1.00
C652   C     0.03853   0.51314   0.85314   0.00000  Uiso   1.00
C653   C     0.31102   0.34738   0.75271   0.00000  Uiso   1.00
C654   C     0.31869   0.40185   0.75166   0.00000  Uiso   1.00
C655   C     0.29615   0.49480   0.64558   0.00000  Uiso   1.00
C656   C     0.28207   0.47128   0.99354   0.00000  Uiso   1.00
C657   C     0.27467   0.49254   0.58648   0.00000  Uiso   1.00
C658   C     0.02885   0.55752   0.94197   0.00000  Uiso   1.00
C659   C     0.05189   0.57093   0.99784   0.00000  Uiso   1.00
C660   C     0.14643   0.54104   0.98987   0.00000  Uiso   1.00
C661   C     0.10947   0.56067   0.52244   0.00000  Uiso   1.00
C662   C     0.01446   0.42843   0.56804   0.00000  Uiso   1.00
C663   C     0.06621   0.43086   0.54849   0.00000  Uiso   1.00
C664   C     0.10868   0.39537   0.56457   0.00000  Uiso   1.00
C665   C     0.09918   0.35610   0.59908   0.00000  Uiso   1.00
C666   C     0.04708   0.35215   0.61728   0.00000  Uiso   1.00
C667   C     0.00497   0.38823   0.60216   0.00000  Uiso   1.00
C668   C     0.12541   0.53753   0.93244   0.00000  Uiso   1.00
C669   C     0.20187   0.52138   0.51110   0.00000  Uiso   1.00
C670   C     0.23359   0.49983   0.97443   0.00000  Uiso   1.00
C671   C     0.21672   0.50804   0.91891   0.00000  Uiso   1.00
C672   C     0.16626   0.53248   0.89982   0.00000  Uiso   1.00
C673   C     0.22512   0.51958   0.56698   0.00000  Uiso   1.00
C674   C     0.30185   0.46534   0.54975   0.00000  Uiso   1.00
H675   H     0.26799   0.66372   0.75502   0.00000  Uiso   1.00
H676   H     0.15825   0.54579   0.85913   0.00000  Uiso   1.00
H677   H     0.06623   0.33648   0.74793   0.00000  Uiso   1.00
H678   H     0.07351   0.45986   0.52042   0.00000  Uiso   1.00
H679   H     0.14866   0.39799   0.54976   0.00000  Uiso   1.00
H680   H     0.13184   0.66167   0.61114   0.00000  Uiso   1.00
H681   H     0.03910   0.65409   0.64264   0.00000  Uiso   1.00
H682   H     0.29795   0.38427   0.61628   0.00000  Uiso   1.00
H683   H     0.15697   0.45442   0.71422   0.00000  Uiso   1.00
H684   H     0.17646   0.54834   0.78071   0.00000  Uiso   1.00
H685   H     0.24243   0.49599   0.89048   0.00000  Uiso   1.00
H686   H     0.30334   0.45244   0.96441   0.00000  Uiso   1.00
H687   H     0.20520   0.53929   0.59620   0.00000  Uiso   1.00
H688   H     0.31692   0.56363   0.92414   0.00000  Uiso   1.00
H689   H     0.12317   0.56761   0.56653   0.00000  Uiso   1.00
H690   H     0.02401   0.58650   0.52278   0.00000  Uiso   1.00
N691   N     0.14493   0.48556   0.73543   0.00000  Uiso   1.00
N692   N     0.18840   0.51444   0.76458   0.00000  Uiso   1.00
O693   O     0.29769   0.57963   0.75358   0.00000  Uiso   1.00
O694   O     0.05742   0.57038   0.74424   0.00000  Uiso   1.00
O695   O     0.31490   0.50691   0.83380   0.00000  Uiso   1.00
O696   O     0.07463   0.49766   0.82446   0.00000  Uiso   1.00
O697   O     0.27592   0.42962   0.75577   0.00000  Uiso   1.00
O698   O     0.03565   0.42037   0.74643   0.00000  Uiso   1.00
O699   O     0.25870   0.50234   0.67554   0.00000  Uiso   1.00
O700   O     0.01843   0.49309   0.66620   0.00000  Uiso   1.00
Zn701  Zn    0.27119   0.50618   0.75624   0.00000  Uiso   1.00
Zn702  Zn    0.06214   0.49382   0.74377   0.00000  Uiso   1.00
C703   C     0.34825   0.59821   0.74916   0.00000  Uiso   1.00
C704   C     0.39768   0.53671   0.90956   0.00000  Uiso   1.00
C705   C     0.35648   0.65279   0.75003   0.00000  Uiso   1.00
C706   C     0.37187   0.51314   0.85314   0.00000  Uiso   1.00
C707   C     0.64436   0.34738   0.75271   0.00000  Uiso   1.00
C708   C     0.65203   0.40185   0.75166   0.00000  Uiso   1.00
C709   C     0.62949   0.49480   0.64558   0.00000  Uiso   1.00
C710   C     0.61541   0.47128   0.99354   0.00000  Uiso   1.00
C711   C     0.60801   0.49254   0.58648   0.00000  Uiso   1.00
C712   C     0.36218   0.55752   0.94197   0.00000  Uiso   1.00
C713   C     0.38523   0.57093   0.99784   0.00000  Uiso   1.00
C714   C     0.47976   0.54104   0.98987   0.00000  Uiso   1.00
C715   C     0.44280   0.56067   0.52244   0.00000  Uiso   1.00
C716   C     0.34779   0.42843   0.56804   0.00000  Uiso   1.00
C717   C     0.39954   0.43086   0.54849   0.00000  Uiso   1.00
C718   C     0.44202   0.39537   0.56457   0.00000  Uiso   1.00
C719   C     0.43251   0.35610   0.59908   0.00000  Uiso   1.00
C720   C     0.38041   0.35215   0.61728   0.00000  Uiso   1.00
C721   C     0.33831   0.38823   0.60216   0.00000  Uiso   1.00
C722   C     0.45874   0.53753   0.93244   0.00000  Uiso   1.00
C723   C     0.53520   0.52138   0.51110   0.00000  Uiso   1.00
C724   C     0.56692   0.49983   0.97443   0.00000  Uiso   1.00
C725   C     0.55005   0.50804   0.91891   0.00000  Uiso   1.00
C726   C     0.49960   0.53248   0.89982   0.00000  Uiso   1.00
C727   C     0.55845   0.51958   0.56698   0.00000  Uiso   1.00
C728   C     0.63518   0.46534   0.54975   0.00000  Uiso   1.00
H729   H     0.60133   0.66372   0.75502   0.00000  Uiso   1.00
H730   H     0.49159   0.54579   0.85913   0.00000  Uiso   1.00
H731   H     0.39956   0.33648   0.74793   0.00000  Uiso   1.00
H732   H     0.40684   0.45986   0.52042   0.00000  Uiso   1.00
H733   H     0.48200   0.39799   0.54976   0.00000  Uiso   1.00
H734   H     0.46517   0.66167   0.61114   0.00000  Uiso   1.00
H735   H     0.37243   0.65409   0.64264   0.00000  Uiso   1.00
H736   H     0.63128   0.38427   0.61628   0.00000  Uiso   1.00
H737   H     0.49031   0.45442   0.71422   0.00000  Uiso   1.00
H738   H     0.50979   0.54834   0.78071   0.00000  Uiso   1.00
H739   H     0.57577   0.49599   0.89048   0.00000  Uiso   1.00
H740   H     0.63667   0.45244   0.96441   0.00000  Uiso   1.00
H741   H     0.53853   0.53929   0.59620   0.00000  Uiso   1.00
H742   H     0.65025   0.56363   0.92414   0.00000  Uiso   1.00
H743   H     0.45650   0.56761   0.56653   0.00000  Uiso   1.00
H744   H     0.35735   0.58650   0.52278   0.00000  Uiso   1.00
N745   N     0.47827   0.48556   0.73543   0.00000  Uiso   1.00
N746   N     0.52173   0.51444   0.76458   0.00000  Uiso   1.00
O747   O     0.63102   0.57963   0.75358   0.00000  Uiso   1.00
O748   O     0.39075   0.57038   0.74424   0.00000  Uiso   1.00
O749   O     0.64823   0.50691   0.83380   0.00000  Uiso   1.00
O750   O     0.40796   0.49766   0.82446   0.00000  Uiso   1.00
O751   O     0.60925   0.42962   0.75577   0.00000  Uiso   1.00
O752   O     0.36898   0.42037   0.74643   0.00000  Uiso   1.00
O753   O     0.59204   0.50234   0.67554   0.00000  Uiso   1.00
O754   O     0.35177   0.49309   0.66620   0.00000  Uiso   1.00
Zn755  Zn    0.60453   0.50618   0.75624   0.00000  Uiso   1.00
Zn756  Zn    0.39547   0.49382   0.74377   0.00000  Uiso   1.00
C757   C     0.68158   0.59821   0.74916   0.00000  Uiso   1.00
C758   C     0.73101   0.53671   0.90956   0.00000  Uiso   1.00
C759   C     0.68981   0.65279   0.75003   0.00000  Uiso   1.00
C760   C     0.70520   0.51314   0.85314   0.00000  Uiso   1.00
C761   C     0.97769   0.34738   0.75271   0.00000  Uiso   1.00
C762   C     0.98536   0.40185   0.75166   0.00000  Uiso   1.00
C763   C     0.96282   0.49480   0.64558   0.00000  Uiso   1.00
C764   C     0.94874   0.47128   0.99354   0.00000  Uiso   1.00
C765   C     0.94134   0.49254   0.58648   0.00000  Uiso   1.00
C766   C     0.69552   0.55752   0.94197   0.00000  Uiso   1.00
C767   C     0.71856   0.57093   0.99784   0.00000  Uiso   1.00
C768   C     0.81310   0.54104   0.98987   0.00000  Uiso   1.00
C769   C     0.77614   0.56067   0.52244   0.00000  Uiso   1.00
C770   C     0.68113   0.42843   0.56804   0.00000  Uiso   1.00
C771   C     0.73288   0.43086   0.54849   0.00000  Uiso   1.00
C772   C     0.77535   0.39537   0.56457   0.00000  Uiso   1.00
C773   C     0.76584   0.35610   0.59908   0.00000  Uiso   1.00
C774   C     0.71374   0.35215   0.61728   0.00000  Uiso   1.00
C775   C     0.67164   0.38823   0.60216   0.00000  Uiso   1.00
C776   C     0.79207   0.53753   0.93244   0.00000  Uiso   1.00
C777   C     0.86853   0.52138   0.51110   0.00000  Uiso   1.00
C778   C     0.90026   0.49983   0.97443   0.00000  Uiso   1.00
C779   C     0.88339   0.50804   0.91891   0.00000  Uiso   1.00
C780   C     0.83293   0.53248   0.89982   0.00000  Uiso   1.00
C781   C     0.89178   0.51958   0.56698   0.00000  Uiso   1.00
C782   C     0.96852   0.46534   0.54975   0.00000  Uiso   1.00
H783   H     0.93466   0.66372   0.75502   0.00000  Uiso   1.00
H784   H     0.82492   0.54579   0.85913   0.00000  Uiso   1.00
H785   H     0.73290   0.33648   0.74793   0.00000  Uiso   1.00
H786   H     0.74017   0.45986   0.52042   0.00000  Uiso   1.00
H787   H     0.81533   0.39799   0.54976   0.00000  Uiso   1.00
H788   H     0.79850   0.66167   0.61114   0.00000  Uiso   1.00
H789   H     0.70577   0.65409   0.64264   0.00000  Uiso   1.00
H790   H     0.96461   0.38427   0.61628   0.00000  Uiso   1.00
H791   H     0.82364   0.45442   0.71422   0.00000  Uiso   1.00
H792   H     0.84312   0.54834   0.78071   0.00000  Uiso   1.00
H793   H     0.90910   0.49599   0.89048   0.00000  Uiso   1.00
H794   H     0.97001   0.45244   0.96441   0.00000  Uiso   1.00
H795   H     0.87187   0.53929   0.59620   0.00000  Uiso   1.00
H796   H     0.98358   0.56363   0.92414   0.00000  Uiso   1.00
H797   H     0.78984   0.56761   0.56653   0.00000  Uiso   1.00
H798   H     0.69068   0.58650   0.52278   0.00000  Uiso   1.00
N799   N     0.81160   0.48556   0.73543   0.00000  Uiso   1.00
N800   N     0.85507   0.51444   0.76458   0.00000  Uiso   1.00
O801   O     0.96435   0.57963   0.75358   0.00000  Uiso   1.00
O802   O     0.72408   0.57038   0.74424   0.00000  Uiso   1.00
O803   O     0.98157   0.50691   0.83380   0.00000  Uiso   1.00
O804   O     0.74130   0.49766   0.82446   0.00000  Uiso   1.00
O805   O     0.94258   0.42962   0.75577   0.00000  Uiso   1.00
O806   O     0.70231   0.42037   0.74643   0.00000  Uiso   1.00
O807   O     0.92537   0.50234   0.67554   0.00000  Uiso   1.00
O808   O     0.68510   0.49309   0.66620   0.00000  Uiso   1.00
Zn809  Zn    0.93786   0.50618   0.75624   0.00000  Uiso   1.00
Zn810  Zn    0.72881   0.49382   0.74377   0.00000  Uiso   1.00
C811   C     0.01491   0.93154   0.74916   0.00000  Uiso   1.00
C812   C     0.06434   0.87004   0.90956   0.00000  Uiso   1.00
C813   C     0.02314   0.98613   0.75003   0.00000  Uiso   1.00
C814   C     0.03853   0.84647   0.85314   0.00000  Uiso   1.00
C815   C     0.31102   0.68071   0.75271   0.00000  Uiso   1.00
C816   C     0.31869   0.73518   0.75166   0.00000  Uiso   1.00
C817   C     0.29615   0.82813   0.64558   0.00000  Uiso   1.00
C818   C     0.28207   0.80461   0.99354   0.00000  Uiso   1.00
C819   C     0.27467   0.82587   0.58648   0.00000  Uiso   1.00
C820   C     0.02885   0.89085   0.94197   0.00000  Uiso   1.00
C821   C     0.05189   0.90427   0.99784   0.00000  Uiso   1.00
C822   C     0.14643   0.87437   0.98987   0.00000  Uiso   1.00
C823   C     0.10947   0.89400   0.52244   0.00000  Uiso   1.00
C824   C     0.01446   0.76176   0.56804   0.00000  Uiso   1.00
C825   C     0.06621   0.76419   0.54849   0.00000  Uiso   1.00
C826   C     0.10868   0.72871   0.56457   0.00000  Uiso   1.00
C827   C     0.09918   0.68943   0.59908   0.00000  Uiso   1.00
C828   C     0.04708   0.68548   0.61728   0.00000  Uiso   1.00
C829   C     0.00497   0.72156   0.60216   0.00000  Uiso   1.00
C830   C     0.12541   0.87086   0.93244   0.00000  Uiso   1.00
C831   C     0.20187   0.85471   0.51110   0.00000  Uiso   1.00
C832   C     0.23359   0.83316   0.97443   0.00000  Uiso   1.00
C833   C     0.21672   0.84137   0.91891   0.00000  Uiso   1.00
C834   C     0.16626   0.86581   0.89982   0.00000  Uiso   1.00
C835   C     0.22512   0.85291   0.56698   0.00000  Uiso   1.00
C836   C     0.30185   0.79867   0.54975   0.00000  Uiso   1.00
H837   H     0.26799   0.99705   0.75502   0.00000  Uiso   1.00
H838   H     0.15825   0.87912   0.85913   0.00000  Uiso   1.00
H839   H     0.06623   0.66981   0.74793   0.00000  Uiso   1.00
H840   H     0.07351   0.79320   0.52042   0.00000  Uiso   1.00
H841   H     0.14866   0.73133   0.54976   0.00000  Uiso   1.00
H842   H     0.13184   0.99501   0.61114   0.00000  Uiso   1.00
H843   H     0.03910   0.98742   0.64264   0.00000  Uiso   1.00
H844   H     0.29795   0.71761   0.61628   0.00000  Uiso   1.00
H845   H     0.15697   0.78775   0.71422   0.00000  Uiso   1.00
H846   H     0.17646   0.88167   0.78071   0.00000  Uiso   1.00
H847   H     0.24243   0.82933   0.89048   0.00000  Uiso   1.00
H848   H     0.30334   0.78577   0.96441   0.00000  Uiso   1.00
H849   H     0.20520   0.87263   0.59620   0.00000  Uiso   1.00
H850   H     0.31692   0.89696   0.92414   0.00000  Uiso   1.00
H851   H     0.12317   0.90095   0.56653   0.00000  Uiso   1.00
H852   H     0.02401   0.91983   0.52278   0.00000  Uiso   1.00
N853   N     0.14493   0.81890   0.73543   0.00000  Uiso   1.00
N854   N     0.18840   0.84777   0.76458   0.00000  Uiso   1.00
O855   O     0.29769   0.91296   0.75358   0.00000  Uiso   1.00
O856   O     0.05742   0.90371   0.74424   0.00000  Uiso   1.00
O857   O     0.31490   0.84024   0.83380   0.00000  Uiso   1.00
O858   O     0.07463   0.83099   0.82446   0.00000  Uiso   1.00
O859   O     0.27592   0.76296   0.75577   0.00000  Uiso   1.00
O860   O     0.03565   0.75371   0.74643   0.00000  Uiso   1.00
O861   O     0.25870   0.83567   0.67554   0.00000  Uiso   1.00
O862   O     0.01843   0.82642   0.66620   0.00000  Uiso   1.00
Zn863  Zn    0.27119   0.83951   0.75624   0.00000  Uiso   1.00
Zn864  Zn    0.06214   0.82716   0.74377   0.00000  Uiso   1.00
C865   C     0.34825   0.93154   0.74916   0.00000  Uiso   1.00
C866   C     0.39768   0.87004   0.90956   0.00000  Uiso   1.00
C867   C     0.35648   0.98613   0.75003   0.00000  Uiso   1.00
C868   C     0.37187   0.84647   0.85314   0.00000  Uiso   1.00
C869   C     0.64436   0.68071   0.75271   0.00000  Uiso   1.00
C870   C     0.65203   0.73518   0.75166   0.00000  Uiso   1.00
C871   C     0.62949   0.82813   0.64558   0.00000  Uiso   1.00
C872   C     0.61541   0.80461   0.99354   0.00000  Uiso   1.00
C873   C     0.60801   0.82587   0.58648   0.00000  Uiso   1.00
C874   C     0.36218   0.89085   0.94197   0.00000  Uiso   1.00
C875   C     0.38523   0.90427   0.99784   0.00000  Uiso   1.00
C876   C     0.47976   0.87437   0.98987   0.00000  Uiso   1.00
C877   C     0.44280   0.89400   0.52244   0.00000  Uiso   1.00
C878   C     0.34779   0.76176   0.56804   0.00000  Uiso   1.00
C879   C     0.39954   0.76419   0.54849   0.00000  Uiso   1.00
C880   C     0.44202   0.72871   0.56457   0.00000  Uiso   1.00
C881   C     0.43251   0.68943   0.59908   0.00000  Uiso   1.00
C882   C     0.38041   0.68548   0.61728   0.00000  Uiso   1.00
C883   C     0.33831   0.72156   0.60216   0.00000  Uiso   1.00
C884   C     0.45874   0.87086   0.93244   0.00000  Uiso   1.00
C885   C     0.53520   0.85471   0.51110   0.00000  Uiso   1.00
C886   C     0.56692   0.83316   0.97443   0.00000  Uiso   1.00
C887   C     0.55005   0.84137   0.91891   0.00000  Uiso   1.00
C888   C     0.49960   0.86581   0.89982   0.00000  Uiso   1.00
C889   C     0.55845   0.85291   0.56698   0.00000  Uiso   1.00
C890   C     0.63518   0.79867   0.54975   0.00000  Uiso   1.00
H891   H     0.60133   0.99705   0.75502   0.00000  Uiso   1.00
H892   H     0.49159   0.87912   0.85913   0.00000  Uiso   1.00
H893   H     0.39956   0.66981   0.74793   0.00000  Uiso   1.00
H894   H     0.40684   0.79320   0.52042   0.00000  Uiso   1.00
H895   H     0.48200   0.73133   0.54976   0.00000  Uiso   1.00
H896   H     0.46517   0.99501   0.61114   0.00000  Uiso   1.00
H897   H     0.37243   0.98742   0.64264   0.00000  Uiso   1.00
H898   H     0.63128   0.71761   0.61628   0.00000  Uiso   1.00
H899   H     0.49031   0.78775   0.71422   0.00000  Uiso   1.00
H900   H     0.50979   0.88167   0.78071   0.00000  Uiso   1.00
H901   H     0.57577   0.82933   0.89048   0.00000  Uiso   1.00
H902   H     0.63667   0.78577   0.96441   0.00000  Uiso   1.00
H903   H     0.53853   0.87263   0.59620   0.00000  Uiso   1.00
H904   H     0.65025   0.89696   0.92414   0.00000  Uiso   1.00
H905   H     0.45650   0.90095   0.56653   0.00000  Uiso   1.00
H906   H     0.35735   0.91983   0.52278   0.00000  Uiso   1.00
N907   N     0.47827   0.81890   0.73543   0.00000  Uiso   1.00
N908   N     0.52173   0.84777   0.76458   0.00000  Uiso   1.00
O909   O     0.63102   0.91296   0.75358   0.00000  Uiso   1.00
O910   O     0.39075   0.90371   0.74424   0.00000  Uiso   1.00
O911   O     0.64823   0.84024   0.83380   0.00000  Uiso   1.00
O912   O     0.40796   0.83099   0.82446   0.00000  Uiso   1.00
O913   O     0.60925   0.76296   0.75577   0.00000  Uiso   1.00
O914   O     0.36898   0.75371   0.74643   0.00000  Uiso   1.00
O915   O     0.59204   0.83567   0.67554   0.00000  Uiso   1.00
O916   O     0.35177   0.82642   0.66620   0.00000  Uiso   1.00
Zn917  Zn    0.60453   0.83951   0.75624   0.00000  Uiso   1.00
Zn918  Zn    0.39547   0.82716   0.74377   0.00000  Uiso   1.00
C919   C     0.68158   0.93154   0.74916   0.00000  Uiso   1.00
C920   C     0.73101   0.87004   0.90956   0.00000  Uiso   1.00
C921   C     0.68981   0.98613   0.75003   0.00000  Uiso   1.00
C922   C     0.70520   0.84647   0.85314   0.00000  Uiso   1.00
C923   C     0.97769   0.68071   0.75271   0.00000  Uiso   1.00
C924   C     0.98536   0.73518   0.75166   0.00000  Uiso   1.00
C925   C     0.96282   0.82813   0.64558   0.00000  Uiso   1.00
C926   C     0.94874   0.80461   0.99354   0.00000  Uiso   1.00
C927   C     0.94134   0.82587   0.58648   0.00000  Uiso   1.00
C928   C     0.69552   0.89085   0.94197   0.00000  Uiso   1.00
C929   C     0.71856   0.90427   0.99784   0.00000  Uiso   1.00
C930   C     0.81310   0.87437   0.98987   0.00000  Uiso   1.00
C931   C     0.77614   0.89400   0.52244   0.00000  Uiso   1.00
C932   C     0.68113   0.76176   0.56804   0.00000  Uiso   1.00
C933   C     0.73288   0.76419   0.54849   0.00000  Uiso   1.00
C934   C     0.77535   0.72871   0.56457   0.00000  Uiso   1.00
C935   C     0.76584   0.68943   0.59908   0.00000  Uiso   1.00
C936   C     0.71374   0.68548   0.61728   0.00000  Uiso   1.00
C937   C     0.67164   0.72156   0.60216   0.00000  Uiso   1.00
C938   C     0.79207   0.87086   0.93244   0.00000  Uiso   1.00
C939   C     0.86853   0.85471   0.51110   0.00000  Uiso   1.00
C940   C     0.90026   0.83316   0.97443   0.00000  Uiso   1.00
C941   C     0.88339   0.84137   0.91891   0.00000  Uiso   1.00
C942   C     0.83293   0.86581   0.89982   0.00000  Uiso   1.00
C943   C     0.89178   0.85291   0.56698   0.00000  Uiso   1.00
C944   C     0.96852   0.79867   0.54975   0.00000  Uiso   1.00
H945   H     0.93466   0.99705   0.75502   0.00000  Uiso   1.00
H946   H     0.82492   0.87912   0.85913   0.00000  Uiso   1.00
H947   H     0.73290   0.66981   0.74793   0.00000  Uiso   1.00
H948   H     0.74017   0.79320   0.52042   0.00000  Uiso   1.00
H949   H     0.81533   0.73133   0.54976   0.00000  Uiso   1.00
H950   H     0.79850   0.99501   0.61114   0.00000  Uiso   1.00
H951   H     0.70577   0.98742   0.64264   0.00000  Uiso   1.00
H952   H     0.96461   0.71761   0.61628   0.00000  Uiso   1.00
H953   H     0.82364   0.78775   0.71422   0.00000  Uiso   1.00
H954   H     0.84312   0.88167   0.78071   0.00000  Uiso   1.00
H955   H     0.90910   0.82933   0.89048   0.00000  Uiso   1.00
H956   H     0.97001   0.78577   0.96441   0.00000  Uiso   1.00
H957   H     0.87187   0.87263   0.59620   0.00000  Uiso   1.00
H958   H     0.98358   0.89696   0.92414   0.00000  Uiso   1.00
H959   H     0.78984   0.90095   0.56653   0.00000  Uiso   1.00
H960   H     0.69068   0.91983   0.52278   0.00000  Uiso   1.00
N961   N     0.81160   0.81890   0.73543   0.00000  Uiso   1.00
N962   N     0.85507   0.84777   0.76458   0.00000  Uiso   1.00
O963   O     0.96435   0.91296   0.75358   0.00000  Uiso   1.00
O964   O     0.72408   0.90371   0.74424   0.00000  Uiso   1.00
O965   O     0.98157   0.84024   0.83380   0.00000  Uiso   1.00
O966   O     0.74130   0.83099   0.82446   0.00000  Uiso   1.00
O967   O     0.94258   0.76296   0.75577   0.00000  Uiso   1.00
O968   O     0.70231   0.75371   0.74643   0.00000  Uiso   1.00
O969   O     0.92537   0.83567   0.67554   0.00000  Uiso   1.00
O970   O     0.68510   0.82642   0.66620   0.00000  Uiso   1.00
Zn971  Zn    0.93786   0.83951   0.75624   0.00000  Uiso   1.00
Zn972  Zn    0.72881   0.82716   0.74377   0.00000  Uiso   1.00
loop_
_geom_bond_atom_site_label_1
_geom_bond_atom_site_label_2
_geom_bond_distance
_geom_bond_site_symmetry_2
_ccdc_geom_bond_type
C1     O46     1.289   .     A
C1     C3      1.402   .     S
C1     O153    1.279   1_455 S
C2     C4      1.485   .     S
C2     C10     1.400   .     A
C2     C20     1.414   .     A
C3     C275    1.335   1_455 S
C3     H191    1.088   .     S
C4     O48     1.297   .     A
C4     O155    1.309   1_455 S
C5     C6      1.402   .     S
C5     C381    1.335   1_545 S
C5     H351    1.088   1_545 S
C6     O49     1.288   .     A
C6     O104    1.279   .     S
C7     O51     1.295   .     A
C7     C9      1.444   .     S
C7     O106    1.292   .     S
C8     C22     1.397   .     A
C8     H38     1.085   .     S
C8     C512    1.393   .     S
C9     C25     1.396   .     A
C9     C26     1.415   .     A
C10    C11     1.395   .     A
C10    H148    1.078   1_455 S
C11    C499    1.397   .     S
C11    H528    1.083   .     S
C12    C20     1.403   .     A
C12    C499    1.417   .     S
C12    C507    1.422   .     S
C13    H41     1.077   .     S
C13    C497    1.397   1_554 S
C13    C498    1.417   1_554 S
C14    C19     1.407   .     A
C14    C15     1.407   .     A
C14    C134    1.489   1_455 S
C15    C16     1.398   .     A
C15    H30     1.078   .     S
C16    H31     1.083   .     S
C16    C17     1.396   .     A
C17    C18     1.397   .     A
C17    H356    1.082   1_545 S
C18    C19     1.399   .     A
C18    H357    1.081   1_545 S
C19    H142    1.083   1_455 S
C20    C24     1.400   .     A
C21    C25     1.382   .     A
C21    C498    1.422   1_554 S
C21    C508    1.420   1_554 S
C22    C23     1.382   .     A
C22    C507    1.420   .     S
C23    C24     1.374   .     A
C23    H37     1.079   .     S
C24    H28     1.067   .     S
C25    H39     1.077   .     S
C26    C494    1.393   1_554 S
C26    C68     1.489   .     S
H27    C167    1.088   .     S
H29    C327    1.088   1_545 S
H32    C179    1.082   .     S
H33    C180    1.081   .     S
H34    C73     1.083   .     S
H35    N43     1.029   .     S
H36    N44     1.025   .     S
H40    C64     1.078   .     S
H42    C497    1.083   1_554 S
N43    N44     1.278   .     D
N43    Zn54    2.023   .     S
N44    Zn53    2.023   .     S
O45    Zn53    1.957   .     S
O45    C55     1.279   .     S
O46    Zn54    1.977   .     S
O47    Zn53    1.973   .     S
O47    C58     1.309   .     S
O48    Zn54    1.966   .     S
O49    Zn53    1.977   .     S
O50    Zn54    1.957   .     S
O50    C114    1.279   1_455 S
O51    Zn53    1.966   .     S
O52    Zn54    1.973   .     S
O52    C115    1.292   1_455 S
C55    O100    1.289   .     A
C55    C57     1.402   .     S
C56    C58     1.485   .     S
C56    C64     1.400   .     A
C56    C74     1.414   .     A
C57    C167    1.335   .     S
C57    H245    1.088   .     S
C58    O102    1.297   .     A
C59    C60     1.402   .     S
C59    C435    1.335   1_545 S
C59    H405    1.088   1_545 S
C60    O103    1.288   .     A
C60    O158    1.279   .     S
C61    O105    1.295   .     A
C61    C63     1.444   .     S
C61    O160    1.292   .     S
C62    C76     1.397   .     A
C62    H92     1.085   .     S
C62    C566    1.393   .     S
C63    C79     1.396   .     A
C63    C80     1.415   .     A
C64    C65     1.395   .     A
C65    C553    1.397   .     S
C65    H582    1.083   .     S
C66    C74     1.403   .     A
C66    C553    1.417   .     S
C66    C561    1.422   .     S
C67    H95     1.077   .     S
C67    C551    1.397   1_554 S
C67    C552    1.417   1_554 S
C68    C73     1.407   .     A
C68    C69     1.407   .     A
C69    C70     1.398   .     A
C69    H84     1.078   .     S
C70    H85     1.083   .     S
C70    C71     1.396   .     A
C71    C72     1.397   .     A
C71    H410    1.082   1_545 S
C72    C73     1.399   .     A
C72    H411    1.081   1_545 S
C74    C78     1.400   .     A
C75    C79     1.382   .     A
C75    C552    1.422   1_554 S
C75    C562    1.420   1_554 S
C76    C77     1.382   .     A
C76    C561    1.420   .     S
C77    C78     1.374   .     A
C77    H91     1.079   .     S
C78    H82     1.067   .     S
C79    H93     1.077   .     S
C80    C548    1.393   1_554 S
C80    C122    1.489   .     S
H81    C221    1.088   .     S
H83    C381    1.088   1_545 S
H86    C233    1.082   .     S
H87    C234    1.081   .     S
H88    C127    1.083   .     S
H89    N97     1.029   .     S
H90    N98     1.025   .     S
H94    C118    1.078   .     S
H96    C551    1.083   1_554 S
N97    N98     1.278   .     D
N97    Zn108   2.023   .     S
N98    Zn107   2.023   .     S
O99    Zn107   1.957   .     S
O99    C109    1.279   .     S
O100   Zn108   1.977   .     S
O101   Zn107   1.973   .     S
O101   C112    1.309   .     S
O102   Zn108   1.966   .     S
O103   Zn107   1.977   .     S
O104   Zn108   1.957   .     S
O105   Zn107   1.966   .     S
O106   Zn108   1.973   .     S
C109   O154    1.289   .     A
C109   C111    1.402   .     S
C110   C112    1.485   .     S
C110   C118    1.400   .     A
C110   C128    1.414   .     A
C111   C221    1.335   .     S
C111   H299    1.088   .     S
C112   O156    1.297   .     A
C113   C114    1.402   .     S
C113   C327    1.335   1_645 S
C113   H459    1.088   1_545 S
C114   O157    1.288   .     A
C114   O50     1.279   1_655 S
C115   O159    1.295   .     A
C115   C117    1.444   .     S
C115   O52     1.292   1_655 S
C116   C130    1.397   .     A
C116   H146    1.085   .     S
C116   C620    1.393   .     S
C117   C133    1.396   .     A
C117   C134    1.415   .     A
C118   C119    1.395   .     A
C119   C607    1.397   .     S
C119   H636    1.083   .     S
C120   C128    1.403   .     A
C120   C607    1.417   .     S
C120   C615    1.422   .     S
C121   H149    1.077   .     S
C121   C605    1.397   1_554 S
C121   C606    1.417   1_554 S
C122   C127    1.407   .     A
C122   C123    1.407   .     A
C123   C124    1.398   .     A
C123   H138    1.078   .     S
C124   H139    1.083   .     S
C124   C125    1.396   .     A
C125   C126    1.397   .     A
C125   H464    1.082   1_545 S
C126   C127    1.399   .     A
C126   H465    1.081   1_545 S
C128   C132    1.400   .     A
C129   C133    1.382   .     A
C129   C606    1.422   1_554 S
C129   C616    1.420   1_554 S
C130   C131    1.382   .     A
C130   C615    1.420   .     S
C131   C132    1.374   .     A
C131   H145    1.079   .     S
C132   H136    1.067   .     S
C133   H147    1.077   .     S
C134   C602    1.393   1_554 S
C134   C14     1.489   1_655 S
H135   C275    1.088   .     S
H137   C435    1.088   1_545 S
H140   C287    1.082   .     S
H141   C288    1.081   .     S
H142   C19     1.083   1_655 S
H143   N151    1.029   .     S
H144   N152    1.025   .     S
H148   C10     1.078   1_655 S
H150   C605    1.083   1_554 S
N151   N152    1.278   .     D
N151   Zn162   2.023   .     S
N152   Zn161   2.023   .     S
O153   Zn161   1.957   .     S
O153   C1      1.279   1_655 S
O154   Zn162   1.977   .     S
O155   Zn161   1.973   .     S
O155   C4      1.309   1_655 S
O156   Zn162   1.966   .     S
O157   Zn161   1.977   .     S
O158   Zn162   1.957   .     S
O159   Zn161   1.966   .     S
O160   Zn162   1.973   .     S
C163   O208    1.289   .     A
C163   C165    1.402   .     S
C163   O315    1.279   1_455 S
C164   C166    1.485   .     S
C164   C172    1.400   .     A
C164   C182    1.414   .     A
C165   C437    1.335   1_455 S
C165   H353    1.088   .     S
C166   O210    1.297   .     A
C166   O317    1.309   1_455 S
C167   C168    1.402   .     S
C168   O211    1.288   .     A
C168   O266    1.279   .     S
C169   O213    1.295   .     A
C169   C171    1.444   .     S
C169   O268    1.292   .     S
C170   C184    1.397   .     A
C170   H200    1.085   .     S
C170   C674    1.393   .     S
C171   C187    1.396   .     A
C171   C188    1.415   .     A
C172   C173    1.395   .     A
C172   H310    1.078   1_455 S
C173   C661    1.397   .     S
C173   H690    1.083   .     S
C174   C182    1.403   .     A
C174   C661    1.417   .     S
C174   C669    1.422   .     S
C175   H203    1.077   .     S
C175   C659    1.397   1_554 S
C175   C660    1.417   1_554 S
C176   C181    1.407   .     A
C176   C177    1.407   .     A
C176   C296    1.489   1_455 S
C177   C178    1.398   .     A
C177   H192    1.078   .     S
C178   H193    1.083   .     S
C178   C179    1.396   .     A
C179   C180    1.397   .     A
C180   C181    1.399   .     A
C181   H304    1.083   1_455 S
C182   C186    1.400   .     A
C183   C187    1.382   .     A
C183   C660    1.422   1_554 S
C183   C670    1.420   1_554 S
C184   C185    1.382   .     A
C184   C669    1.420   .     S
C185   C186    1.374   .     A
C185   H199    1.079   .     S
C186   H190    1.067   .     S
C187   H201    1.077   .     S
C188   C656    1.393   1_554 S
C188   C230    1.489   .     S
H189   C329    1.088   .     S
H194   C341    1.082   .     S
H195   C342    1.081   .     S
H196   C235    1.083   .     S
H197   N205    1.029   .     S
H198   N206    1.025   .     S
H202   C226    1.078   .     S
H204   C659    1.083   1_554 S
N205   N206    1.278   .     D
N205   Zn216   2.023   .     S
N206   Zn215   2.023   .     S
O207   Zn215   1.957   .     S
O207   C217    1.279   .     S
O208   Zn216   1.977   .     S
O209   Zn215   1.973   .     S
O209   C220    1.309   .     S
O210   Zn216   1.966   .     S
O211   Zn215   1.977   .     S
O212   Zn216   1.957   .     S
O212   C276    1.279   1_455 S
O213   Zn215   1.966   .     S
O214   Zn216   1.973   .     S
O214   C277    1.292   1_455 S
C217   O262    1.289   .     A
C217   C219    1.402   .     S
C218   C220    1.485   .     S
C218   C226    1.400   .     A
C218   C236    1.414   .     A
C219   C329    1.335   .     S
C219   H407    1.088   .     S
C220   O264    1.297   .     A
C221   C222    1.402   .     S
C222   O265    1.288   .     A
C222   O320    1.279   .     S
C223   O267    1.295   .     A
C223   C225    1.444   .     S
C223   O322    1.292   .     S
C224   C238    1.397   .     A
C224   H254    1.085   .     S
C224   C728    1.393   .     S
C225   C241    1.396   .     A
C225   C242    1.415   .     A
C226   C227    1.395   .     A
C227   C715    1.397   .     S
C227   H744    1.083   .     S
C228   C236    1.403   .     A
C228   C715    1.417   .     S
C228   C723    1.422   .     S
C229   H257    1.077   .     S
C229   C713    1.397   1_554 S
C229   C714    1.417   1_554 S
C230   C235    1.407   .     A
C230   C231    1.407   .     A
C231   C232    1.398   .     A
C231   H246    1.078   .     S
C232   H247    1.083   .     S
C232   C233    1.396   .     A
C233   C234    1.397   .     A
C234   C235    1.399   .     A
C236   C240    1.400   .     A
C237   C241    1.382   .     A
C237   C714    1.422   1_554 S
C237   C724    1.420   1_554 S
C238   C239    1.382   .     A
C238   C723    1.420   .     S
C239   C240    1.374   .     A
C239   H253    1.079   .     S
C240   H244    1.067   .     S
C241   H255    1.077   .     S
C242   C710    1.393   1_554 S
C242   C284    1.489   .     S
H243   C383    1.088   .     S
H248   C395    1.082   .     S
H249   C396    1.081   .     S
H250   C289    1.083   .     S
H251   N259    1.029   .     S
H252   N260    1.025   .     S
H256   C280    1.078   .     S
H258   C713    1.083   1_554 S
N259   N260    1.278   .     D
N259   Zn270   2.023   .     S
N260   Zn269   2.023   .     S
O261   Zn269   1.957   .     S
O261   C271    1.279   .     S
O262   Zn270   1.977   .     S
O263   Zn269   1.973   .     S
O263   C274    1.309   .     S
O264   Zn270   1.966   .     S
O265   Zn269   1.977   .     S
O266   Zn270   1.957   .     S
O267   Zn269   1.966   .     S
O268   Zn270   1.973   .     S
C271   O316    1.289   .     A
C271   C273    1.402   .     S
C272   C274    1.485   .     S
C272   C280    1.400   .     A
C272   C290    1.414   .     A
C273   C383    1.335   .     S
C273   H461    1.088   .     S
C274   O318    1.297   .     A
C275   C276    1.402   .     S
C275   C3      1.335   1_655 S
C276   O319    1.288   .     A
C276   O212    1.279   1_655 S
C277   O321    1.295   .     A
C277   C279    1.444   .     S
C277   O214    1.292   1_655 S
C278   C292    1.397   .     A
C278   H308    1.085   .     S
C278   C782    1.393   .     S
C279   C295    1.396   .     A
C279   C296    1.415   .     A
C280   C281    1.395   .     A
C281   C769    1.397   .     S
C281   H798    1.083   .     S
C282   C290    1.403   .     A
C282   C769    1.417   .     S
C282   C777    1.422   .     S
C283   H311    1.077   .     S
C283   C767    1.397   1_554 S
C283   C768    1.417   1_554 S
C284   C289    1.407   .     A
C284   C285    1.407   .     A
C285   C286    1.398   .     A
C285   H300    1.078   .     S
C286   H301    1.083   .     S
C286   C287    1.396   .     A
C287   C288    1.397   .     A
C288   C289    1.399   .     A
C290   C294    1.400   .     A
C291   C295    1.382   .     A
C291   C768    1.422   1_554 S
C291   C778    1.420   1_554 S
C292   C293    1.382   .     A
C292   C777    1.420   .     S
C293   C294    1.374   .     A
C293   H307    1.079   .     S
C294   H298    1.067   .     S
C295   H309    1.077   .     S
C296   C764    1.393   1_554 S
C296   C176    1.489   1_655 S
H297   C437    1.088   .     S
H302   C449    1.082   .     S
H303   C450    1.081   .     S
H304   C181    1.083   1_655 S
H305   N313    1.029   .     S
H306   N314    1.025   .     S
H310   C172    1.078   1_655 S
H312   C767    1.083   1_554 S
N313   N314    1.278   .     D
N313   Zn324   2.023   .     S
N314   Zn323   2.023   .     S
O315   Zn323   1.957   .     S
O315   C163    1.279   1_655 S
O316   Zn324   1.977   .     S
O317   Zn323   1.973   .     S
O317   C166    1.309   1_655 S
O318   Zn324   1.966   .     S
O319   Zn323   1.977   .     S
O320   Zn324   1.957   .     S
O321   Zn323   1.966   .     S
O322   Zn324   1.973   .     S
C325   O370    1.289   .     A
C325   C327    1.402   .     S
C325   O477    1.279   1_455 S
C326   C328    1.485   .     S
C326   C334    1.400   .     A
C326   C344    1.414   .     A
C327   C113    1.335   1_465 S
C327   H29     1.088   1_565 S
C328   O372    1.297   .     A
C328   O479    1.309   1_455 S
C329   C330    1.402   .     S
C330   O373    1.288   .     A
C330   O428    1.279   .     S
C331   O375    1.295   .     A
C331   C333    1.444   .     S
C331   O430    1.292   .     S
C332   C346    1.397   .     A
C332   H362    1.085   .     S
C332   C836    1.393   .     S
C333   C349    1.396   .     A
C333   C350    1.415   .     A
C334   C335    1.395   .     A
C334   H472    1.078   1_455 S
C335   C823    1.397   .     S
C335   H852    1.083   .     S
C336   C344    1.403   .     A
C336   C823    1.417   .     S
C336   C831    1.422   .     S
C337   H365    1.077   .     S
C337   C821    1.397   1_554 S
C337   C822    1.417   1_554 S
C338   C343    1.407   .     A
C338   C339    1.407   .     A
C338   C458    1.489   1_455 S
C339   C340    1.398   .     A
C339   H354    1.078   .     S
C340   H355    1.083   .     S
C340   C341    1.396   .     A
C341   C342    1.397   .     A
C342   C343    1.399   .     A
C343   H466    1.083   1_455 S
C344   C348    1.400   .     A
C345   C349    1.382   .     A
C345   C822    1.422   1_554 S
C345   C832    1.420   1_554 S
C346   C347    1.382   .     A
C346   C831    1.420   .     S
C347   C348    1.374   .     A
C347   H361    1.079   .     S
C348   H352    1.067   .     S
C349   H363    1.077   .     S
C350   C818    1.393   1_554 S
C350   C392    1.489   .     S
H351   C5      1.088   1_565 S
H356   C17     1.082   1_565 S
H357   C18     1.081   1_565 S
H358   C397    1.083   .     S
H359   N367    1.029   .     S
H360   N368    1.025   .     S
H364   C388    1.078   .     S
H366   C821    1.083   1_554 S
N367   N368    1.278   .     D
N367   Zn378   2.023   .     S
N368   Zn377   2.023   .     S
O369   Zn377   1.957   .     S
O369   C379    1.279   .     S
O370   Zn378   1.977   .     S
O371   Zn377   1.973   .     S
O371   C382    1.309   .     S
O372   Zn378   1.966   .     S
O373   Zn377   1.977   .     S
O374   Zn378   1.957   .     S
O374   C438    1.279   1_455 S
O375   Zn377   1.966   .     S
O376   Zn378   1.973   .     S
O376   C439    1.292   1_455 S
C379   O424    1.289   .     A
C379   C381    1.402   .     S
C380   C382    1.485   .     S
C380   C388    1.400   .     A
C380   C398    1.414   .     A
C381   C5      1.335   1_565 S
C381   H83     1.088   1_565 S
C382   O426    1.297   .     A
C383   C384    1.402   .     S
C384   O427    1.288   .     A
C384   O482    1.279   .     S
C385   O429    1.295   .     A
C385   C387    1.444   .     S
C385   O484    1.292   .     S
C386   C400    1.397   .     A
C386   H416    1.085   .     S
C386   C890    1.393   .     S
C387   C403    1.396   .     A
C387   C404    1.415   .     A
C388   C389    1.395   .     A
C389   C877    1.397   .     S
C389   H906    1.083   .     S
C390   C398    1.403   .     A
C390   C877    1.417   .     S
C390   C885    1.422   .     S
C391   H419    1.077   .     S
C391   C875    1.397   1_554 S
C391   C876    1.417   1_554 S
C392   C397    1.407   .     A
C392   C393    1.407   .     A
C393   C394    1.398   .     A
C393   H408    1.078   .     S
C394   H409    1.083   .     S
C394   C395    1.396   .     A
C395   C396    1.397   .     A
C396   C397    1.399   .     A
C398   C402    1.400   .     A
C399   C403    1.382   .     A
C399   C876    1.422   1_554 S
C399   C886    1.420   1_554 S
C400   C401    1.382   .     A
C400   C885    1.420   .     S
C401   C402    1.374   .     A
C401   H415    1.079   .     S
C402   H406    1.067   .     S
C403   H417    1.077   .     S
C404   C872    1.393   1_554 S
C404   C446    1.489   .     S
H405   C59     1.088   1_565 S
H410   C71     1.082   1_565 S
H411   C72     1.081   1_565 S
H412   C451    1.083   .     S
H413   N421    1.029   .     S
H414   N422    1.025   .     S
H418   C442    1.078   .     S
H420   C875    1.083   1_554 S
N421   N422    1.278   .     D
N421   Zn432   2.023   .     S
N422   Zn431   2.023   .     S
O423   Zn431   1.957   .     S
O423   C433    1.279   .     S
O424   Zn432   1.977   .     S
O425   Zn431   1.973   .     S
O425   C436    1.309   .     S
O426   Zn432   1.966   .     S
O427   Zn431   1.977   .     S
O428   Zn432   1.957   .     S
O429   Zn431   1.966   .     S
O430   Zn432   1.973   .     S
C433   O478    1.289   .     A
C433   C435    1.402   .     S
C434   C436    1.485   .     S
C434   C442    1.400   .     A
C434   C452    1.414   .     A
C435   C59     1.335   1_565 S
C435   H137    1.088   1_565 S
C436   O480    1.297   .     A
C437   C438    1.402   .     S
C437   C165    1.335   1_655 S
C438   O481    1.288   .     A
C438   O374    1.279   1_655 S
C439   O483    1.295   .     A
C439   C441    1.444   .     S
C439   O376    1.292   1_655 S
C440   C454    1.397   .     A
C440   H470    1.085   .     S
C440   C944    1.393   .     S
C441   C457    1.396   .     A
C441   C458    1.415   .     A
C442   C443    1.395   .     A
C443   C931    1.397   .     S
C443   H960    1.083   .     S
C444   C452    1.403   .     A
C444   C931    1.417   .     S
C444   C939    1.422   .     S
C445   H473    1.077   .     S
C445   C929    1.397   1_554 S
C445   C930    1.417   1_554 S
C446   C451    1.407   .     A
C446   C447    1.407   .     A
C447   C448    1.398   .     A
C447   H462    1.078   .     S
C448   H463    1.083   .     S
C448   C449    1.396   .     A
C449   C450    1.397   .     A
C450   C451    1.399   .     A
C452   C456    1.400   .     A
C453   C457    1.382   .     A
C453   C930    1.422   1_554 S
C453   C940    1.420   1_554 S
C454   C455    1.382   .     A
C454   C939    1.420   .     S
C455   C456    1.374   .     A
C455   H469    1.079   .     S
C456   H460    1.067   .     S
C457   H471    1.077   .     S
C458   C926    1.393   1_554 S
C458   C338    1.489   1_655 S
H459   C113    1.088   1_565 S
H464   C125    1.082   1_565 S
H465   C126    1.081   1_565 S
H466   C343    1.083   1_655 S
H467   N475    1.029   .     S
H468   N476    1.025   .     S
H472   C334    1.078   1_655 S
H474   C929    1.083   1_554 S
N475   N476    1.278   .     D
N475   Zn486   2.023   .     S
N476   Zn485   2.023   .     S
O477   Zn485   1.957   .     S
O477   C325    1.279   1_655 S
O478   Zn486   1.977   .     S
O479   Zn485   1.973   .     S
O479   C328    1.309   1_655 S
O480   Zn486   1.966   .     S
O481   Zn485   1.977   .     S
O482   Zn486   1.957   .     S
O483   Zn485   1.966   .     S
O484   Zn486   1.973   .     S
C487   O532    1.289   .     A
C487   C489    1.402   .     S
C487   O639    1.279   1_455 S
C488   C490    1.485   .     S
C488   C496    1.400   .     A
C488   C506    1.414   .     A
C489   C761    1.335   1_455 S
C489   H677    1.088   .     S
C490   O534    1.297   .     A
C490   O641    1.309   1_455 S
C491   C492    1.402   .     S
C491   C867    1.335   1_545 S
C491   H837    1.088   1_545 S
C492   O535    1.288   .     A
C492   O590    1.279   .     S
C493   O537    1.295   .     A
C493   C495    1.444   .     S
C493   O592    1.292   .     S
C494   C508    1.397   .     A
C494   H524    1.085   .     S
C494   C26     1.393   1_556 S
C495   C511    1.396   .     A
C495   C512    1.415   .     A
C496   C497    1.395   .     A
C496   H634    1.078   1_455 S
C497   C13     1.397   1_556 S
C497   H42     1.083   1_556 S
C498   C506    1.403   .     A
C498   C13     1.417   1_556 S
C498   C21     1.422   1_556 S
C499   H527    1.077   .     S
C500   C505    1.407   .     A
C500   C501    1.407   .     A
C500   C620    1.489   1_455 S
C501   C502    1.398   .     A
C501   H516    1.078   .     S
C502   H517    1.083   .     S
C502   C503    1.396   .     A
C503   C504    1.397   .     A
C503   H842    1.082   1_545 S
C504   C505    1.399   .     A
C504   H843    1.081   1_545 S
C505   H628    1.083   1_455 S
C506   C510    1.400   .     A
C507   C511    1.382   .     A
C508   C509    1.382   .     A
C508   C21     1.420   1_556 S
C509   C510    1.374   .     A
C509   H523    1.079   .     S
C510   H514    1.067   .     S
C511   H525    1.077   .     S
C512   C554    1.489   .     S
H513   C653    1.088   .     S
H515   C813    1.088   1_545 S
H518   C665    1.082   .     S
H519   C666    1.081   .     S
H520   C559    1.083   .     S
H521   N529    1.029   .     S
H522   N530    1.025   .     S
H526   C550    1.078   .     S
N529   N530    1.278   .     D
N529   Zn540   2.023   .     S
N530   Zn539   2.023   .     S
O531   Zn539   1.957   .     S
O531   C541    1.279   .     S
O532   Zn540   1.977   .     S
O533   Zn539   1.973   .     S
O533   C544    1.309   .     S
O534   Zn540   1.966   .     S
O535   Zn539   1.977   .     S
O536   Zn540   1.957   .     S
O536   C600    1.279   1_455 S
O537   Zn539   1.966   .     S
O538   Zn540   1.973   .     S
O538   C601    1.292   1_455 S
C541   O586    1.289   .     A
C541   C543    1.402   .     S
C542   C544    1.485   .     S
C542   C550    1.400   .     A
C542   C560    1.414   .     A
C543   C653    1.335   .     S
C543   H731    1.088   .     S
C544   O588    1.297   .     A
C545   C546    1.402   .     S
C545   C921    1.335   1_545 S
C545   H891    1.088   1_545 S
C546   O589    1.288   .     A
C546   O644    1.279   .     S
C547   O591    1.295   .     A
C547   C549    1.444   .     S
C547   O646    1.292   .     S
C548   C562    1.397   .     A
C548   H578    1.085   .     S
C548   C80     1.393   1_556 S
C549   C565    1.396   .     A
C549   C566    1.415   .     A
C550   C551    1.395   .     A
C551   C67     1.397   1_556 S
C551   H96     1.083   1_556 S
C552   C560    1.403   .     A
C552   C67     1.417   1_556 S
C552   C75     1.422   1_556 S
C553   H581    1.077   .     S
C554   C559    1.407   .     A
C554   C555    1.407   .     A
C555   C556    1.398   .     A
C555   H570    1.078   .     S
C556   H571    1.083   .     S
C556   C557    1.396   .     A
C557   C558    1.397   .     A
C557   H896    1.082   1_545 S
C558   C559    1.399   .     A
C558   H897    1.081   1_545 S
C560   C564    1.400   .     A
C561   C565    1.382   .     A
C562   C563    1.382   .     A
C562   C75     1.420   1_556 S
C563   C564    1.374   .     A
C563   H577    1.079   .     S
C564   H568    1.067   .     S
C565   H579    1.077   .     S
C566   C608    1.489   .     S
H567   C707    1.088   .     S
H569   C867    1.088   1_545 S
H572   C719    1.082   .     S
H573   C720    1.081   .     S
H574   C613    1.083   .     S
H575   N583    1.029   .     S
H576   N584    1.025   .     S
H580   C604    1.078   .     S
N583   N584    1.278   .     D
N583   Zn594   2.023   .     S
N584   Zn593   2.023   .     S
O585   Zn593   1.957   .     S
O585   C595    1.279   .     S
O586   Zn594   1.977   .     S
O587   Zn593   1.973   .     S
O587   C598    1.309   .     S
O588   Zn594   1.966   .     S
O589   Zn593   1.977   .     S
O590   Zn594   1.957   .     S
O591   Zn593   1.966   .     S
O592   Zn594   1.973   .     S
C595   O640    1.289   .     A
C595   C597    1.402   .     S
C596   C598    1.485   .     S
C596   C604    1.400   .     A
C596   C614    1.414   .     A
C597   C707    1.335   .     S
C597   H785    1.088   .     S
C598   O642    1.297   .     A
C599   C600    1.402   .     S
C599   C813    1.335   1_645 S
C599   H945    1.088   1_545 S
C600   O643    1.288   .     A
C600   O536    1.279   1_655 S
C601   O645    1.295   .     A
C601   C603    1.444   .     S
C601   O538    1.292   1_655 S
C602   C616    1.397   .     A
C602   H632    1.085   .     S
C602   C134    1.393   1_556 S
C603   C619    1.396   .     A
C603   C620    1.415   .     A
C604   C605    1.395   .     A
C605   C121    1.397   1_556 S
C605   H150    1.083   1_556 S
C606   C614    1.403   .     A
C606   C121    1.417   1_556 S
C606   C129    1.422   1_556 S
C607   H635    1.077   .     S
C608   C613    1.407   .     A
C608   C609    1.407   .     A
C609   C610    1.398   .     A
C609   H624    1.078   .     S
C610   H625    1.083   .     S
C610   C611    1.396   .     A
C611   C612    1.397   .     A
C611   H950    1.082   1_545 S
C612   C613    1.399   .     A
C612   H951    1.081   1_545 S
C614   C618    1.400   .     A
C615   C619    1.382   .     A
C616   C617    1.382   .     A
C616   C129    1.420   1_556 S
C617   C618    1.374   .     A
C617   H631    1.079   .     S
C618   H622    1.067   .     S
C619   H633    1.077   .     S
C620   C500    1.489   1_655 S
H621   C761    1.088   .     S
H623   C921    1.088   1_545 S
H626   C773    1.082   .     S
H627   C774    1.081   .     S
H628   C505    1.083   1_655 S
H629   N637    1.029   .     S
H630   N638    1.025   .     S
H634   C496    1.078   1_655 S
N637   N638    1.278   .     D
N637   Zn648   2.023   .     S
N638   Zn647   2.023   .     S
O639   Zn647   1.957   .     S
O639   C487    1.279   1_655 S
O640   Zn648   1.977   .     S
O641   Zn647   1.973   .     S
O641   C490    1.309   1_655 S
O642   Zn648   1.966   .     S
O643   Zn647   1.977   .     S
O644   Zn648   1.957   .     S
O645   Zn647   1.966   .     S
O646   Zn648   1.973   .     S
C649   O694    1.289   .     A
C649   C651    1.402   .     S
C649   O801    1.279   1_455 S
C650   C652    1.485   .     S
C650   C658    1.400   .     A
C650   C668    1.414   .     A
C651   C923    1.335   1_455 S
C651   H839    1.088   .     S
C652   O696    1.297   .     A
C652   O803    1.309   1_455 S
C653   C654    1.402   .     S
C654   O697    1.288   .     A
C654   O752    1.279   .     S
C655   O699    1.295   .     A
C655   C657    1.444   .     S
C655   O754    1.292   .     S
C656   C670    1.397   .     A
C656   H686    1.085   .     S
C656   C188    1.393   1_556 S
C657   C673    1.396   .     A
C657   C674    1.415   .     A
C658   C659    1.395   .     A
C658   H796    1.078   1_455 S
C659   C175    1.397   1_556 S
C659   H204    1.083   1_556 S
C660   C668    1.403   .     A
C660   C175    1.417   1_556 S
C660   C183    1.422   1_556 S
C661   H689    1.077   .     S
C662   C667    1.407   .     A
C662   C663    1.407   .     A
C662   C782    1.489   1_455 S
C663   C664    1.398   .     A
C663   H678    1.078   .     S
C664   H679    1.083   .     S
C664   C665    1.396   .     A
C665   C666    1.397   .     A
C666   C667    1.399   .     A
C667   H790    1.083   1_455 S
C668   C672    1.400   .     A
C669   C673    1.382   .     A
C670   C671    1.382   .     A
C670   C183    1.420   1_556 S
C671   C672    1.374   .     A
C671   H685    1.079   .     S
C672   H676    1.067   .     S
C673   H687    1.077   .     S
C674   C716    1.489   .     S
H675   C815    1.088   .     S
H680   C827    1.082   .     S
H681   C828    1.081   .     S
H682   C721    1.083   .     S
H683   N691    1.029   .     S
H684   N692    1.025   .     S
H688   C712    1.078   .     S
N691   N692    1.278   .     D
N691   Zn702   2.023   .     S
N692   Zn701   2.023   .     S
O693   Zn701   1.957   .     S
O693   C703    1.279   .     S
O694   Zn702   1.977   .     S
O695   Zn701   1.973   .     S
O695   C706    1.309   .     S
O696   Zn702   1.966   .     S
O697   Zn701   1.977   .     S
O698   Zn702   1.957   .     S
O698   C762    1.279   1_455 S
O699   Zn701   1.966   .     S
O700   Zn702   1.973   .     S
O700   C763    1.292   1_455 S
C703   O748    1.289   .     A
C703   C705    1.402   .     S
C704   C706    1.485   .     S
C704   C712    1.400   .     A
C704   C722    1.414   .     A
C705   C815    1.335   .     S
C705   H893    1.088   .     S
C706   O750    1.297   .     A
C707   C708    1.402   .     S
C708   O751    1.288   .     A
C708   O806    1.279   .     S
C709   O753    1.295   .     A
C709   C711    1.444   .     S
C709   O808    1.292   .     S
C710   C724    1.397   .     A
C710   H740    1.085   .     S
C710   C242    1.393   1_556 S
C711   C727    1.396   .     A
C711   C728    1.415   .     A
C712   C713    1.395   .     A
C713   C229    1.397   1_556 S
C713   H258    1.083   1_556 S
C714   C722    1.403   .     A
C714   C229    1.417   1_556 S
C714   C237    1.422   1_556 S
C715   H743    1.077   .     S
C716   C721    1.407   .     A
C716   C717    1.407   .     A
C717   C718    1.398   .     A
C717   H732    1.078   .     S
C718   H733    1.083   .     S
C718   C719    1.396   .     A
C719   C720    1.397   .     A
C720   C721    1.399   .     A
C722   C726    1.400   .     A
C723   C727    1.382   .     A
C724   C725    1.382   .     A
C724   C237    1.420   1_556 S
C725   C726    1.374   .     A
C725   H739    1.079   .     S
C726   H730    1.067   .     S
C727   H741    1.077   .     S
C728   C770    1.489   .     S
H729   C869    1.088   .     S
H734   C881    1.082   .     S
H735   C882    1.081   .     S
H736   C775    1.083   .     S
H737   N745    1.029   .     S
H738   N746    1.025   .     S
H742   C766    1.078   .     S
N745   N746    1.278   .     D
N745   Zn756   2.023   .     S
N746   Zn755   2.023   .     S
O747   Zn755   1.957   .     S
O747   C757    1.279   .     S
O748   Zn756   1.977   .     S
O749   Zn755   1.973   .     S
O749   C760    1.309   .     S
O750   Zn756   1.966   .     S
O751   Zn755   1.977   .     S
O752   Zn756   1.957   .     S
O753   Zn755   1.966   .     S
O754   Zn756   1.973   .     S
C757   O802    1.289   .     A
C757   C759    1.402   .     S
C758   C760    1.485   .     S
C758   C766    1.400   .     A
C758   C776    1.414   .     A
C759   C869    1.335   .     S
C759   H947    1.088   .     S
C760   O804    1.297   .     A
C761   C762    1.402   .     S
C761   C489    1.335   1_655 S
C762   O805    1.288   .     A
C762   O698    1.279   1_655 S
C763   O807    1.295   .     A
C763   C765    1.444   .     S
C763   O700    1.292   1_655 S
C764   C778    1.397   .     A
C764   H794    1.085   .     S
C764   C296    1.393   1_556 S
C765   C781    1.396   .     A
C765   C782    1.415   .     A
C766   C767    1.395   .     A
C767   C283    1.397   1_556 S
C767   H312    1.083   1_556 S
C768   C776    1.403   .     A
C768   C283    1.417   1_556 S
C768   C291    1.422   1_556 S
C769   H797    1.077   .     S
C770   C775    1.407   .     A
C770   C771    1.407   .     A
C771   C772    1.398   .     A
C771   H786    1.078   .     S
C772   H787    1.083   .     S
C772   C773    1.396   .     A
C773   C774    1.397   .     A
C774   C775    1.399   .     A
C776   C780    1.400   .     A
C777   C781    1.382   .     A
C778   C779    1.382   .     A
C778   C291    1.420   1_556 S
C779   C780    1.374   .     A
C779   H793    1.079   .     S
C780   H784    1.067   .     S
C781   H795    1.077   .     S
C782   C662    1.489   1_655 S
H783   C923    1.088   .     S
H788   C935    1.082   .     S
H789   C936    1.081   .     S
H790   C667    1.083   1_655 S
H791   N799    1.029   .     S
H792   N800    1.025   .     S
H796   C658    1.078   1_655 S
N799   N800    1.278   .     D
N799   Zn810   2.023   .     S
N800   Zn809   2.023   .     S
O801   Zn809   1.957   .     S
O801   C649    1.279   1_655 S
O802   Zn810   1.977   .     S
O803   Zn809   1.973   .     S
O803   C652    1.309   1_655 S
O804   Zn810   1.966   .     S
O805   Zn809   1.977   .     S
O806   Zn810   1.957   .     S
O807   Zn809   1.966   .     S
O808   Zn810   1.973   .     S
C811   O856    1.289   .     A
C811   C813    1.402   .     S
C811   O963    1.279   1_455 S
C812   C814    1.485   .     S
C812   C820    1.400   .     A
C812   C830    1.414   .     A
C813   C599    1.335   1_465 S
C813   H515    1.088   1_565 S
C814   O858    1.297   .     A
C814   O965    1.309   1_455 S
C815   C816    1.402   .     S
C816   O859    1.288   .     A
C816   O914    1.279   .     S
C817   O861    1.295   .     A
C817   C819    1.444   .     S
C817   O916    1.292   .     S
C818   C832    1.397   .     A
C818   H848    1.085   .     S
C818   C350    1.393   1_556 S
C819   C835    1.396   .     A
C819   C836    1.415   .     A
C820   C821    1.395   .     A
C820   H958    1.078   1_455 S
C821   C337    1.397   1_556 S
C821   H366    1.083   1_556 S
C822   C830    1.403   .     A
C822   C337    1.417   1_556 S
C822   C345    1.422   1_556 S
C823   H851    1.077   .     S
C824   C829    1.407   .     A
C824   C825    1.407   .     A
C824   C944    1.489   1_455 S
C825   C826    1.398   .     A
C825   H840    1.078   .     S
C826   H841    1.083   .     S
C826   C827    1.396   .     A
C827   C828    1.397   .     A
C828   C829    1.399   .     A
C829   H952    1.083   1_455 S
C830   C834    1.400   .     A
C831   C835    1.382   .     A
C832   C833    1.382   .     A
C832   C345    1.420   1_556 S
C833   C834    1.374   .     A
C833   H847    1.079   .     S
C834   H838    1.067   .     S
C835   H849    1.077   .     S
C836   C878    1.489   .     S
H837   C491    1.088   1_565 S
H842   C503    1.082   1_565 S
H843   C504    1.081   1_565 S
H844   C883    1.083   .     S
H845   N853    1.029   .     S
H846   N854    1.025   .     S
H850   C874    1.078   .     S
N853   N854    1.278   .     D
N853   Zn864   2.023   .     S
N854   Zn863   2.023   .     S
O855   Zn863   1.957   .     S
O855   C865    1.279   .     S
O856   Zn864   1.977   .     S
O857   Zn863   1.973   .     S
O857   C868    1.309   .     S
O858   Zn864   1.966   .     S
O859   Zn863   1.977   .     S
O860   Zn864   1.957   .     S
O860   C924    1.279   1_455 S
O861   Zn863   1.966   .     S
O862   Zn864   1.973   .     S
O862   C925    1.292   1_455 S
C865   O910    1.289   .     A
C865   C867    1.402   .     S
C866   C868    1.485   .     S
C866   C874    1.400   .     A
C866   C884    1.414   .     A
C867   C491    1.335   1_565 S
C867   H569    1.088   1_565 S
C868   O912    1.297   .     A
C869   C870    1.402   .     S
C870   O913    1.288   .     A
C870   O968    1.279   .     S
C871   O915    1.295   .     A
C871   C873    1.444   .     S
C871   O970    1.292   .     S
C872   C886    1.397   .     A
C872   H902    1.085   .     S
C872   C404    1.393   1_556 S
C873   C889    1.396   .     A
C873   C890    1.415   .     A
C874   C875    1.395   .     A
C875   C391    1.397   1_556 S
C875   H420    1.083   1_556 S
C876   C884    1.403   .     A
C876   C391    1.417   1_556 S
C876   C399    1.422   1_556 S
C877   H905    1.077   .     S
C878   C883    1.407   .     A
C878   C879    1.407   .     A
C879   C880    1.398   .     A
C879   H894    1.078   .     S
C880   H895    1.083   .     S
C880   C881    1.396   .     A
C881   C882    1.397   .     A
C882   C883    1.399   .     A
C884   C888    1.400   .     A
C885   C889    1.382   .     A
C886   C887    1.382   .     A
C886   C399    1.420   1_556 S
C887   C888    1.374   .     A
C887   H901    1.079   .     S
C888   H892    1.067   .     S
C889   H903    1.077   .     S
C890   C932    1.489   .     S
H891   C545    1.088   1_565 S
H896   C557    1.082   1_565 S
H897   C558    1.081   1_565 S
H898   C937    1.083   .     S
H899   N907    1.029   .     S
H900   N908    1.025   .     S
H904   C928    1.078   .     S
N907   N908    1.278   .     D
N907   Zn918   2.023   .     S
N908   Zn917   2.023   .     S
O909   Zn917   1.957   .     S
O909   C919    1.279   .     S
O910   Zn918   1.977   .     S
O911   Zn917   1.973   .     S
O911   C922    1.309   .     S
O912   Zn918   1.966   .     S
O913   Zn917   1.977   .     S
O914   Zn918   1.957   .     S
O915   Zn917   1.966   .     S
O916   Zn918   1.973   .     S
C919   O964    1.289   .     A
C919   C921    1.402   .     S
C920   C922    1.485   .     S
C920   C928    1.400   .     A
C920   C938    1.414   .     A
C921   C545    1.335   1_565 S
C921   H623    1.088   1_565 S
C922   O966    1.297   .     A
C923   C924    1.402   .     S
C923   C651    1.335   1_655 S
C924   O967    1.288   .     A
C924   O860    1.279   1_655 S
C925   O969    1.295   .     A
C925   C927    1.444   .     S
C925   O862    1.292   1_655 S
C926   C940    1.397   .     A
C926   H956    1.085   .     S
C926   C458    1.393   1_556 S
C927   C943    1.396   .     A
C927   C944    1.415   .     A
C928   C929    1.395   .     A
C929   C445    1.397   1_556 S
C929   H474    1.083   1_556 S
C930   C938    1.403   .     A
C930   C445    1.417   1_556 S
C930   C453    1.422   1_556 S
C931   H959    1.077   .     S
C932   C937    1.407   .     A
C932   C933    1.407   .     A
C933   C934    1.398   .     A
C933   H948    1.078   .     S
C934   H949    1.083   .     S
C934   C935    1.396   .     A
C935   C936    1.397   .     A
C936   C937    1.399   .     A
C938   C942    1.400   .     A
C939   C943    1.382   .     A
C940   C941    1.382   .     A
C940   C453    1.420   1_556 S
C941   C942    1.374   .     A
C941   H955    1.079   .     S
C942   H946    1.067   .     S
C943   H957    1.077   .     S
C944   C824    1.489   1_655 S
H945   C599    1.088   1_565 S
H950   C611    1.082   1_565 S
H951   C612    1.081   1_565 S
H952   C829    1.083   1_655 S
H953   N961    1.029   .     S
H954   N962    1.025   .     S
H958   C820    1.078   1_655 S
N961   N962    1.278   .     D
N961   Zn972   2.023   .     S
N962   Zn971   2.023   .     S
O963   Zn971   1.957   .     S
O963   C811    1.279   1_655 S
O964   Zn972   1.977   .     S
O965   Zn971   1.973   .     S
O965   C814    1.309   1_655 S
O966   Zn972   1.966   .     S
O967   Zn971   1.977   .     S
O968   Zn972   1.957   .     S
O969   Zn971   1.966   .     S
O970   Zn972   1.973   .     S
