data_str_m3_o2_o10_pcu_sym.132
_audit_creation_date              2020-01-03
_audit_creation_method            'Materials Studio'
_symmetry_space_group_name_H-M    'P1'
_symmetry_Int_Tables_number       1
_symmetry_cell_setting            triclinic
loop_
_symmetry_equiv_pos_as_xyz
  x,y,z
_cell_length_a                    25.7199
_cell_length_b                    29.9111
_cell_length_c                    28.5297
_cell_angle_alpha                 89.3087
_cell_angle_beta                  98.1316
_cell_angle_gamma                 91.1621
loop_
_atom_site_label
_atom_site_type_symbol
_atom_site_fract_x
_atom_site_fract_y
_atom_site_fract_z
_atom_site_U_iso_or_equiv
_atom_site_adp_type
_atom_site_occupancy
C1     C     0.16834   0.16401   0.25045   0.00000  Uiso   1.00
C2     C     0.16588   0.33577   0.24968   0.00000  Uiso   1.00
C3     C     0.12502   0.22855   0.04800   0.00000  Uiso   1.00
C4     C     0.18858   0.28574   0.44977   0.00000  Uiso   1.00
C5     C     0.12683   0.22858   0.09775   0.00000  Uiso   1.00
C6     C     0.18949   0.28466   0.40046   0.00000  Uiso   1.00
C7     C     0.20620   0.27113   0.10563   0.00000  Uiso   1.00
C8     C     0.14327   0.21530   0.39583   0.00000  Uiso   1.00
C9     C     0.20607   0.27033   0.05630   0.00000  Uiso   1.00
C10    C     0.14302   0.21493   0.44519   0.00000  Uiso   1.00
C11    C     0.16504   0.24985   0.02631   0.00000  Uiso   1.00
C12    C     0.16516   0.25044   0.47318   0.00000  Uiso   1.00
C13    C     0.06715   0.24882   0.23774   0.00000  Uiso   1.00
C14    C     0.26620   0.24997   0.26232   0.00000  Uiso   1.00
C15    C     0.01217   0.24630   0.23136   0.00000  Uiso   1.00
C16    C     0.32119   0.25055   0.26902   0.00000  Uiso   1.00
C17    C     0.19956   0.04589   0.28771   0.00000  Uiso   1.00
C18    C     0.11880   0.45285   0.24500   0.00000  Uiso   1.00
C19    C     0.20190   0.09251   0.28812   0.00000  Uiso   1.00
C20    C     0.11687   0.40629   0.24496   0.00000  Uiso   1.00
C21    C     0.17126   0.11599   0.25098   0.00000  Uiso   1.00
C22    C     0.16477   0.38340   0.24920   0.00000  Uiso   1.00
C23    C     0.14176   0.09325   0.21338   0.00000  Uiso   1.00
C24    C     0.21297   0.40612   0.25259   0.00000  Uiso   1.00
C25    C     0.14119   0.04727   0.21268   0.00000  Uiso   1.00
C26    C     0.21437   0.45220   0.25221   0.00000  Uiso   1.00
C27    C     0.16942   0.02367   0.24997   0.00000  Uiso   1.00
C28    C     0.16747   0.47546   0.24901   0.00000  Uiso   1.00
H29    H     0.32516   0.24073   0.19586   0.00000  Uiso   1.00
H30    H     0.00817   0.25540   0.30476   0.00000  Uiso   1.00
H31    H     0.11853   0.11115   0.18474   0.00000  Uiso   1.00
H32    H     0.24941   0.38806   0.25570   0.00000  Uiso   1.00
H33    H     0.11845   0.02998   0.18322   0.00000  Uiso   1.00
H34    H     0.25191   0.46976   0.25457   0.00000  Uiso   1.00
H35    H     0.09202   0.21224   0.02677   0.00000  Uiso   1.00
H36    H     0.20591   0.31445   0.46921   0.00000  Uiso   1.00
H37    H     0.23832   0.28620   0.04141   0.00000  Uiso   1.00
H38    H     0.12553   0.18656   0.46151   0.00000  Uiso   1.00
N39    N     0.16667   0.24999   0.12623   0.00000  Uiso   1.00
N40    N     0.16667   0.25001   0.37376   0.00000  Uiso   1.00
O41    O     0.16667   0.18454   0.28974   0.00000  Uiso   1.00
O42    O     0.16666   0.31547   0.21026   0.00000  Uiso   1.00
O43    O     0.16667   0.18453   0.21026   0.00000  Uiso   1.00
O44    O     0.16666   0.31547   0.28974   0.00000  Uiso   1.00
O45    O     0.09058   0.25000   0.28045   0.00000  Uiso   1.00
O46    O     0.24275   0.25000   0.21955   0.00000  Uiso   1.00
O47    O     0.09058   0.25000   0.20097   0.00000  Uiso   1.00
O48    O     0.24275   0.25001   0.29903   0.00000  Uiso   1.00
Zn49   Zn    0.16667   0.25001   0.30307   0.00000  Uiso   1.00
Zn50   Zn    0.16667   0.25000   0.19693   0.00000  Uiso   1.00
F51    F     0.22721   0.02199   0.32336   0.00000  Uiso   1.00
F52    F     0.07378   0.47627   0.24339   0.00000  Uiso   1.00
C53    C     0.23839   0.11529   0.32589   0.00000  Uiso   1.00
O54    O     0.26396   0.14826   0.31640   0.00000  Uiso   1.00
O55    O     0.24472   0.09822   0.37215   0.00000  Uiso   1.00
H56    H     0.27076   0.11648   0.39455   0.00000  Uiso   1.00
C57    C     0.06498   0.38278   0.24040   0.00000  Uiso   1.00
O58    O     0.05931   0.34837   0.26278   0.00000  Uiso   1.00
O59    O     0.02217   0.40053   0.21086   0.00000  Uiso   1.00
H60    H     0.32259   0.38118   0.21000   0.00000  Uiso   1.00
F61    F     0.08821   0.20704   0.11730   0.00000  Uiso   1.00
F62    F     0.21352   0.31864   0.37956   0.00000  Uiso   1.00
C63    C     0.25029   0.29609   0.13298   0.00000  Uiso   1.00
O64    O     0.24229   0.32348   0.16229   0.00000  Uiso   1.00
O65    O     0.30114   0.29121   0.12190   0.00000  Uiso   1.00
H66    H     0.32793   0.31113   0.14164   0.00000  Uiso   1.00
C67    C     0.11770   0.17701   0.36941   0.00000  Uiso   1.00
O68    O     0.13464   0.13945   0.37801   0.00000  Uiso   1.00
O69    O     0.07230   0.18302   0.33710   0.00000  Uiso   1.00
H70    H     0.05805   0.15403   0.32178   0.00000  Uiso   1.00
C71    C     0.50167   0.16401   0.25045   0.00000  Uiso   1.00
C72    C     0.49921   0.33577   0.24968   0.00000  Uiso   1.00
C73    C     0.45835   0.22855   0.04800   0.00000  Uiso   1.00
C74    C     0.52192   0.28574   0.44977   0.00000  Uiso   1.00
C75    C     0.46016   0.22858   0.09775   0.00000  Uiso   1.00
C76    C     0.52282   0.28466   0.40046   0.00000  Uiso   1.00
C77    C     0.53954   0.27113   0.10563   0.00000  Uiso   1.00
C78    C     0.47660   0.21530   0.39583   0.00000  Uiso   1.00
C79    C     0.53941   0.27033   0.05630   0.00000  Uiso   1.00
C80    C     0.47635   0.21493   0.44519   0.00000  Uiso   1.00
C81    C     0.49837   0.24985   0.02631   0.00000  Uiso   1.00
C82    C     0.49849   0.25044   0.47318   0.00000  Uiso   1.00
C83    C     0.40048   0.24882   0.23774   0.00000  Uiso   1.00
C84    C     0.59953   0.24997   0.26232   0.00000  Uiso   1.00
C85    C     0.34551   0.24630   0.23136   0.00000  Uiso   1.00
C86    C     0.65452   0.25055   0.26902   0.00000  Uiso   1.00
C87    C     0.53290   0.04589   0.28771   0.00000  Uiso   1.00
C88    C     0.45214   0.45285   0.24500   0.00000  Uiso   1.00
C89    C     0.53523   0.09251   0.28812   0.00000  Uiso   1.00
C90    C     0.45021   0.40629   0.24496   0.00000  Uiso   1.00
C91    C     0.50460   0.11599   0.25098   0.00000  Uiso   1.00
C92    C     0.49810   0.38340   0.24920   0.00000  Uiso   1.00
C93    C     0.47510   0.09325   0.21338   0.00000  Uiso   1.00
C94    C     0.54630   0.40612   0.25259   0.00000  Uiso   1.00
C95    C     0.47452   0.04727   0.21268   0.00000  Uiso   1.00
C96    C     0.54770   0.45220   0.25221   0.00000  Uiso   1.00
C97    C     0.50275   0.02367   0.24997   0.00000  Uiso   1.00
C98    C     0.50080   0.47546   0.24901   0.00000  Uiso   1.00
H99    H     0.65849   0.24073   0.19586   0.00000  Uiso   1.00
H100   H     0.34150   0.25540   0.30476   0.00000  Uiso   1.00
H101   H     0.45186   0.11115   0.18474   0.00000  Uiso   1.00
H102   H     0.58275   0.38806   0.25570   0.00000  Uiso   1.00
H103   H     0.45178   0.02998   0.18322   0.00000  Uiso   1.00
H104   H     0.58524   0.46976   0.25457   0.00000  Uiso   1.00
H105   H     0.42535   0.21224   0.02677   0.00000  Uiso   1.00
H106   H     0.53924   0.31445   0.46921   0.00000  Uiso   1.00
H107   H     0.57165   0.28620   0.04141   0.00000  Uiso   1.00
H108   H     0.45886   0.18656   0.46151   0.00000  Uiso   1.00
N109   N     0.50000   0.24999   0.12623   0.00000  Uiso   1.00
N110   N     0.50000   0.25001   0.37376   0.00000  Uiso   1.00
O111   O     0.50000   0.18454   0.28974   0.00000  Uiso   1.00
O112   O     0.50000   0.31547   0.21026   0.00000  Uiso   1.00
O113   O     0.50000   0.18453   0.21026   0.00000  Uiso   1.00
O114   O     0.50000   0.31547   0.28974   0.00000  Uiso   1.00
O115   O     0.42392   0.25000   0.28045   0.00000  Uiso   1.00
O116   O     0.57608   0.25000   0.21955   0.00000  Uiso   1.00
O117   O     0.42392   0.25000   0.20097   0.00000  Uiso   1.00
O118   O     0.57608   0.25001   0.29903   0.00000  Uiso   1.00
Zn119  Zn    0.50000   0.25001   0.30307   0.00000  Uiso   1.00
Zn120  Zn    0.50000   0.25000   0.19693   0.00000  Uiso   1.00
F121   F     0.56054   0.02199   0.32336   0.00000  Uiso   1.00
F122   F     0.40712   0.47627   0.24339   0.00000  Uiso   1.00
C123   C     0.57173   0.11529   0.32589   0.00000  Uiso   1.00
O124   O     0.59729   0.14826   0.31640   0.00000  Uiso   1.00
O125   O     0.57805   0.09822   0.37215   0.00000  Uiso   1.00
H126   H     0.60409   0.11648   0.39455   0.00000  Uiso   1.00
C127   C     0.39831   0.38278   0.24040   0.00000  Uiso   1.00
O128   O     0.39264   0.34837   0.26278   0.00000  Uiso   1.00
O129   O     0.35551   0.40053   0.21086   0.00000  Uiso   1.00
H130   H     0.65593   0.38118   0.21000   0.00000  Uiso   1.00
F131   F     0.42154   0.20704   0.11730   0.00000  Uiso   1.00
F132   F     0.54685   0.31864   0.37956   0.00000  Uiso   1.00
C133   C     0.58363   0.29609   0.13298   0.00000  Uiso   1.00
O134   O     0.57562   0.32348   0.16229   0.00000  Uiso   1.00
O135   O     0.63447   0.29121   0.12190   0.00000  Uiso   1.00
H136   H     0.66127   0.31113   0.14164   0.00000  Uiso   1.00
C137   C     0.45103   0.17701   0.36941   0.00000  Uiso   1.00
O138   O     0.46797   0.13945   0.37801   0.00000  Uiso   1.00
O139   O     0.40564   0.18302   0.33710   0.00000  Uiso   1.00
H140   H     0.39138   0.15403   0.32178   0.00000  Uiso   1.00
C141   C     0.83501   0.16401   0.25045   0.00000  Uiso   1.00
C142   C     0.83254   0.33577   0.24968   0.00000  Uiso   1.00
C143   C     0.79168   0.22855   0.04800   0.00000  Uiso   1.00
C144   C     0.85525   0.28574   0.44977   0.00000  Uiso   1.00
C145   C     0.79349   0.22858   0.09775   0.00000  Uiso   1.00
C146   C     0.85616   0.28466   0.40046   0.00000  Uiso   1.00
C147   C     0.87287   0.27113   0.10563   0.00000  Uiso   1.00
C148   C     0.80993   0.21530   0.39583   0.00000  Uiso   1.00
C149   C     0.87274   0.27033   0.05630   0.00000  Uiso   1.00
C150   C     0.80968   0.21493   0.44519   0.00000  Uiso   1.00
C151   C     0.83171   0.24985   0.02631   0.00000  Uiso   1.00
C152   C     0.83183   0.25044   0.47318   0.00000  Uiso   1.00
C153   C     0.73381   0.24882   0.23774   0.00000  Uiso   1.00
C154   C     0.93286   0.24997   0.26232   0.00000  Uiso   1.00
C155   C     0.67884   0.24630   0.23136   0.00000  Uiso   1.00
C156   C     0.98785   0.25055   0.26902   0.00000  Uiso   1.00
C157   C     0.86623   0.04589   0.28771   0.00000  Uiso   1.00
C158   C     0.78547   0.45285   0.24500   0.00000  Uiso   1.00
C159   C     0.86857   0.09251   0.28812   0.00000  Uiso   1.00
C160   C     0.78354   0.40629   0.24496   0.00000  Uiso   1.00
C161   C     0.83793   0.11599   0.25098   0.00000  Uiso   1.00
C162   C     0.83143   0.38340   0.24920   0.00000  Uiso   1.00
C163   C     0.80843   0.09325   0.21338   0.00000  Uiso   1.00
C164   C     0.87963   0.40612   0.25259   0.00000  Uiso   1.00
C165   C     0.80785   0.04727   0.21268   0.00000  Uiso   1.00
C166   C     0.88104   0.45220   0.25221   0.00000  Uiso   1.00
C167   C     0.83609   0.02367   0.24997   0.00000  Uiso   1.00
C168   C     0.83414   0.47546   0.24901   0.00000  Uiso   1.00
H169   H     0.99183   0.24073   0.19586   0.00000  Uiso   1.00
H170   H     0.67484   0.25540   0.30476   0.00000  Uiso   1.00
H171   H     0.78519   0.11115   0.18474   0.00000  Uiso   1.00
H172   H     0.91608   0.38806   0.25570   0.00000  Uiso   1.00
H173   H     0.78512   0.02998   0.18322   0.00000  Uiso   1.00
H174   H     0.91857   0.46976   0.25457   0.00000  Uiso   1.00
H175   H     0.75868   0.21224   0.02677   0.00000  Uiso   1.00
H176   H     0.87257   0.31445   0.46921   0.00000  Uiso   1.00
H177   H     0.90499   0.28620   0.04141   0.00000  Uiso   1.00
H178   H     0.79220   0.18656   0.46151   0.00000  Uiso   1.00
N179   N     0.83333   0.24999   0.12623   0.00000  Uiso   1.00
N180   N     0.83333   0.25001   0.37376   0.00000  Uiso   1.00
O181   O     0.83334   0.18454   0.28974   0.00000  Uiso   1.00
O182   O     0.83333   0.31547   0.21026   0.00000  Uiso   1.00
O183   O     0.83334   0.18453   0.21026   0.00000  Uiso   1.00
O184   O     0.83333   0.31547   0.28974   0.00000  Uiso   1.00
O185   O     0.75725   0.25000   0.28045   0.00000  Uiso   1.00
O186   O     0.90942   0.25000   0.21955   0.00000  Uiso   1.00
O187   O     0.75725   0.25000   0.20097   0.00000  Uiso   1.00
O188   O     0.90942   0.25001   0.29903   0.00000  Uiso   1.00
Zn189  Zn    0.83333   0.25001   0.30307   0.00000  Uiso   1.00
Zn190  Zn    0.83333   0.25000   0.19693   0.00000  Uiso   1.00
F191   F     0.89387   0.02199   0.32336   0.00000  Uiso   1.00
F192   F     0.74045   0.47627   0.24339   0.00000  Uiso   1.00
C193   C     0.90506   0.11529   0.32589   0.00000  Uiso   1.00
O194   O     0.93062   0.14826   0.31640   0.00000  Uiso   1.00
O195   O     0.91139   0.09822   0.37215   0.00000  Uiso   1.00
H196   H     0.93743   0.11648   0.39455   0.00000  Uiso   1.00
C197   C     0.73165   0.38278   0.24040   0.00000  Uiso   1.00
O198   O     0.72597   0.34837   0.26278   0.00000  Uiso   1.00
O199   O     0.68884   0.40053   0.21086   0.00000  Uiso   1.00
H200   H     0.98926   0.38118   0.21000   0.00000  Uiso   1.00
F201   F     0.75488   0.20704   0.11730   0.00000  Uiso   1.00
F202   F     0.88019   0.31864   0.37956   0.00000  Uiso   1.00
C203   C     0.91696   0.29609   0.13298   0.00000  Uiso   1.00
O204   O     0.90896   0.32348   0.16229   0.00000  Uiso   1.00
O205   O     0.96781   0.29121   0.12190   0.00000  Uiso   1.00
H206   H     0.99460   0.31113   0.14164   0.00000  Uiso   1.00
C207   C     0.78437   0.17701   0.36941   0.00000  Uiso   1.00
O208   O     0.80130   0.13945   0.37801   0.00000  Uiso   1.00
O209   O     0.73897   0.18302   0.33710   0.00000  Uiso   1.00
H210   H     0.72471   0.15403   0.32178   0.00000  Uiso   1.00
C211   C     0.16834   0.66401   0.25045   0.00000  Uiso   1.00
C212   C     0.16588   0.83577   0.24968   0.00000  Uiso   1.00
C213   C     0.12502   0.72855   0.04800   0.00000  Uiso   1.00
C214   C     0.18858   0.78574   0.44977   0.00000  Uiso   1.00
C215   C     0.12683   0.72858   0.09775   0.00000  Uiso   1.00
C216   C     0.18949   0.78466   0.40046   0.00000  Uiso   1.00
C217   C     0.20620   0.77113   0.10563   0.00000  Uiso   1.00
C218   C     0.14327   0.71530   0.39583   0.00000  Uiso   1.00
C219   C     0.20607   0.77033   0.05630   0.00000  Uiso   1.00
C220   C     0.14302   0.71493   0.44519   0.00000  Uiso   1.00
C221   C     0.16504   0.74985   0.02631   0.00000  Uiso   1.00
C222   C     0.16516   0.75044   0.47318   0.00000  Uiso   1.00
C223   C     0.06715   0.74882   0.23774   0.00000  Uiso   1.00
C224   C     0.26620   0.74997   0.26232   0.00000  Uiso   1.00
C225   C     0.01217   0.74630   0.23136   0.00000  Uiso   1.00
C226   C     0.32119   0.75055   0.26902   0.00000  Uiso   1.00
C227   C     0.19956   0.54589   0.28771   0.00000  Uiso   1.00
C228   C     0.11880   0.95285   0.24500   0.00000  Uiso   1.00
C229   C     0.20190   0.59251   0.28812   0.00000  Uiso   1.00
C230   C     0.11687   0.90629   0.24496   0.00000  Uiso   1.00
C231   C     0.17126   0.61599   0.25098   0.00000  Uiso   1.00
C232   C     0.16477   0.88340   0.24920   0.00000  Uiso   1.00
C233   C     0.14176   0.59325   0.21338   0.00000  Uiso   1.00
C234   C     0.21297   0.90612   0.25259   0.00000  Uiso   1.00
C235   C     0.14119   0.54727   0.21268   0.00000  Uiso   1.00
C236   C     0.21437   0.95220   0.25221   0.00000  Uiso   1.00
C237   C     0.16942   0.52367   0.24997   0.00000  Uiso   1.00
C238   C     0.16747   0.97546   0.24901   0.00000  Uiso   1.00
H239   H     0.32516   0.74073   0.19586   0.00000  Uiso   1.00
H240   H     0.00817   0.75540   0.30476   0.00000  Uiso   1.00
H241   H     0.11853   0.61115   0.18474   0.00000  Uiso   1.00
H242   H     0.24941   0.88806   0.25570   0.00000  Uiso   1.00
H243   H     0.11845   0.52998   0.18322   0.00000  Uiso   1.00
H244   H     0.25191   0.96976   0.25457   0.00000  Uiso   1.00
H245   H     0.09202   0.71224   0.02677   0.00000  Uiso   1.00
H246   H     0.20591   0.81445   0.46921   0.00000  Uiso   1.00
H247   H     0.23832   0.78620   0.04141   0.00000  Uiso   1.00
H248   H     0.12553   0.68656   0.46151   0.00000  Uiso   1.00
N249   N     0.16667   0.74999   0.12623   0.00000  Uiso   1.00
N250   N     0.16667   0.75001   0.37376   0.00000  Uiso   1.00
O251   O     0.16667   0.68454   0.28974   0.00000  Uiso   1.00
O252   O     0.16666   0.81547   0.21026   0.00000  Uiso   1.00
O253   O     0.16667   0.68453   0.21026   0.00000  Uiso   1.00
O254   O     0.16666   0.81547   0.28974   0.00000  Uiso   1.00
O255   O     0.09058   0.75000   0.28045   0.00000  Uiso   1.00
O256   O     0.24275   0.75000   0.21955   0.00000  Uiso   1.00
O257   O     0.09058   0.75000   0.20097   0.00000  Uiso   1.00
O258   O     0.24275   0.75001   0.29903   0.00000  Uiso   1.00
Zn259  Zn    0.16667   0.75001   0.30307   0.00000  Uiso   1.00
Zn260  Zn    0.16667   0.75000   0.19693   0.00000  Uiso   1.00
F261   F     0.22721   0.52199   0.32336   0.00000  Uiso   1.00
F262   F     0.07378   0.97627   0.24339   0.00000  Uiso   1.00
C263   C     0.23839   0.61529   0.32589   0.00000  Uiso   1.00
O264   O     0.26396   0.64826   0.31640   0.00000  Uiso   1.00
O265   O     0.24472   0.59822   0.37215   0.00000  Uiso   1.00
H266   H     0.27076   0.61648   0.39455   0.00000  Uiso   1.00
C267   C     0.06498   0.88278   0.24040   0.00000  Uiso   1.00
O268   O     0.05931   0.84837   0.26278   0.00000  Uiso   1.00
O269   O     0.02217   0.90053   0.21086   0.00000  Uiso   1.00
H270   H     0.32259   0.88118   0.21000   0.00000  Uiso   1.00
F271   F     0.08821   0.70704   0.11730   0.00000  Uiso   1.00
F272   F     0.21352   0.81864   0.37956   0.00000  Uiso   1.00
C273   C     0.25029   0.79609   0.13298   0.00000  Uiso   1.00
O274   O     0.24229   0.82348   0.16229   0.00000  Uiso   1.00
O275   O     0.30114   0.79121   0.12190   0.00000  Uiso   1.00
H276   H     0.32793   0.81113   0.14164   0.00000  Uiso   1.00
C277   C     0.11770   0.67701   0.36941   0.00000  Uiso   1.00
O278   O     0.13464   0.63945   0.37801   0.00000  Uiso   1.00
O279   O     0.07230   0.68302   0.33710   0.00000  Uiso   1.00
H280   H     0.05805   0.65403   0.32178   0.00000  Uiso   1.00
C281   C     0.50167   0.66401   0.25045   0.00000  Uiso   1.00
C282   C     0.49921   0.83577   0.24968   0.00000  Uiso   1.00
C283   C     0.45835   0.72855   0.04800   0.00000  Uiso   1.00
C284   C     0.52192   0.78574   0.44977   0.00000  Uiso   1.00
C285   C     0.46016   0.72858   0.09775   0.00000  Uiso   1.00
C286   C     0.52282   0.78466   0.40046   0.00000  Uiso   1.00
C287   C     0.53954   0.77113   0.10563   0.00000  Uiso   1.00
C288   C     0.47660   0.71530   0.39583   0.00000  Uiso   1.00
C289   C     0.53941   0.77033   0.05630   0.00000  Uiso   1.00
C290   C     0.47635   0.71493   0.44519   0.00000  Uiso   1.00
C291   C     0.49837   0.74985   0.02631   0.00000  Uiso   1.00
C292   C     0.49849   0.75044   0.47318   0.00000  Uiso   1.00
C293   C     0.40048   0.74882   0.23774   0.00000  Uiso   1.00
C294   C     0.59953   0.74997   0.26232   0.00000  Uiso   1.00
C295   C     0.34551   0.74630   0.23136   0.00000  Uiso   1.00
C296   C     0.65452   0.75055   0.26902   0.00000  Uiso   1.00
C297   C     0.53290   0.54589   0.28771   0.00000  Uiso   1.00
C298   C     0.45214   0.95285   0.24500   0.00000  Uiso   1.00
C299   C     0.53523   0.59251   0.28812   0.00000  Uiso   1.00
C300   C     0.45021   0.90629   0.24496   0.00000  Uiso   1.00
C301   C     0.50460   0.61599   0.25098   0.00000  Uiso   1.00
C302   C     0.49810   0.88340   0.24920   0.00000  Uiso   1.00
C303   C     0.47510   0.59325   0.21338   0.00000  Uiso   1.00
C304   C     0.54630   0.90612   0.25259   0.00000  Uiso   1.00
C305   C     0.47452   0.54727   0.21268   0.00000  Uiso   1.00
C306   C     0.54770   0.95220   0.25221   0.00000  Uiso   1.00
C307   C     0.50275   0.52367   0.24997   0.00000  Uiso   1.00
C308   C     0.50080   0.97546   0.24901   0.00000  Uiso   1.00
H309   H     0.65849   0.74073   0.19586   0.00000  Uiso   1.00
H310   H     0.34150   0.75540   0.30476   0.00000  Uiso   1.00
H311   H     0.45186   0.61115   0.18474   0.00000  Uiso   1.00
H312   H     0.58275   0.88806   0.25570   0.00000  Uiso   1.00
H313   H     0.45178   0.52998   0.18322   0.00000  Uiso   1.00
H314   H     0.58524   0.96976   0.25457   0.00000  Uiso   1.00
H315   H     0.42535   0.71224   0.02677   0.00000  Uiso   1.00
H316   H     0.53924   0.81445   0.46921   0.00000  Uiso   1.00
H317   H     0.57165   0.78620   0.04141   0.00000  Uiso   1.00
H318   H     0.45886   0.68656   0.46151   0.00000  Uiso   1.00
N319   N     0.50000   0.74999   0.12623   0.00000  Uiso   1.00
N320   N     0.50000   0.75001   0.37376   0.00000  Uiso   1.00
O321   O     0.50000   0.68454   0.28974   0.00000  Uiso   1.00
O322   O     0.50000   0.81547   0.21026   0.00000  Uiso   1.00
O323   O     0.50000   0.68453   0.21026   0.00000  Uiso   1.00
O324   O     0.50000   0.81547   0.28974   0.00000  Uiso   1.00
O325   O     0.42392   0.75000   0.28045   0.00000  Uiso   1.00
O326   O     0.57608   0.75000   0.21955   0.00000  Uiso   1.00
O327   O     0.42392   0.75000   0.20097   0.00000  Uiso   1.00
O328   O     0.57608   0.75001   0.29903   0.00000  Uiso   1.00
Zn329  Zn    0.50000   0.75001   0.30307   0.00000  Uiso   1.00
Zn330  Zn    0.50000   0.75000   0.19693   0.00000  Uiso   1.00
F331   F     0.56054   0.52199   0.32336   0.00000  Uiso   1.00
F332   F     0.40712   0.97627   0.24339   0.00000  Uiso   1.00
C333   C     0.57173   0.61529   0.32589   0.00000  Uiso   1.00
O334   O     0.59729   0.64826   0.31640   0.00000  Uiso   1.00
O335   O     0.57805   0.59822   0.37215   0.00000  Uiso   1.00
H336   H     0.60409   0.61648   0.39455   0.00000  Uiso   1.00
C337   C     0.39831   0.88278   0.24040   0.00000  Uiso   1.00
O338   O     0.39264   0.84837   0.26278   0.00000  Uiso   1.00
O339   O     0.35551   0.90053   0.21086   0.00000  Uiso   1.00
H340   H     0.65593   0.88118   0.21000   0.00000  Uiso   1.00
F341   F     0.42154   0.70704   0.11730   0.00000  Uiso   1.00
F342   F     0.54685   0.81864   0.37956   0.00000  Uiso   1.00
C343   C     0.58363   0.79609   0.13298   0.00000  Uiso   1.00
O344   O     0.57562   0.82348   0.16229   0.00000  Uiso   1.00
O345   O     0.63447   0.79121   0.12190   0.00000  Uiso   1.00
H346   H     0.66127   0.81113   0.14164   0.00000  Uiso   1.00
C347   C     0.45103   0.67701   0.36941   0.00000  Uiso   1.00
O348   O     0.46797   0.63945   0.37801   0.00000  Uiso   1.00
O349   O     0.40564   0.68302   0.33710   0.00000  Uiso   1.00
H350   H     0.39138   0.65403   0.32178   0.00000  Uiso   1.00
C351   C     0.83501   0.66401   0.25045   0.00000  Uiso   1.00
C352   C     0.83254   0.83577   0.24968   0.00000  Uiso   1.00
C353   C     0.79168   0.72855   0.04800   0.00000  Uiso   1.00
C354   C     0.85525   0.78574   0.44977   0.00000  Uiso   1.00
C355   C     0.79349   0.72858   0.09775   0.00000  Uiso   1.00
C356   C     0.85616   0.78466   0.40046   0.00000  Uiso   1.00
C357   C     0.87287   0.77113   0.10563   0.00000  Uiso   1.00
C358   C     0.80993   0.71530   0.39583   0.00000  Uiso   1.00
C359   C     0.87274   0.77033   0.05630   0.00000  Uiso   1.00
C360   C     0.80968   0.71493   0.44519   0.00000  Uiso   1.00
C361   C     0.83171   0.74985   0.02631   0.00000  Uiso   1.00
C362   C     0.83183   0.75044   0.47318   0.00000  Uiso   1.00
C363   C     0.73381   0.74882   0.23774   0.00000  Uiso   1.00
C364   C     0.93286   0.74997   0.26232   0.00000  Uiso   1.00
C365   C     0.67884   0.74630   0.23136   0.00000  Uiso   1.00
C366   C     0.98785   0.75055   0.26902   0.00000  Uiso   1.00
C367   C     0.86623   0.54589   0.28771   0.00000  Uiso   1.00
C368   C     0.78547   0.95285   0.24500   0.00000  Uiso   1.00
C369   C     0.86857   0.59251   0.28812   0.00000  Uiso   1.00
C370   C     0.78354   0.90629   0.24496   0.00000  Uiso   1.00
C371   C     0.83793   0.61599   0.25098   0.00000  Uiso   1.00
C372   C     0.83143   0.88340   0.24920   0.00000  Uiso   1.00
C373   C     0.80843   0.59325   0.21338   0.00000  Uiso   1.00
C374   C     0.87963   0.90612   0.25259   0.00000  Uiso   1.00
C375   C     0.80785   0.54727   0.21268   0.00000  Uiso   1.00
C376   C     0.88104   0.95220   0.25221   0.00000  Uiso   1.00
C377   C     0.83609   0.52367   0.24997   0.00000  Uiso   1.00
C378   C     0.83414   0.97546   0.24901   0.00000  Uiso   1.00
H379   H     0.99183   0.74073   0.19586   0.00000  Uiso   1.00
H380   H     0.67484   0.75540   0.30476   0.00000  Uiso   1.00
H381   H     0.78519   0.61115   0.18474   0.00000  Uiso   1.00
H382   H     0.91608   0.88806   0.25570   0.00000  Uiso   1.00
H383   H     0.78512   0.52998   0.18322   0.00000  Uiso   1.00
H384   H     0.91857   0.96976   0.25457   0.00000  Uiso   1.00
H385   H     0.75868   0.71224   0.02677   0.00000  Uiso   1.00
H386   H     0.87257   0.81445   0.46921   0.00000  Uiso   1.00
H387   H     0.90499   0.78620   0.04141   0.00000  Uiso   1.00
H388   H     0.79220   0.68656   0.46151   0.00000  Uiso   1.00
N389   N     0.83333   0.74999   0.12623   0.00000  Uiso   1.00
N390   N     0.83333   0.75001   0.37376   0.00000  Uiso   1.00
O391   O     0.83334   0.68454   0.28974   0.00000  Uiso   1.00
O392   O     0.83333   0.81547   0.21026   0.00000  Uiso   1.00
O393   O     0.83334   0.68453   0.21026   0.00000  Uiso   1.00
O394   O     0.83333   0.81547   0.28974   0.00000  Uiso   1.00
O395   O     0.75725   0.75000   0.28045   0.00000  Uiso   1.00
O396   O     0.90942   0.75000   0.21955   0.00000  Uiso   1.00
O397   O     0.75725   0.75000   0.20097   0.00000  Uiso   1.00
O398   O     0.90942   0.75001   0.29903   0.00000  Uiso   1.00
Zn399  Zn    0.83333   0.75001   0.30307   0.00000  Uiso   1.00
Zn400  Zn    0.83333   0.75000   0.19693   0.00000  Uiso   1.00
F401   F     0.89387   0.52199   0.32336   0.00000  Uiso   1.00
F402   F     0.74045   0.97627   0.24339   0.00000  Uiso   1.00
C403   C     0.90506   0.61529   0.32589   0.00000  Uiso   1.00
O404   O     0.93062   0.64826   0.31640   0.00000  Uiso   1.00
O405   O     0.91139   0.59822   0.37215   0.00000  Uiso   1.00
H406   H     0.93743   0.61648   0.39455   0.00000  Uiso   1.00
C407   C     0.73165   0.88278   0.24040   0.00000  Uiso   1.00
O408   O     0.72597   0.84837   0.26278   0.00000  Uiso   1.00
O409   O     0.68884   0.90053   0.21086   0.00000  Uiso   1.00
H410   H     0.98926   0.88118   0.21000   0.00000  Uiso   1.00
F411   F     0.75488   0.70704   0.11730   0.00000  Uiso   1.00
F412   F     0.88019   0.81864   0.37956   0.00000  Uiso   1.00
C413   C     0.91696   0.79609   0.13298   0.00000  Uiso   1.00
O414   O     0.90896   0.82348   0.16229   0.00000  Uiso   1.00
O415   O     0.96781   0.79121   0.12190   0.00000  Uiso   1.00
H416   H     0.99460   0.81113   0.14164   0.00000  Uiso   1.00
C417   C     0.78437   0.67701   0.36941   0.00000  Uiso   1.00
O418   O     0.80130   0.63945   0.37801   0.00000  Uiso   1.00
O419   O     0.73897   0.68302   0.33710   0.00000  Uiso   1.00
H420   H     0.72471   0.65403   0.32178   0.00000  Uiso   1.00
C421   C     0.16834   0.16401   0.75045   0.00000  Uiso   1.00
C422   C     0.16588   0.33577   0.74968   0.00000  Uiso   1.00
C423   C     0.12502   0.22855   0.54800   0.00000  Uiso   1.00
C424   C     0.18858   0.28574   0.94977   0.00000  Uiso   1.00
C425   C     0.12683   0.22858   0.59775   0.00000  Uiso   1.00
C426   C     0.18949   0.28466   0.90046   0.00000  Uiso   1.00
C427   C     0.20620   0.27113   0.60563   0.00000  Uiso   1.00
C428   C     0.14327   0.21530   0.89583   0.00000  Uiso   1.00
C429   C     0.20607   0.27033   0.55630   0.00000  Uiso   1.00
C430   C     0.14302   0.21493   0.94519   0.00000  Uiso   1.00
C431   C     0.16504   0.24985   0.52631   0.00000  Uiso   1.00
C432   C     0.16516   0.25044   0.97318   0.00000  Uiso   1.00
C433   C     0.06715   0.24882   0.73774   0.00000  Uiso   1.00
C434   C     0.26620   0.24997   0.76232   0.00000  Uiso   1.00
C435   C     0.01217   0.24630   0.73136   0.00000  Uiso   1.00
C436   C     0.32119   0.25055   0.76902   0.00000  Uiso   1.00
C437   C     0.19956   0.04589   0.78771   0.00000  Uiso   1.00
C438   C     0.11880   0.45285   0.74500   0.00000  Uiso   1.00
C439   C     0.20190   0.09251   0.78812   0.00000  Uiso   1.00
C440   C     0.11687   0.40629   0.74496   0.00000  Uiso   1.00
C441   C     0.17126   0.11599   0.75098   0.00000  Uiso   1.00
C442   C     0.16477   0.38340   0.74920   0.00000  Uiso   1.00
C443   C     0.14176   0.09325   0.71338   0.00000  Uiso   1.00
C444   C     0.21297   0.40612   0.75259   0.00000  Uiso   1.00
C445   C     0.14119   0.04727   0.71268   0.00000  Uiso   1.00
C446   C     0.21437   0.45220   0.75221   0.00000  Uiso   1.00
C447   C     0.16942   0.02367   0.74997   0.00000  Uiso   1.00
C448   C     0.16747   0.47546   0.74901   0.00000  Uiso   1.00
H449   H     0.32516   0.24073   0.69586   0.00000  Uiso   1.00
H450   H     0.00817   0.25540   0.80476   0.00000  Uiso   1.00
H451   H     0.11853   0.11115   0.68474   0.00000  Uiso   1.00
H452   H     0.24941   0.38806   0.75570   0.00000  Uiso   1.00
H453   H     0.11845   0.02998   0.68322   0.00000  Uiso   1.00
H454   H     0.25191   0.46976   0.75457   0.00000  Uiso   1.00
H455   H     0.09202   0.21224   0.52677   0.00000  Uiso   1.00
H456   H     0.20591   0.31445   0.96921   0.00000  Uiso   1.00
H457   H     0.23832   0.28620   0.54141   0.00000  Uiso   1.00
H458   H     0.12553   0.18656   0.96151   0.00000  Uiso   1.00
N459   N     0.16667   0.24999   0.62623   0.00000  Uiso   1.00
N460   N     0.16667   0.25001   0.87376   0.00000  Uiso   1.00
O461   O     0.16667   0.18454   0.78974   0.00000  Uiso   1.00
O462   O     0.16666   0.31547   0.71026   0.00000  Uiso   1.00
O463   O     0.16667   0.18453   0.71026   0.00000  Uiso   1.00
O464   O     0.16666   0.31547   0.78974   0.00000  Uiso   1.00
O465   O     0.09058   0.25000   0.78045   0.00000  Uiso   1.00
O466   O     0.24275   0.25000   0.71955   0.00000  Uiso   1.00
O467   O     0.09058   0.25000   0.70097   0.00000  Uiso   1.00
O468   O     0.24275   0.25001   0.79903   0.00000  Uiso   1.00
Zn469  Zn    0.16667   0.25001   0.80307   0.00000  Uiso   1.00
Zn470  Zn    0.16667   0.25000   0.69693   0.00000  Uiso   1.00
F471   F     0.22721   0.02199   0.82336   0.00000  Uiso   1.00
F472   F     0.07378   0.47627   0.74339   0.00000  Uiso   1.00
C473   C     0.23839   0.11529   0.82589   0.00000  Uiso   1.00
O474   O     0.26396   0.14826   0.81640   0.00000  Uiso   1.00
O475   O     0.24472   0.09822   0.87215   0.00000  Uiso   1.00
H476   H     0.27076   0.11648   0.89455   0.00000  Uiso   1.00
C477   C     0.06498   0.38278   0.74040   0.00000  Uiso   1.00
O478   O     0.05931   0.34837   0.76278   0.00000  Uiso   1.00
O479   O     0.02217   0.40053   0.71086   0.00000  Uiso   1.00
H480   H     0.32259   0.38118   0.71000   0.00000  Uiso   1.00
F481   F     0.08821   0.20704   0.61730   0.00000  Uiso   1.00
F482   F     0.21352   0.31864   0.87956   0.00000  Uiso   1.00
C483   C     0.25029   0.29609   0.63298   0.00000  Uiso   1.00
O484   O     0.24229   0.32348   0.66229   0.00000  Uiso   1.00
O485   O     0.30114   0.29121   0.62190   0.00000  Uiso   1.00
H486   H     0.32793   0.31113   0.64164   0.00000  Uiso   1.00
C487   C     0.11770   0.17701   0.86941   0.00000  Uiso   1.00
O488   O     0.13464   0.13945   0.87801   0.00000  Uiso   1.00
O489   O     0.07230   0.18302   0.83710   0.00000  Uiso   1.00
H490   H     0.05805   0.15403   0.82178   0.00000  Uiso   1.00
C491   C     0.50167   0.16401   0.75045   0.00000  Uiso   1.00
C492   C     0.49921   0.33577   0.74968   0.00000  Uiso   1.00
C493   C     0.45835   0.22855   0.54800   0.00000  Uiso   1.00
C494   C     0.52192   0.28574   0.94977   0.00000  Uiso   1.00
C495   C     0.46016   0.22858   0.59775   0.00000  Uiso   1.00
C496   C     0.52282   0.28466   0.90046   0.00000  Uiso   1.00
C497   C     0.53954   0.27113   0.60563   0.00000  Uiso   1.00
C498   C     0.47660   0.21530   0.89583   0.00000  Uiso   1.00
C499   C     0.53941   0.27033   0.55630   0.00000  Uiso   1.00
C500   C     0.47635   0.21493   0.94519   0.00000  Uiso   1.00
C501   C     0.49837   0.24985   0.52631   0.00000  Uiso   1.00
C502   C     0.49849   0.25044   0.97318   0.00000  Uiso   1.00
C503   C     0.40048   0.24882   0.73774   0.00000  Uiso   1.00
C504   C     0.59953   0.24997   0.76232   0.00000  Uiso   1.00
C505   C     0.34551   0.24630   0.73136   0.00000  Uiso   1.00
C506   C     0.65452   0.25055   0.76902   0.00000  Uiso   1.00
C507   C     0.53290   0.04589   0.78771   0.00000  Uiso   1.00
C508   C     0.45214   0.45285   0.74500   0.00000  Uiso   1.00
C509   C     0.53523   0.09251   0.78812   0.00000  Uiso   1.00
C510   C     0.45021   0.40629   0.74496   0.00000  Uiso   1.00
C511   C     0.50460   0.11599   0.75098   0.00000  Uiso   1.00
C512   C     0.49810   0.38340   0.74920   0.00000  Uiso   1.00
C513   C     0.47510   0.09325   0.71338   0.00000  Uiso   1.00
C514   C     0.54630   0.40612   0.75259   0.00000  Uiso   1.00
C515   C     0.47452   0.04727   0.71268   0.00000  Uiso   1.00
C516   C     0.54770   0.45220   0.75221   0.00000  Uiso   1.00
C517   C     0.50275   0.02367   0.74997   0.00000  Uiso   1.00
C518   C     0.50080   0.47546   0.74901   0.00000  Uiso   1.00
H519   H     0.65849   0.24073   0.69586   0.00000  Uiso   1.00
H520   H     0.34150   0.25540   0.80476   0.00000  Uiso   1.00
H521   H     0.45186   0.11115   0.68474   0.00000  Uiso   1.00
H522   H     0.58275   0.38806   0.75570   0.00000  Uiso   1.00
H523   H     0.45178   0.02998   0.68322   0.00000  Uiso   1.00
H524   H     0.58524   0.46976   0.75457   0.00000  Uiso   1.00
H525   H     0.42535   0.21224   0.52677   0.00000  Uiso   1.00
H526   H     0.53924   0.31445   0.96921   0.00000  Uiso   1.00
H527   H     0.57165   0.28620   0.54141   0.00000  Uiso   1.00
H528   H     0.45886   0.18656   0.96151   0.00000  Uiso   1.00
N529   N     0.50000   0.24999   0.62623   0.00000  Uiso   1.00
N530   N     0.50000   0.25001   0.87376   0.00000  Uiso   1.00
O531   O     0.50000   0.18454   0.78974   0.00000  Uiso   1.00
O532   O     0.50000   0.31547   0.71026   0.00000  Uiso   1.00
O533   O     0.50000   0.18453   0.71026   0.00000  Uiso   1.00
O534   O     0.50000   0.31547   0.78974   0.00000  Uiso   1.00
O535   O     0.42392   0.25000   0.78045   0.00000  Uiso   1.00
O536   O     0.57608   0.25000   0.71955   0.00000  Uiso   1.00
O537   O     0.42392   0.25000   0.70097   0.00000  Uiso   1.00
O538   O     0.57608   0.25001   0.79903   0.00000  Uiso   1.00
Zn539  Zn    0.50000   0.25001   0.80307   0.00000  Uiso   1.00
Zn540  Zn    0.50000   0.25000   0.69693   0.00000  Uiso   1.00
F541   F     0.56054   0.02199   0.82336   0.00000  Uiso   1.00
F542   F     0.40712   0.47627   0.74339   0.00000  Uiso   1.00
C543   C     0.57173   0.11529   0.82589   0.00000  Uiso   1.00
O544   O     0.59729   0.14826   0.81640   0.00000  Uiso   1.00
O545   O     0.57805   0.09822   0.87215   0.00000  Uiso   1.00
H546   H     0.60409   0.11648   0.89455   0.00000  Uiso   1.00
C547   C     0.39831   0.38278   0.74040   0.00000  Uiso   1.00
O548   O     0.39264   0.34837   0.76278   0.00000  Uiso   1.00
O549   O     0.35551   0.40053   0.71086   0.00000  Uiso   1.00
H550   H     0.65593   0.38118   0.71000   0.00000  Uiso   1.00
F551   F     0.42154   0.20704   0.61730   0.00000  Uiso   1.00
F552   F     0.54685   0.31864   0.87956   0.00000  Uiso   1.00
C553   C     0.58363   0.29609   0.63298   0.00000  Uiso   1.00
O554   O     0.57562   0.32348   0.66229   0.00000  Uiso   1.00
O555   O     0.63447   0.29121   0.62190   0.00000  Uiso   1.00
H556   H     0.66127   0.31113   0.64164   0.00000  Uiso   1.00
C557   C     0.45103   0.17701   0.86941   0.00000  Uiso   1.00
O558   O     0.46797   0.13945   0.87801   0.00000  Uiso   1.00
O559   O     0.40564   0.18302   0.83710   0.00000  Uiso   1.00
H560   H     0.39138   0.15403   0.82178   0.00000  Uiso   1.00
C561   C     0.83501   0.16401   0.75045   0.00000  Uiso   1.00
C562   C     0.83254   0.33577   0.74968   0.00000  Uiso   1.00
C563   C     0.79168   0.22855   0.54800   0.00000  Uiso   1.00
C564   C     0.85525   0.28574   0.94977   0.00000  Uiso   1.00
C565   C     0.79349   0.22858   0.59775   0.00000  Uiso   1.00
C566   C     0.85616   0.28466   0.90046   0.00000  Uiso   1.00
C567   C     0.87287   0.27113   0.60563   0.00000  Uiso   1.00
C568   C     0.80993   0.21530   0.89583   0.00000  Uiso   1.00
C569   C     0.87274   0.27033   0.55630   0.00000  Uiso   1.00
C570   C     0.80968   0.21493   0.94519   0.00000  Uiso   1.00
C571   C     0.83171   0.24985   0.52631   0.00000  Uiso   1.00
C572   C     0.83183   0.25044   0.97318   0.00000  Uiso   1.00
C573   C     0.73381   0.24882   0.73774   0.00000  Uiso   1.00
C574   C     0.93286   0.24997   0.76232   0.00000  Uiso   1.00
C575   C     0.67884   0.24630   0.73136   0.00000  Uiso   1.00
C576   C     0.98785   0.25055   0.76902   0.00000  Uiso   1.00
C577   C     0.86623   0.04589   0.78771   0.00000  Uiso   1.00
C578   C     0.78547   0.45285   0.74500   0.00000  Uiso   1.00
C579   C     0.86857   0.09251   0.78812   0.00000  Uiso   1.00
C580   C     0.78354   0.40629   0.74496   0.00000  Uiso   1.00
C581   C     0.83793   0.11599   0.75098   0.00000  Uiso   1.00
C582   C     0.83143   0.38340   0.74920   0.00000  Uiso   1.00
C583   C     0.80843   0.09325   0.71338   0.00000  Uiso   1.00
C584   C     0.87963   0.40612   0.75259   0.00000  Uiso   1.00
C585   C     0.80785   0.04727   0.71268   0.00000  Uiso   1.00
C586   C     0.88104   0.45220   0.75221   0.00000  Uiso   1.00
C587   C     0.83609   0.02367   0.74997   0.00000  Uiso   1.00
C588   C     0.83414   0.47546   0.74901   0.00000  Uiso   1.00
H589   H     0.99183   0.24073   0.69586   0.00000  Uiso   1.00
H590   H     0.67484   0.25540   0.80476   0.00000  Uiso   1.00
H591   H     0.78519   0.11115   0.68474   0.00000  Uiso   1.00
H592   H     0.91608   0.38806   0.75570   0.00000  Uiso   1.00
H593   H     0.78512   0.02998   0.68322   0.00000  Uiso   1.00
H594   H     0.91857   0.46976   0.75457   0.00000  Uiso   1.00
H595   H     0.75868   0.21224   0.52677   0.00000  Uiso   1.00
H596   H     0.87257   0.31445   0.96921   0.00000  Uiso   1.00
H597   H     0.90499   0.28620   0.54141   0.00000  Uiso   1.00
H598   H     0.79220   0.18656   0.96151   0.00000  Uiso   1.00
N599   N     0.83333   0.24999   0.62623   0.00000  Uiso   1.00
N600   N     0.83333   0.25001   0.87376   0.00000  Uiso   1.00
O601   O     0.83334   0.18454   0.78974   0.00000  Uiso   1.00
O602   O     0.83333   0.31547   0.71026   0.00000  Uiso   1.00
O603   O     0.83334   0.18453   0.71026   0.00000  Uiso   1.00
O604   O     0.83333   0.31547   0.78974   0.00000  Uiso   1.00
O605   O     0.75725   0.25000   0.78045   0.00000  Uiso   1.00
O606   O     0.90942   0.25000   0.71955   0.00000  Uiso   1.00
O607   O     0.75725   0.25000   0.70097   0.00000  Uiso   1.00
O608   O     0.90942   0.25001   0.79903   0.00000  Uiso   1.00
Zn609  Zn    0.83333   0.25001   0.80307   0.00000  Uiso   1.00
Zn610  Zn    0.83333   0.25000   0.69693   0.00000  Uiso   1.00
F611   F     0.89387   0.02199   0.82336   0.00000  Uiso   1.00
F612   F     0.74045   0.47627   0.74339   0.00000  Uiso   1.00
C613   C     0.90506   0.11529   0.82589   0.00000  Uiso   1.00
O614   O     0.93062   0.14826   0.81640   0.00000  Uiso   1.00
O615   O     0.91139   0.09822   0.87215   0.00000  Uiso   1.00
H616   H     0.93743   0.11648   0.89455   0.00000  Uiso   1.00
C617   C     0.73165   0.38278   0.74040   0.00000  Uiso   1.00
O618   O     0.72597   0.34837   0.76278   0.00000  Uiso   1.00
O619   O     0.68884   0.40053   0.71086   0.00000  Uiso   1.00
H620   H     0.98926   0.38118   0.71000   0.00000  Uiso   1.00
F621   F     0.75488   0.20704   0.61730   0.00000  Uiso   1.00
F622   F     0.88019   0.31864   0.87956   0.00000  Uiso   1.00
C623   C     0.91696   0.29609   0.63298   0.00000  Uiso   1.00
O624   O     0.90896   0.32348   0.66229   0.00000  Uiso   1.00
O625   O     0.96781   0.29121   0.62190   0.00000  Uiso   1.00
H626   H     0.99460   0.31113   0.64164   0.00000  Uiso   1.00
C627   C     0.78437   0.17701   0.86941   0.00000  Uiso   1.00
O628   O     0.80130   0.13945   0.87801   0.00000  Uiso   1.00
O629   O     0.73897   0.18302   0.83710   0.00000  Uiso   1.00
H630   H     0.72471   0.15403   0.82178   0.00000  Uiso   1.00
C631   C     0.16834   0.66401   0.75045   0.00000  Uiso   1.00
C632   C     0.16588   0.83577   0.74968   0.00000  Uiso   1.00
C633   C     0.12502   0.72855   0.54800   0.00000  Uiso   1.00
C634   C     0.18858   0.78574   0.94977   0.00000  Uiso   1.00
C635   C     0.12683   0.72858   0.59775   0.00000  Uiso   1.00
C636   C     0.18949   0.78466   0.90046   0.00000  Uiso   1.00
C637   C     0.20620   0.77113   0.60563   0.00000  Uiso   1.00
C638   C     0.14327   0.71530   0.89583   0.00000  Uiso   1.00
C639   C     0.20607   0.77033   0.55630   0.00000  Uiso   1.00
C640   C     0.14302   0.71493   0.94519   0.00000  Uiso   1.00
C641   C     0.16504   0.74985   0.52631   0.00000  Uiso   1.00
C642   C     0.16516   0.75044   0.97318   0.00000  Uiso   1.00
C643   C     0.06715   0.74882   0.73774   0.00000  Uiso   1.00
C644   C     0.26620   0.74997   0.76232   0.00000  Uiso   1.00
C645   C     0.01217   0.74630   0.73136   0.00000  Uiso   1.00
C646   C     0.32119   0.75055   0.76902   0.00000  Uiso   1.00
C647   C     0.19956   0.54589   0.78771   0.00000  Uiso   1.00
C648   C     0.11880   0.95285   0.74500   0.00000  Uiso   1.00
C649   C     0.20190   0.59251   0.78812   0.00000  Uiso   1.00
C650   C     0.11687   0.90629   0.74496   0.00000  Uiso   1.00
C651   C     0.17126   0.61599   0.75098   0.00000  Uiso   1.00
C652   C     0.16477   0.88340   0.74920   0.00000  Uiso   1.00
C653   C     0.14176   0.59325   0.71338   0.00000  Uiso   1.00
C654   C     0.21297   0.90612   0.75259   0.00000  Uiso   1.00
C655   C     0.14119   0.54727   0.71268   0.00000  Uiso   1.00
C656   C     0.21437   0.95220   0.75221   0.00000  Uiso   1.00
C657   C     0.16942   0.52367   0.74997   0.00000  Uiso   1.00
C658   C     0.16747   0.97546   0.74901   0.00000  Uiso   1.00
H659   H     0.32516   0.74073   0.69586   0.00000  Uiso   1.00
H660   H     0.00817   0.75540   0.80476   0.00000  Uiso   1.00
H661   H     0.11853   0.61115   0.68474   0.00000  Uiso   1.00
H662   H     0.24941   0.88806   0.75570   0.00000  Uiso   1.00
H663   H     0.11845   0.52998   0.68322   0.00000  Uiso   1.00
H664   H     0.25191   0.96976   0.75457   0.00000  Uiso   1.00
H665   H     0.09202   0.71224   0.52677   0.00000  Uiso   1.00
H666   H     0.20591   0.81445   0.96921   0.00000  Uiso   1.00
H667   H     0.23832   0.78620   0.54141   0.00000  Uiso   1.00
H668   H     0.12553   0.68656   0.96151   0.00000  Uiso   1.00
N669   N     0.16667   0.74999   0.62623   0.00000  Uiso   1.00
N670   N     0.16667   0.75001   0.87376   0.00000  Uiso   1.00
O671   O     0.16667   0.68454   0.78974   0.00000  Uiso   1.00
O672   O     0.16666   0.81547   0.71026   0.00000  Uiso   1.00
O673   O     0.16667   0.68453   0.71026   0.00000  Uiso   1.00
O674   O     0.16666   0.81547   0.78974   0.00000  Uiso   1.00
O675   O     0.09058   0.75000   0.78045   0.00000  Uiso   1.00
O676   O     0.24275   0.75000   0.71955   0.00000  Uiso   1.00
O677   O     0.09058   0.75000   0.70097   0.00000  Uiso   1.00
O678   O     0.24275   0.75001   0.79903   0.00000  Uiso   1.00
Zn679  Zn    0.16667   0.75001   0.80307   0.00000  Uiso   1.00
Zn680  Zn    0.16667   0.75000   0.69693   0.00000  Uiso   1.00
F681   F     0.22721   0.52199   0.82336   0.00000  Uiso   1.00
F682   F     0.07378   0.97627   0.74339   0.00000  Uiso   1.00
C683   C     0.23839   0.61529   0.82589   0.00000  Uiso   1.00
O684   O     0.26396   0.64826   0.81640   0.00000  Uiso   1.00
O685   O     0.24472   0.59822   0.87215   0.00000  Uiso   1.00
H686   H     0.27076   0.61648   0.89455   0.00000  Uiso   1.00
C687   C     0.06498   0.88278   0.74040   0.00000  Uiso   1.00
O688   O     0.05931   0.84837   0.76278   0.00000  Uiso   1.00
O689   O     0.02217   0.90053   0.71086   0.00000  Uiso   1.00
H690   H     0.32259   0.88118   0.71000   0.00000  Uiso   1.00
F691   F     0.08821   0.70704   0.61730   0.00000  Uiso   1.00
F692   F     0.21352   0.81864   0.87956   0.00000  Uiso   1.00
C693   C     0.25029   0.79609   0.63298   0.00000  Uiso   1.00
O694   O     0.24229   0.82348   0.66229   0.00000  Uiso   1.00
O695   O     0.30114   0.79121   0.62190   0.00000  Uiso   1.00
H696   H     0.32793   0.81113   0.64164   0.00000  Uiso   1.00
C697   C     0.11770   0.67701   0.86941   0.00000  Uiso   1.00
O698   O     0.13464   0.63945   0.87801   0.00000  Uiso   1.00
O699   O     0.07230   0.68302   0.83710   0.00000  Uiso   1.00
H700   H     0.05805   0.65403   0.82178   0.00000  Uiso   1.00
C701   C     0.50167   0.66401   0.75045   0.00000  Uiso   1.00
C702   C     0.49921   0.83577   0.74968   0.00000  Uiso   1.00
C703   C     0.45835   0.72855   0.54800   0.00000  Uiso   1.00
C704   C     0.52192   0.78574   0.94977   0.00000  Uiso   1.00
C705   C     0.46016   0.72858   0.59775   0.00000  Uiso   1.00
C706   C     0.52282   0.78466   0.90046   0.00000  Uiso   1.00
C707   C     0.53954   0.77113   0.60563   0.00000  Uiso   1.00
C708   C     0.47660   0.71530   0.89583   0.00000  Uiso   1.00
C709   C     0.53941   0.77033   0.55630   0.00000  Uiso   1.00
C710   C     0.47635   0.71493   0.94519   0.00000  Uiso   1.00
C711   C     0.49837   0.74985   0.52631   0.00000  Uiso   1.00
C712   C     0.49849   0.75044   0.97318   0.00000  Uiso   1.00
C713   C     0.40048   0.74882   0.73774   0.00000  Uiso   1.00
C714   C     0.59953   0.74997   0.76232   0.00000  Uiso   1.00
C715   C     0.34551   0.74630   0.73136   0.00000  Uiso   1.00
C716   C     0.65452   0.75055   0.76902   0.00000  Uiso   1.00
C717   C     0.53290   0.54589   0.78771   0.00000  Uiso   1.00
C718   C     0.45214   0.95285   0.74500   0.00000  Uiso   1.00
C719   C     0.53523   0.59251   0.78812   0.00000  Uiso   1.00
C720   C     0.45021   0.90629   0.74496   0.00000  Uiso   1.00
C721   C     0.50460   0.61599   0.75098   0.00000  Uiso   1.00
C722   C     0.49810   0.88340   0.74920   0.00000  Uiso   1.00
C723   C     0.47510   0.59325   0.71338   0.00000  Uiso   1.00
C724   C     0.54630   0.90612   0.75259   0.00000  Uiso   1.00
C725   C     0.47452   0.54727   0.71268   0.00000  Uiso   1.00
C726   C     0.54770   0.95220   0.75221   0.00000  Uiso   1.00
C727   C     0.50275   0.52367   0.74997   0.00000  Uiso   1.00
C728   C     0.50080   0.97546   0.74901   0.00000  Uiso   1.00
H729   H     0.65849   0.74073   0.69586   0.00000  Uiso   1.00
H730   H     0.34150   0.75540   0.80476   0.00000  Uiso   1.00
H731   H     0.45186   0.61115   0.68474   0.00000  Uiso   1.00
H732   H     0.58275   0.88806   0.75570   0.00000  Uiso   1.00
H733   H     0.45178   0.52998   0.68322   0.00000  Uiso   1.00
H734   H     0.58524   0.96976   0.75457   0.00000  Uiso   1.00
H735   H     0.42535   0.71224   0.52677   0.00000  Uiso   1.00
H736   H     0.53924   0.81445   0.96921   0.00000  Uiso   1.00
H737   H     0.57165   0.78620   0.54141   0.00000  Uiso   1.00
H738   H     0.45886   0.68656   0.96151   0.00000  Uiso   1.00
N739   N     0.50000   0.74999   0.62623   0.00000  Uiso   1.00
N740   N     0.50000   0.75001   0.87376   0.00000  Uiso   1.00
O741   O     0.50000   0.68454   0.78974   0.00000  Uiso   1.00
O742   O     0.50000   0.81547   0.71026   0.00000  Uiso   1.00
O743   O     0.50000   0.68453   0.71026   0.00000  Uiso   1.00
O744   O     0.50000   0.81547   0.78974   0.00000  Uiso   1.00
O745   O     0.42392   0.75000   0.78045   0.00000  Uiso   1.00
O746   O     0.57608   0.75000   0.71955   0.00000  Uiso   1.00
O747   O     0.42392   0.75000   0.70097   0.00000  Uiso   1.00
O748   O     0.57608   0.75001   0.79903   0.00000  Uiso   1.00
Zn749  Zn    0.50000   0.75001   0.80307   0.00000  Uiso   1.00
Zn750  Zn    0.50000   0.75000   0.69693   0.00000  Uiso   1.00
F751   F     0.56054   0.52199   0.82336   0.00000  Uiso   1.00
F752   F     0.40712   0.97627   0.74339   0.00000  Uiso   1.00
C753   C     0.57173   0.61529   0.82589   0.00000  Uiso   1.00
O754   O     0.59729   0.64826   0.81640   0.00000  Uiso   1.00
O755   O     0.57805   0.59822   0.87215   0.00000  Uiso   1.00
H756   H     0.60409   0.61648   0.89455   0.00000  Uiso   1.00
C757   C     0.39831   0.88278   0.74040   0.00000  Uiso   1.00
O758   O     0.39264   0.84837   0.76278   0.00000  Uiso   1.00
O759   O     0.35551   0.90053   0.71086   0.00000  Uiso   1.00
H760   H     0.65593   0.88118   0.71000   0.00000  Uiso   1.00
F761   F     0.42154   0.70704   0.61730   0.00000  Uiso   1.00
F762   F     0.54685   0.81864   0.87956   0.00000  Uiso   1.00
C763   C     0.58363   0.79609   0.63298   0.00000  Uiso   1.00
O764   O     0.57562   0.82348   0.66229   0.00000  Uiso   1.00
O765   O     0.63447   0.79121   0.62190   0.00000  Uiso   1.00
H766   H     0.66127   0.81113   0.64164   0.00000  Uiso   1.00
C767   C     0.45103   0.67701   0.86941   0.00000  Uiso   1.00
O768   O     0.46797   0.63945   0.87801   0.00000  Uiso   1.00
O769   O     0.40564   0.68302   0.83710   0.00000  Uiso   1.00
H770   H     0.39138   0.65403   0.82178   0.00000  Uiso   1.00
C771   C     0.83501   0.66401   0.75045   0.00000  Uiso   1.00
C772   C     0.83254   0.83577   0.74968   0.00000  Uiso   1.00
C773   C     0.79168   0.72855   0.54800   0.00000  Uiso   1.00
C774   C     0.85525   0.78574   0.94977   0.00000  Uiso   1.00
C775   C     0.79349   0.72858   0.59775   0.00000  Uiso   1.00
C776   C     0.85616   0.78466   0.90046   0.00000  Uiso   1.00
C777   C     0.87287   0.77113   0.60563   0.00000  Uiso   1.00
C778   C     0.80993   0.71530   0.89583   0.00000  Uiso   1.00
C779   C     0.87274   0.77033   0.55630   0.00000  Uiso   1.00
C780   C     0.80968   0.71493   0.94519   0.00000  Uiso   1.00
C781   C     0.83171   0.74985   0.52631   0.00000  Uiso   1.00
C782   C     0.83183   0.75044   0.97318   0.00000  Uiso   1.00
C783   C     0.73381   0.74882   0.73774   0.00000  Uiso   1.00
C784   C     0.93286   0.74997   0.76232   0.00000  Uiso   1.00
C785   C     0.67884   0.74630   0.73136   0.00000  Uiso   1.00
C786   C     0.98785   0.75055   0.76902   0.00000  Uiso   1.00
C787   C     0.86623   0.54589   0.78771   0.00000  Uiso   1.00
C788   C     0.78547   0.95285   0.74500   0.00000  Uiso   1.00
C789   C     0.86857   0.59251   0.78812   0.00000  Uiso   1.00
C790   C     0.78354   0.90629   0.74496   0.00000  Uiso   1.00
C791   C     0.83793   0.61599   0.75098   0.00000  Uiso   1.00
C792   C     0.83143   0.88340   0.74920   0.00000  Uiso   1.00
C793   C     0.80843   0.59325   0.71338   0.00000  Uiso   1.00
C794   C     0.87963   0.90612   0.75259   0.00000  Uiso   1.00
C795   C     0.80785   0.54727   0.71268   0.00000  Uiso   1.00
C796   C     0.88104   0.95220   0.75221   0.00000  Uiso   1.00
C797   C     0.83609   0.52367   0.74997   0.00000  Uiso   1.00
C798   C     0.83414   0.97546   0.74901   0.00000  Uiso   1.00
H799   H     0.99183   0.74073   0.69586   0.00000  Uiso   1.00
H800   H     0.67484   0.75540   0.80476   0.00000  Uiso   1.00
H801   H     0.78519   0.61115   0.68474   0.00000  Uiso   1.00
H802   H     0.91608   0.88806   0.75570   0.00000  Uiso   1.00
H803   H     0.78512   0.52998   0.68322   0.00000  Uiso   1.00
H804   H     0.91857   0.96976   0.75457   0.00000  Uiso   1.00
H805   H     0.75868   0.71224   0.52677   0.00000  Uiso   1.00
H806   H     0.87257   0.81445   0.96921   0.00000  Uiso   1.00
H807   H     0.90499   0.78620   0.54141   0.00000  Uiso   1.00
H808   H     0.79220   0.68656   0.96151   0.00000  Uiso   1.00
N809   N     0.83333   0.74999   0.62623   0.00000  Uiso   1.00
N810   N     0.83333   0.75001   0.87376   0.00000  Uiso   1.00
O811   O     0.83334   0.68454   0.78974   0.00000  Uiso   1.00
O812   O     0.83333   0.81547   0.71026   0.00000  Uiso   1.00
O813   O     0.83334   0.68453   0.71026   0.00000  Uiso   1.00
O814   O     0.83333   0.81547   0.78974   0.00000  Uiso   1.00
O815   O     0.75725   0.75000   0.78045   0.00000  Uiso   1.00
O816   O     0.90942   0.75000   0.71955   0.00000  Uiso   1.00
O817   O     0.75725   0.75000   0.70097   0.00000  Uiso   1.00
O818   O     0.90942   0.75001   0.79903   0.00000  Uiso   1.00
Zn819  Zn    0.83333   0.75001   0.80307   0.00000  Uiso   1.00
Zn820  Zn    0.83333   0.75000   0.69693   0.00000  Uiso   1.00
F821   F     0.89387   0.52199   0.82336   0.00000  Uiso   1.00
F822   F     0.74045   0.97627   0.74339   0.00000  Uiso   1.00
C823   C     0.90506   0.61529   0.82589   0.00000  Uiso   1.00
O824   O     0.93062   0.64826   0.81640   0.00000  Uiso   1.00
O825   O     0.91139   0.59822   0.87215   0.00000  Uiso   1.00
H826   H     0.93743   0.61648   0.89455   0.00000  Uiso   1.00
C827   C     0.73165   0.88278   0.74040   0.00000  Uiso   1.00
O828   O     0.72597   0.84837   0.76278   0.00000  Uiso   1.00
O829   O     0.68884   0.90053   0.71086   0.00000  Uiso   1.00
H830   H     0.98926   0.88118   0.71000   0.00000  Uiso   1.00
F831   F     0.75488   0.70704   0.61730   0.00000  Uiso   1.00
F832   F     0.88019   0.81864   0.87956   0.00000  Uiso   1.00
C833   C     0.91696   0.79609   0.63298   0.00000  Uiso   1.00
O834   O     0.90896   0.82348   0.66229   0.00000  Uiso   1.00
O835   O     0.96781   0.79121   0.62190   0.00000  Uiso   1.00
H836   H     0.99460   0.81113   0.64164   0.00000  Uiso   1.00
C837   C     0.78437   0.67701   0.86941   0.00000  Uiso   1.00
O838   O     0.80130   0.63945   0.87801   0.00000  Uiso   1.00
O839   O     0.73897   0.68302   0.83710   0.00000  Uiso   1.00
H840   H     0.72471   0.65403   0.82178   0.00000  Uiso   1.00
loop_
_geom_bond_atom_site_label_1
_geom_bond_atom_site_label_2
_geom_bond_distance
_geom_bond_site_symmetry_2
_ccdc_geom_bond_type
C1     C21     1.440   .     S
C1     O43     1.290   .     A
C1     O41     1.291   .     A
C2     C22     1.425   .     S
C2     O44     1.286   .     A
C2     O42     1.288   .     A
C3     H35     1.082   .     S
C3     C5      1.414   .     A
C3     C11     1.412   .     A
C4     C12     1.413   .     A
C4     H36     1.082   .     S
C4     C6      1.411   .     A
C5     F61     1.355   .     S
C5     N39     1.368   .     A
C6     N40     1.366   .     A
C6     F62     1.354   .     S
C7     C63     1.477   .     S
C7     C9      1.407   .     A
C7     N39     1.383   .     A
C8     C67     1.471   .     S
C8     N40     1.379   .     A
C8     C10     1.409   .     A
C9     C11     1.397   .     A
C9     H37     1.083   .     S
C10    H38     1.083   .     S
C10    C12     1.399   .     A
C11    C432    1.516   1_554 S
C12    C431    1.516   .     S
C13    C15     1.400   .     S
C13    O45     1.281   .     A
C13    O47     1.282   .     A
C14    O46     1.282   .     A
C14    C16     1.400   .     S
C14    O48     1.280   .     A
C15    C156    1.326   1_455 S
C15    H169    1.086   1_455 S
C16    C85     1.326   .     S
C16    H100    1.088   .     S
C17    F51     1.360   .     S
C17    C27     1.401   .     A
C17    C19     1.394   .     A
C18    C28     1.401   .     A
C18    F52     1.360   .     S
C18    C20     1.393   .     A
C19    C53     1.487   .     S
C19    C21     1.416   .     A
C20    C22     1.411   .     A
C20    C57     1.486   .     S
C21    C23     1.398   .     A
C22    C24     1.393   .     A
C23    C25     1.376   .     A
C23    H31     1.084   .     S
C24    H32     1.084   .     S
C24    C26     1.378   .     A
C25    C27     1.393   .     A
C25    H33     1.084   .     S
C26    C28     1.396   .     A
C26    H34     1.084   .     S
C27    C238    1.442   1_545 S
C28    C237    1.442   .     S
H29    C85     1.086   .     S
H30    C156    1.088   1_455 S
N39    Zn50    2.017   .     S
N40    Zn49    2.017   .     S
O41    Zn49    1.999   .     S
O42    Zn50    1.999   .     S
O43    Zn50    1.990   .     S
O44    Zn49    1.990   .     S
O45    Zn49    1.972   .     S
O46    Zn50    1.972   .     S
O47    Zn50    1.976   .     S
O48    Zn49    1.976   .     S
C53    O55     1.398   .     S
C53    O54     1.223   .     D
O55    H56     1.014   .     S
C57    O58     1.222   .     D
C57    O59     1.398   .     S
O59    H200    1.013   1_455 S
H60    O129    1.013   .     S
C63    O65     1.399   .     S
C63    O64     1.218   .     D
O65    H66     1.014   .     S
C67    O68     1.223   .     D
C67    O69     1.395   .     S
O69    H70     1.014   .     S
C71    C91     1.440   .     S
C71    O113    1.290   .     A
C71    O111    1.291   .     A
C72    C92     1.425   .     S
C72    O114    1.286   .     A
C72    O112    1.288   .     A
C73    H105    1.082   .     S
C73    C75     1.414   .     A
C73    C81     1.412   .     A
C74    C82     1.413   .     A
C74    H106    1.082   .     S
C74    C76     1.411   .     A
C75    F131    1.355   .     S
C75    N109    1.368   .     A
C76    N110    1.366   .     A
C76    F132    1.354   .     S
C77    C133    1.477   .     S
C77    C79     1.407   .     A
C77    N109    1.383   .     A
C78    C137    1.471   .     S
C78    N110    1.379   .     A
C78    C80     1.409   .     A
C79    C81     1.397   .     A
C79    H107    1.083   .     S
C80    H108    1.083   .     S
C80    C82     1.399   .     A
C81    C502    1.516   1_554 S
C82    C501    1.516   .     S
C83    C85     1.400   .     S
C83    O115    1.281   .     A
C83    O117    1.282   .     A
C84    O116    1.282   .     A
C84    C86     1.400   .     S
C84    O118    1.280   .     A
C86    C155    1.326   .     S
C86    H170    1.088   .     S
C87    F121    1.360   .     S
C87    C97     1.401   .     A
C87    C89     1.394   .     A
C88    C98     1.401   .     A
C88    F122    1.360   .     S
C88    C90     1.393   .     A
C89    C123    1.487   .     S
C89    C91     1.416   .     A
C90    C92     1.411   .     A
C90    C127    1.486   .     S
C91    C93     1.398   .     A
C92    C94     1.393   .     A
C93    C95     1.376   .     A
C93    H101    1.084   .     S
C94    H102    1.084   .     S
C94    C96     1.378   .     A
C95    C97     1.393   .     A
C95    H103    1.084   .     S
C96    C98     1.396   .     A
C96    H104    1.084   .     S
C97    C308    1.442   1_545 S
C98    C307    1.442   .     S
H99    C155    1.086   .     S
N109   Zn120   2.017   .     S
N110   Zn119   2.017   .     S
O111   Zn119   1.999   .     S
O112   Zn120   1.999   .     S
O113   Zn120   1.990   .     S
O114   Zn119   1.990   .     S
O115   Zn119   1.972   .     S
O116   Zn120   1.972   .     S
O117   Zn120   1.976   .     S
O118   Zn119   1.976   .     S
C123   O125    1.398   .     S
C123   O124    1.223   .     D
O125   H126    1.014   .     S
C127   O128    1.222   .     D
C127   O129    1.398   .     S
H130   O199    1.013   .     S
C133   O135    1.399   .     S
C133   O134    1.218   .     D
O135   H136    1.014   .     S
C137   O138    1.223   .     D
C137   O139    1.395   .     S
O139   H140    1.014   .     S
C141   C161    1.440   .     S
C141   O183    1.290   .     A
C141   O181    1.291   .     A
C142   C162    1.425   .     S
C142   O184    1.286   .     A
C142   O182    1.288   .     A
C143   H175    1.082   .     S
C143   C145    1.414   .     A
C143   C151    1.412   .     A
C144   C152    1.413   .     A
C144   H176    1.082   .     S
C144   C146    1.411   .     A
C145   F201    1.355   .     S
C145   N179    1.368   .     A
C146   N180    1.366   .     A
C146   F202    1.354   .     S
C147   C203    1.477   .     S
C147   C149    1.407   .     A
C147   N179    1.383   .     A
C148   C207    1.471   .     S
C148   N180    1.379   .     A
C148   C150    1.409   .     A
C149   C151    1.397   .     A
C149   H177    1.083   .     S
C150   H178    1.083   .     S
C150   C152    1.399   .     A
C151   C572    1.516   1_554 S
C152   C571    1.516   .     S
C153   C155    1.400   .     S
C153   O185    1.281   .     A
C153   O187    1.282   .     A
C154   O186    1.282   .     A
C154   C156    1.400   .     S
C154   O188    1.280   .     A
C156   C15     1.326   1_655 S
C156   H30     1.088   1_655 S
C157   F191    1.360   .     S
C157   C167    1.401   .     A
C157   C159    1.394   .     A
C158   C168    1.401   .     A
C158   F192    1.360   .     S
C158   C160    1.393   .     A
C159   C193    1.487   .     S
C159   C161    1.416   .     A
C160   C162    1.411   .     A
C160   C197    1.486   .     S
C161   C163    1.398   .     A
C162   C164    1.393   .     A
C163   C165    1.376   .     A
C163   H171    1.084   .     S
C164   H172    1.084   .     S
C164   C166    1.378   .     A
C165   C167    1.393   .     A
C165   H173    1.084   .     S
C166   C168    1.396   .     A
C166   H174    1.084   .     S
C167   C378    1.442   1_545 S
C168   C377    1.442   .     S
H169   C15     1.086   1_655 S
N179   Zn190   2.017   .     S
N180   Zn189   2.017   .     S
O181   Zn189   1.999   .     S
O182   Zn190   1.999   .     S
O183   Zn190   1.990   .     S
O184   Zn189   1.990   .     S
O185   Zn189   1.972   .     S
O186   Zn190   1.972   .     S
O187   Zn190   1.976   .     S
O188   Zn189   1.976   .     S
C193   O195    1.398   .     S
C193   O194    1.223   .     D
O195   H196    1.014   .     S
C197   O198    1.222   .     D
C197   O199    1.398   .     S
H200   O59     1.013   1_655 S
C203   O205    1.399   .     S
C203   O204    1.218   .     D
O205   H206    1.014   .     S
C207   O208    1.223   .     D
C207   O209    1.395   .     S
O209   H210    1.014   .     S
C211   C231    1.440   .     S
C211   O253    1.290   .     A
C211   O251    1.291   .     A
C212   C232    1.425   .     S
C212   O254    1.286   .     A
C212   O252    1.288   .     A
C213   H245    1.082   .     S
C213   C215    1.414   .     A
C213   C221    1.412   .     A
C214   C222    1.413   .     A
C214   H246    1.082   .     S
C214   C216    1.411   .     A
C215   F271    1.355   .     S
C215   N249    1.368   .     A
C216   N250    1.366   .     A
C216   F272    1.354   .     S
C217   C273    1.477   .     S
C217   C219    1.407   .     A
C217   N249    1.383   .     A
C218   C277    1.471   .     S
C218   N250    1.379   .     A
C218   C220    1.409   .     A
C219   C221    1.397   .     A
C219   H247    1.083   .     S
C220   H248    1.083   .     S
C220   C222    1.399   .     A
C221   C642    1.516   1_554 S
C222   C641    1.516   .     S
C223   C225    1.400   .     S
C223   O255    1.281   .     A
C223   O257    1.282   .     A
C224   O256    1.282   .     A
C224   C226    1.400   .     S
C224   O258    1.280   .     A
C225   C366    1.326   1_455 S
C225   H379    1.086   1_455 S
C226   C295    1.326   .     S
C226   H310    1.088   .     S
C227   F261    1.360   .     S
C227   C237    1.401   .     A
C227   C229    1.394   .     A
C228   C238    1.401   .     A
C228   F262    1.360   .     S
C228   C230    1.393   .     A
C229   C263    1.487   .     S
C229   C231    1.416   .     A
C230   C232    1.411   .     A
C230   C267    1.486   .     S
C231   C233    1.398   .     A
C232   C234    1.393   .     A
C233   C235    1.376   .     A
C233   H241    1.084   .     S
C234   H242    1.084   .     S
C234   C236    1.378   .     A
C235   C237    1.393   .     A
C235   H243    1.084   .     S
C236   C238    1.396   .     A
C236   H244    1.084   .     S
C238   C27     1.442   1_565 S
H239   C295    1.086   .     S
H240   C366    1.088   1_455 S
N249   Zn260   2.017   .     S
N250   Zn259   2.017   .     S
O251   Zn259   1.999   .     S
O252   Zn260   1.999   .     S
O253   Zn260   1.990   .     S
O254   Zn259   1.990   .     S
O255   Zn259   1.972   .     S
O256   Zn260   1.972   .     S
O257   Zn260   1.976   .     S
O258   Zn259   1.976   .     S
C263   O265    1.398   .     S
C263   O264    1.223   .     D
O265   H266    1.014   .     S
C267   O268    1.222   .     D
C267   O269    1.398   .     S
O269   H410    1.013   1_455 S
H270   O339    1.013   .     S
C273   O275    1.399   .     S
C273   O274    1.218   .     D
O275   H276    1.014   .     S
C277   O278    1.223   .     D
C277   O279    1.395   .     S
O279   H280    1.014   .     S
C281   C301    1.440   .     S
C281   O323    1.290   .     A
C281   O321    1.291   .     A
C282   C302    1.425   .     S
C282   O324    1.286   .     A
C282   O322    1.288   .     A
C283   H315    1.082   .     S
C283   C285    1.414   .     A
C283   C291    1.412   .     A
C284   C292    1.413   .     A
C284   H316    1.082   .     S
C284   C286    1.411   .     A
C285   F341    1.355   .     S
C285   N319    1.368   .     A
C286   N320    1.366   .     A
C286   F342    1.354   .     S
C287   C343    1.477   .     S
C287   C289    1.407   .     A
C287   N319    1.383   .     A
C288   C347    1.471   .     S
C288   N320    1.379   .     A
C288   C290    1.409   .     A
C289   C291    1.397   .     A
C289   H317    1.083   .     S
C290   H318    1.083   .     S
C290   C292    1.399   .     A
C291   C712    1.516   1_554 S
C292   C711    1.516   .     S
C293   C295    1.400   .     S
C293   O325    1.281   .     A
C293   O327    1.282   .     A
C294   O326    1.282   .     A
C294   C296    1.400   .     S
C294   O328    1.280   .     A
C296   C365    1.326   .     S
C296   H380    1.088   .     S
C297   F331    1.360   .     S
C297   C307    1.401   .     A
C297   C299    1.394   .     A
C298   C308    1.401   .     A
C298   F332    1.360   .     S
C298   C300    1.393   .     A
C299   C333    1.487   .     S
C299   C301    1.416   .     A
C300   C302    1.411   .     A
C300   C337    1.486   .     S
C301   C303    1.398   .     A
C302   C304    1.393   .     A
C303   C305    1.376   .     A
C303   H311    1.084   .     S
C304   H312    1.084   .     S
C304   C306    1.378   .     A
C305   C307    1.393   .     A
C305   H313    1.084   .     S
C306   C308    1.396   .     A
C306   H314    1.084   .     S
C308   C97     1.442   1_565 S
H309   C365    1.086   .     S
N319   Zn330   2.017   .     S
N320   Zn329   2.017   .     S
O321   Zn329   1.999   .     S
O322   Zn330   1.999   .     S
O323   Zn330   1.990   .     S
O324   Zn329   1.990   .     S
O325   Zn329   1.972   .     S
O326   Zn330   1.972   .     S
O327   Zn330   1.976   .     S
O328   Zn329   1.976   .     S
C333   O335    1.398   .     S
C333   O334    1.223   .     D
O335   H336    1.014   .     S
C337   O338    1.222   .     D
C337   O339    1.398   .     S
H340   O409    1.013   .     S
C343   O345    1.399   .     S
C343   O344    1.218   .     D
O345   H346    1.014   .     S
C347   O348    1.223   .     D
C347   O349    1.395   .     S
O349   H350    1.014   .     S
C351   C371    1.440   .     S
C351   O393    1.290   .     A
C351   O391    1.291   .     A
C352   C372    1.425   .     S
C352   O394    1.286   .     A
C352   O392    1.288   .     A
C353   H385    1.082   .     S
C353   C355    1.414   .     A
C353   C361    1.412   .     A
C354   C362    1.413   .     A
C354   H386    1.082   .     S
C354   C356    1.411   .     A
C355   F411    1.355   .     S
C355   N389    1.368   .     A
C356   N390    1.366   .     A
C356   F412    1.354   .     S
C357   C413    1.477   .     S
C357   C359    1.407   .     A
C357   N389    1.383   .     A
C358   C417    1.471   .     S
C358   N390    1.379   .     A
C358   C360    1.409   .     A
C359   C361    1.397   .     A
C359   H387    1.083   .     S
C360   H388    1.083   .     S
C360   C362    1.399   .     A
C361   C782    1.516   1_554 S
C362   C781    1.516   .     S
C363   C365    1.400   .     S
C363   O395    1.281   .     A
C363   O397    1.282   .     A
C364   O396    1.282   .     A
C364   C366    1.400   .     S
C364   O398    1.280   .     A
C366   C225    1.326   1_655 S
C366   H240    1.088   1_655 S
C367   F401    1.360   .     S
C367   C377    1.401   .     A
C367   C369    1.394   .     A
C368   C378    1.401   .     A
C368   F402    1.360   .     S
C368   C370    1.393   .     A
C369   C403    1.487   .     S
C369   C371    1.416   .     A
C370   C372    1.411   .     A
C370   C407    1.486   .     S
C371   C373    1.398   .     A
C372   C374    1.393   .     A
C373   C375    1.376   .     A
C373   H381    1.084   .     S
C374   H382    1.084   .     S
C374   C376    1.378   .     A
C375   C377    1.393   .     A
C375   H383    1.084   .     S
C376   C378    1.396   .     A
C376   H384    1.084   .     S
C378   C167    1.442   1_565 S
H379   C225    1.086   1_655 S
N389   Zn400   2.017   .     S
N390   Zn399   2.017   .     S
O391   Zn399   1.999   .     S
O392   Zn400   1.999   .     S
O393   Zn400   1.990   .     S
O394   Zn399   1.990   .     S
O395   Zn399   1.972   .     S
O396   Zn400   1.972   .     S
O397   Zn400   1.976   .     S
O398   Zn399   1.976   .     S
C403   O405    1.398   .     S
C403   O404    1.223   .     D
O405   H406    1.014   .     S
C407   O408    1.222   .     D
C407   O409    1.398   .     S
H410   O269    1.013   1_655 S
C413   O415    1.399   .     S
C413   O414    1.218   .     D
O415   H416    1.014   .     S
C417   O418    1.223   .     D
C417   O419    1.395   .     S
O419   H420    1.014   .     S
C421   C441    1.440   .     S
C421   O463    1.290   .     A
C421   O461    1.291   .     A
C422   C442    1.425   .     S
C422   O464    1.286   .     A
C422   O462    1.288   .     A
C423   H455    1.082   .     S
C423   C425    1.414   .     A
C423   C431    1.412   .     A
C424   C432    1.413   .     A
C424   H456    1.082   .     S
C424   C426    1.411   .     A
C425   F481    1.355   .     S
C425   N459    1.368   .     A
C426   N460    1.366   .     A
C426   F482    1.354   .     S
C427   C483    1.477   .     S
C427   C429    1.407   .     A
C427   N459    1.383   .     A
C428   C487    1.471   .     S
C428   N460    1.379   .     A
C428   C430    1.409   .     A
C429   C431    1.397   .     A
C429   H457    1.083   .     S
C430   H458    1.083   .     S
C430   C432    1.399   .     A
C432   C11     1.516   1_556 S
C433   C435    1.400   .     S
C433   O465    1.281   .     A
C433   O467    1.282   .     A
C434   O466    1.282   .     A
C434   C436    1.400   .     S
C434   O468    1.280   .     A
C435   C576    1.326   1_455 S
C435   H589    1.086   1_455 S
C436   C505    1.326   .     S
C436   H520    1.088   .     S
C437   F471    1.360   .     S
C437   C447    1.401   .     A
C437   C439    1.394   .     A
C438   C448    1.401   .     A
C438   F472    1.360   .     S
C438   C440    1.393   .     A
C439   C473    1.487   .     S
C439   C441    1.416   .     A
C440   C442    1.411   .     A
C440   C477    1.486   .     S
C441   C443    1.398   .     A
C442   C444    1.393   .     A
C443   C445    1.376   .     A
C443   H451    1.084   .     S
C444   H452    1.084   .     S
C444   C446    1.378   .     A
C445   C447    1.393   .     A
C445   H453    1.084   .     S
C446   C448    1.396   .     A
C446   H454    1.084   .     S
C447   C658    1.442   1_545 S
C448   C657    1.442   .     S
H449   C505    1.086   .     S
H450   C576    1.088   1_455 S
N459   Zn470   2.017   .     S
N460   Zn469   2.017   .     S
O461   Zn469   1.999   .     S
O462   Zn470   1.999   .     S
O463   Zn470   1.990   .     S
O464   Zn469   1.990   .     S
O465   Zn469   1.972   .     S
O466   Zn470   1.972   .     S
O467   Zn470   1.976   .     S
O468   Zn469   1.976   .     S
C473   O475    1.398   .     S
C473   O474    1.223   .     D
O475   H476    1.014   .     S
C477   O478    1.222   .     D
C477   O479    1.398   .     S
O479   H620    1.013   1_455 S
H480   O549    1.013   .     S
C483   O485    1.399   .     S
C483   O484    1.218   .     D
O485   H486    1.014   .     S
C487   O488    1.223   .     D
C487   O489    1.395   .     S
O489   H490    1.014   .     S
C491   C511    1.440   .     S
C491   O533    1.290   .     A
C491   O531    1.291   .     A
C492   C512    1.425   .     S
C492   O534    1.286   .     A
C492   O532    1.288   .     A
C493   H525    1.082   .     S
C493   C495    1.414   .     A
C493   C501    1.412   .     A
C494   C502    1.413   .     A
C494   H526    1.082   .     S
C494   C496    1.411   .     A
C495   F551    1.355   .     S
C495   N529    1.368   .     A
C496   N530    1.366   .     A
C496   F552    1.354   .     S
C497   C553    1.477   .     S
C497   C499    1.407   .     A
C497   N529    1.383   .     A
C498   C557    1.471   .     S
C498   N530    1.379   .     A
C498   C500    1.409   .     A
C499   C501    1.397   .     A
C499   H527    1.083   .     S
C500   H528    1.083   .     S
C500   C502    1.399   .     A
C502   C81     1.516   1_556 S
C503   C505    1.400   .     S
C503   O535    1.281   .     A
C503   O537    1.282   .     A
C504   O536    1.282   .     A
C504   C506    1.400   .     S
C504   O538    1.280   .     A
C506   C575    1.326   .     S
C506   H590    1.088   .     S
C507   F541    1.360   .     S
C507   C517    1.401   .     A
C507   C509    1.394   .     A
C508   C518    1.401   .     A
C508   F542    1.360   .     S
C508   C510    1.393   .     A
C509   C543    1.487   .     S
C509   C511    1.416   .     A
C510   C512    1.411   .     A
C510   C547    1.486   .     S
C511   C513    1.398   .     A
C512   C514    1.393   .     A
C513   C515    1.376   .     A
C513   H521    1.084   .     S
C514   H522    1.084   .     S
C514   C516    1.378   .     A
C515   C517    1.393   .     A
C515   H523    1.084   .     S
C516   C518    1.396   .     A
C516   H524    1.084   .     S
C517   C728    1.442   1_545 S
C518   C727    1.442   .     S
H519   C575    1.086   .     S
N529   Zn540   2.017   .     S
N530   Zn539   2.017   .     S
O531   Zn539   1.999   .     S
O532   Zn540   1.999   .     S
O533   Zn540   1.990   .     S
O534   Zn539   1.990   .     S
O535   Zn539   1.972   .     S
O536   Zn540   1.972   .     S
O537   Zn540   1.976   .     S
O538   Zn539   1.976   .     S
C543   O545    1.398   .     S
C543   O544    1.223   .     D
O545   H546    1.014   .     S
C547   O548    1.222   .     D
C547   O549    1.398   .     S
H550   O619    1.013   .     S
C553   O555    1.399   .     S
C553   O554    1.218   .     D
O555   H556    1.014   .     S
C557   O558    1.223   .     D
C557   O559    1.395   .     S
O559   H560    1.014   .     S
C561   C581    1.440   .     S
C561   O603    1.290   .     A
C561   O601    1.291   .     A
C562   C582    1.425   .     S
C562   O604    1.286   .     A
C562   O602    1.288   .     A
C563   H595    1.082   .     S
C563   C565    1.414   .     A
C563   C571    1.412   .     A
C564   C572    1.413   .     A
C564   H596    1.082   .     S
C564   C566    1.411   .     A
C565   F621    1.355   .     S
C565   N599    1.368   .     A
C566   N600    1.366   .     A
C566   F622    1.354   .     S
C567   C623    1.477   .     S
C567   C569    1.407   .     A
C567   N599    1.383   .     A
C568   C627    1.471   .     S
C568   N600    1.379   .     A
C568   C570    1.409   .     A
C569   C571    1.397   .     A
C569   H597    1.083   .     S
C570   H598    1.083   .     S
C570   C572    1.399   .     A
C572   C151    1.516   1_556 S
C573   C575    1.400   .     S
C573   O605    1.281   .     A
C573   O607    1.282   .     A
C574   O606    1.282   .     A
C574   C576    1.400   .     S
C574   O608    1.280   .     A
C576   C435    1.326   1_655 S
C576   H450    1.088   1_655 S
C577   F611    1.360   .     S
C577   C587    1.401   .     A
C577   C579    1.394   .     A
C578   C588    1.401   .     A
C578   F612    1.360   .     S
C578   C580    1.393   .     A
C579   C613    1.487   .     S
C579   C581    1.416   .     A
C580   C582    1.411   .     A
C580   C617    1.486   .     S
C581   C583    1.398   .     A
C582   C584    1.393   .     A
C583   C585    1.376   .     A
C583   H591    1.084   .     S
C584   H592    1.084   .     S
C584   C586    1.378   .     A
C585   C587    1.393   .     A
C585   H593    1.084   .     S
C586   C588    1.396   .     A
C586   H594    1.084   .     S
C587   C798    1.442   1_545 S
C588   C797    1.442   .     S
H589   C435    1.086   1_655 S
N599   Zn610   2.017   .     S
N600   Zn609   2.017   .     S
O601   Zn609   1.999   .     S
O602   Zn610   1.999   .     S
O603   Zn610   1.990   .     S
O604   Zn609   1.990   .     S
O605   Zn609   1.972   .     S
O606   Zn610   1.972   .     S
O607   Zn610   1.976   .     S
O608   Zn609   1.976   .     S
C613   O615    1.398   .     S
C613   O614    1.223   .     D
O615   H616    1.014   .     S
C617   O618    1.222   .     D
C617   O619    1.398   .     S
H620   O479    1.013   1_655 S
C623   O625    1.399   .     S
C623   O624    1.218   .     D
O625   H626    1.014   .     S
C627   O628    1.223   .     D
C627   O629    1.395   .     S
O629   H630    1.014   .     S
C631   C651    1.440   .     S
C631   O673    1.290   .     A
C631   O671    1.291   .     A
C632   C652    1.425   .     S
C632   O674    1.286   .     A
C632   O672    1.288   .     A
C633   H665    1.082   .     S
C633   C635    1.414   .     A
C633   C641    1.412   .     A
C634   C642    1.413   .     A
C634   H666    1.082   .     S
C634   C636    1.411   .     A
C635   F691    1.355   .     S
C635   N669    1.368   .     A
C636   N670    1.366   .     A
C636   F692    1.354   .     S
C637   C693    1.477   .     S
C637   C639    1.407   .     A
C637   N669    1.383   .     A
C638   C697    1.471   .     S
C638   N670    1.379   .     A
C638   C640    1.409   .     A
C639   C641    1.397   .     A
C639   H667    1.083   .     S
C640   H668    1.083   .     S
C640   C642    1.399   .     A
C642   C221    1.516   1_556 S
C643   C645    1.400   .     S
C643   O675    1.281   .     A
C643   O677    1.282   .     A
C644   O676    1.282   .     A
C644   C646    1.400   .     S
C644   O678    1.280   .     A
C645   C786    1.326   1_455 S
C645   H799    1.086   1_455 S
C646   C715    1.326   .     S
C646   H730    1.088   .     S
C647   F681    1.360   .     S
C647   C657    1.401   .     A
C647   C649    1.394   .     A
C648   C658    1.401   .     A
C648   F682    1.360   .     S
C648   C650    1.393   .     A
C649   C683    1.487   .     S
C649   C651    1.416   .     A
C650   C652    1.411   .     A
C650   C687    1.486   .     S
C651   C653    1.398   .     A
C652   C654    1.393   .     A
C653   C655    1.376   .     A
C653   H661    1.084   .     S
C654   H662    1.084   .     S
C654   C656    1.378   .     A
C655   C657    1.393   .     A
C655   H663    1.084   .     S
C656   C658    1.396   .     A
C656   H664    1.084   .     S
C658   C447    1.442   1_565 S
H659   C715    1.086   .     S
H660   C786    1.088   1_455 S
N669   Zn680   2.017   .     S
N670   Zn679   2.017   .     S
O671   Zn679   1.999   .     S
O672   Zn680   1.999   .     S
O673   Zn680   1.990   .     S
O674   Zn679   1.990   .     S
O675   Zn679   1.972   .     S
O676   Zn680   1.972   .     S
O677   Zn680   1.976   .     S
O678   Zn679   1.976   .     S
C683   O685    1.398   .     S
C683   O684    1.223   .     D
O685   H686    1.014   .     S
C687   O688    1.222   .     D
C687   O689    1.398   .     S
O689   H830    1.013   1_455 S
H690   O759    1.013   .     S
C693   O695    1.399   .     S
C693   O694    1.218   .     D
O695   H696    1.014   .     S
C697   O698    1.223   .     D
C697   O699    1.395   .     S
O699   H700    1.014   .     S
C701   C721    1.440   .     S
C701   O743    1.290   .     A
C701   O741    1.291   .     A
C702   C722    1.425   .     S
C702   O744    1.286   .     A
C702   O742    1.288   .     A
C703   H735    1.082   .     S
C703   C705    1.414   .     A
C703   C711    1.412   .     A
C704   C712    1.413   .     A
C704   H736    1.082   .     S
C704   C706    1.411   .     A
C705   F761    1.355   .     S
C705   N739    1.368   .     A
C706   N740    1.366   .     A
C706   F762    1.354   .     S
C707   C763    1.477   .     S
C707   C709    1.407   .     A
C707   N739    1.383   .     A
C708   C767    1.471   .     S
C708   N740    1.379   .     A
C708   C710    1.409   .     A
C709   C711    1.397   .     A
C709   H737    1.083   .     S
C710   H738    1.083   .     S
C710   C712    1.399   .     A
C712   C291    1.516   1_556 S
C713   C715    1.400   .     S
C713   O745    1.281   .     A
C713   O747    1.282   .     A
C714   O746    1.282   .     A
C714   C716    1.400   .     S
C714   O748    1.280   .     A
C716   C785    1.326   .     S
C716   H800    1.088   .     S
C717   F751    1.360   .     S
C717   C727    1.401   .     A
C717   C719    1.394   .     A
C718   C728    1.401   .     A
C718   F752    1.360   .     S
C718   C720    1.393   .     A
C719   C753    1.487   .     S
C719   C721    1.416   .     A
C720   C722    1.411   .     A
C720   C757    1.486   .     S
C721   C723    1.398   .     A
C722   C724    1.393   .     A
C723   C725    1.376   .     A
C723   H731    1.084   .     S
C724   H732    1.084   .     S
C724   C726    1.378   .     A
C725   C727    1.393   .     A
C725   H733    1.084   .     S
C726   C728    1.396   .     A
C726   H734    1.084   .     S
C728   C517    1.442   1_565 S
H729   C785    1.086   .     S
N739   Zn750   2.017   .     S
N740   Zn749   2.017   .     S
O741   Zn749   1.999   .     S
O742   Zn750   1.999   .     S
O743   Zn750   1.990   .     S
O744   Zn749   1.990   .     S
O745   Zn749   1.972   .     S
O746   Zn750   1.972   .     S
O747   Zn750   1.976   .     S
O748   Zn749   1.976   .     S
C753   O755    1.398   .     S
C753   O754    1.223   .     D
O755   H756    1.014   .     S
C757   O758    1.222   .     D
C757   O759    1.398   .     S
H760   O829    1.013   .     S
C763   O765    1.399   .     S
C763   O764    1.218   .     D
O765   H766    1.014   .     S
C767   O768    1.223   .     D
C767   O769    1.395   .     S
O769   H770    1.014   .     S
C771   C791    1.440   .     S
C771   O813    1.290   .     A
C771   O811    1.291   .     A
C772   C792    1.425   .     S
C772   O814    1.286   .     A
C772   O812    1.288   .     A
C773   H805    1.082   .     S
C773   C775    1.414   .     A
C773   C781    1.412   .     A
C774   C782    1.413   .     A
C774   H806    1.082   .     S
C774   C776    1.411   .     A
C775   F831    1.355   .     S
C775   N809    1.368   .     A
C776   N810    1.366   .     A
C776   F832    1.354   .     S
C777   C833    1.477   .     S
C777   C779    1.407   .     A
C777   N809    1.383   .     A
C778   C837    1.471   .     S
C778   N810    1.379   .     A
C778   C780    1.409   .     A
C779   C781    1.397   .     A
C779   H807    1.083   .     S
C780   H808    1.083   .     S
C780   C782    1.399   .     A
C782   C361    1.516   1_556 S
C783   C785    1.400   .     S
C783   O815    1.281   .     A
C783   O817    1.282   .     A
C784   O816    1.282   .     A
C784   C786    1.400   .     S
C784   O818    1.280   .     A
C786   C645    1.326   1_655 S
C786   H660    1.088   1_655 S
C787   F821    1.360   .     S
C787   C797    1.401   .     A
C787   C789    1.394   .     A
C788   C798    1.401   .     A
C788   F822    1.360   .     S
C788   C790    1.393   .     A
C789   C823    1.487   .     S
C789   C791    1.416   .     A
C790   C792    1.411   .     A
C790   C827    1.486   .     S
C791   C793    1.398   .     A
C792   C794    1.393   .     A
C793   C795    1.376   .     A
C793   H801    1.084   .     S
C794   H802    1.084   .     S
C794   C796    1.378   .     A
C795   C797    1.393   .     A
C795   H803    1.084   .     S
C796   C798    1.396   .     A
C796   H804    1.084   .     S
C798   C587    1.442   1_565 S
H799   C645    1.086   1_655 S
N809   Zn820   2.017   .     S
N810   Zn819   2.017   .     S
O811   Zn819   1.999   .     S
O812   Zn820   1.999   .     S
O813   Zn820   1.990   .     S
O814   Zn819   1.990   .     S
O815   Zn819   1.972   .     S
O816   Zn820   1.972   .     S
O817   Zn820   1.976   .     S
O818   Zn819   1.976   .     S
C823   O825    1.398   .     S
C823   O824    1.223   .     D
O825   H826    1.014   .     S
C827   O828    1.222   .     D
C827   O829    1.398   .     S
H830   O689    1.013   1_655 S
C833   O835    1.399   .     S
C833   O834    1.218   .     D
O835   H836    1.014   .     S
C837   O838    1.223   .     D
C837   O839    1.395   .     S
O839   H840    1.014   .     S
