data_str_m3_o1_o2_pcu_sym.60
_audit_creation_date              2020-01-03
_audit_creation_method            'Materials Studio'
_symmetry_space_group_name_H-M    'P1'
_symmetry_Int_Tables_number       1
_symmetry_cell_setting            triclinic
loop_
_symmetry_equiv_pos_as_xyz
  x,y,z
_cell_length_a                    31.8700
_cell_length_b                    29.5472
_cell_length_c                    30.0064
_cell_angle_alpha                 89.9918
_cell_angle_beta                  89.9807
_cell_angle_gamma                 91.0304
loop_
_atom_site_label
_atom_site_type_symbol
_atom_site_fract_x
_atom_site_fract_y
_atom_site_fract_z
_atom_site_U_iso_or_equiv
_atom_site_adp_type
_atom_site_occupancy
O1     O     0.10559   0.20487   0.25000   0.00000  Uiso   1.00
O2     O     0.22774   0.12846   0.25000   0.00000  Uiso   1.00
O3     O     0.22774   0.20487   0.25000   0.00000  Uiso   1.00
O4     O     0.10559   0.12846   0.25000   0.00000  Uiso   1.00
N5     N     0.16667   0.28573   0.25000   0.00000  Uiso   1.00
N6     N     0.16667   0.04760   0.25000   0.00000  Uiso   1.00
C7     C     0.08680   0.16620   0.25005   0.00000  Uiso   1.00
C8     C     0.24653   0.16714   0.25012   0.00000  Uiso   1.00
O9     O     0.16666   0.20489   0.18453   0.00000  Uiso   1.00
O10    O     0.16667   0.12845   0.31547   0.00000  Uiso   1.00
O11    O     0.16667   0.20489   0.31547   0.00000  Uiso   1.00
O12    O     0.16666   0.12845   0.18453   0.00000  Uiso   1.00
C13    C     0.16649   0.16667   0.16388   0.00000  Uiso   1.00
C14    C     0.16681   0.16667   0.33604   0.00000  Uiso   1.00
Zn15   Zn    0.16667   0.21771   0.25000   0.00000  Uiso   1.00
Zn16   Zn    0.16667   0.11563   0.25000   0.00000  Uiso   1.00
H17    H     0.21142   0.04298   0.30201   0.00000  Uiso   1.00
H18    H     0.12191   0.29035   0.19799   0.00000  Uiso   1.00
H19    H     0.12191   0.04128   0.19800   0.00000  Uiso   1.00
H20    H     0.21144   0.29205   0.30198   0.00000  Uiso   1.00
C21    C     0.19153   0.02445   0.27890   0.00000  Uiso   1.00
C22    C     0.14180   0.30889   0.22110   0.00000  Uiso   1.00
C23    C     0.14180   0.02350   0.22110   0.00000  Uiso   1.00
C24    C     0.19154   0.30983   0.27889   0.00000  Uiso   1.00
C25    C     0.02163   0.16238   0.20926   0.00000  Uiso   1.00
C26    C     0.31168   0.17083   0.29105   0.00000  Uiso   1.00
C27    C     0.31158   0.16461   0.20915   0.00000  Uiso   1.00
C28    C     0.02177   0.16872   0.29115   0.00000  Uiso   1.00
C29    C     0.17790   0.20607   0.04685   0.00000  Uiso   1.00
C30    C     0.18403   0.13039   0.45283   0.00000  Uiso   1.00
C31    C     0.14882   0.20284   0.45270   0.00000  Uiso   1.00
C32    C     0.15446   0.12723   0.04692   0.00000  Uiso   1.00
H33    H     0.18758   0.23651   0.02922   0.00000  Uiso   1.00
H34    H     0.19817   0.10255   0.47048   0.00000  Uiso   1.00
H35    H     0.13452   0.23065   0.47025   0.00000  Uiso   1.00
H36    H     0.14479   0.09677   0.02934   0.00000  Uiso   1.00
C37    C     0.17769   0.20618   0.09284   0.00000  Uiso   1.00
C38    C     0.18401   0.13030   0.40682   0.00000  Uiso   1.00
C39    C     0.14929   0.20303   0.40671   0.00000  Uiso   1.00
C40    C     0.15475   0.12716   0.09292   0.00000  Uiso   1.00
H41    H     0.18699   0.23687   0.11026   0.00000  Uiso   1.00
H42    H     0.19795   0.10227   0.38925   0.00000  Uiso   1.00
H43    H     0.13547   0.23107   0.38906   0.00000  Uiso   1.00
H44    H     0.14553   0.09648   0.11042   0.00000  Uiso   1.00
C45    C     0.16629   0.16667   0.11591   0.00000  Uiso   1.00
C46    C     0.16675   0.16668   0.38385   0.00000  Uiso   1.00
C47    C     0.16619   0.16663   0.02389   0.00000  Uiso   1.00
C48    C     0.16631   0.16659   0.47577   0.00000  Uiso   1.00
C49    C     0.29067   0.16857   0.25004   0.00000  Uiso   1.00
C50    C     0.04266   0.16475   0.25024   0.00000  Uiso   1.00
N51    N     0.04438   0.15943   0.16802   0.00000  Uiso   1.00
O52    O     0.06975   0.12616   0.16113   0.00000  Uiso   1.00
O53    O     0.03797   0.18853   0.13629   0.00000  Uiso   1.00
N54    N     0.28891   0.17338   0.33233   0.00000  Uiso   1.00
O55    O     0.26295   0.20612   0.33924   0.00000  Uiso   1.00
O56    O     0.29567   0.14429   0.36397   0.00000  Uiso   1.00
N57    N     0.28871   0.16184   0.16793   0.00000  Uiso   1.00
O58    O     0.26313   0.19375   0.15688   0.00000  Uiso   1.00
O59    O     0.29523   0.12884   0.14021   0.00000  Uiso   1.00
N60    N     0.04466   0.17164   0.33235   0.00000  Uiso   1.00
O61    O     0.07056   0.14000   0.34333   0.00000  Uiso   1.00
O62    O     0.03792   0.20456   0.36010   0.00000  Uiso   1.00
O63    O     0.43892   0.20487   0.25000   0.00000  Uiso   1.00
O64    O     0.56108   0.12846   0.25000   0.00000  Uiso   1.00
O65    O     0.56108   0.20487   0.25000   0.00000  Uiso   1.00
O66    O     0.43892   0.12846   0.25000   0.00000  Uiso   1.00
N67    N     0.50000   0.28573   0.25000   0.00000  Uiso   1.00
N68    N     0.50000   0.04760   0.25000   0.00000  Uiso   1.00
C69    C     0.42014   0.16620   0.25005   0.00000  Uiso   1.00
C70    C     0.57986   0.16714   0.25012   0.00000  Uiso   1.00
O71    O     0.50000   0.20489   0.18453   0.00000  Uiso   1.00
O72    O     0.50000   0.12845   0.31547   0.00000  Uiso   1.00
O73    O     0.50000   0.20489   0.31547   0.00000  Uiso   1.00
O74    O     0.50000   0.12845   0.18453   0.00000  Uiso   1.00
C75    C     0.49982   0.16667   0.16388   0.00000  Uiso   1.00
C76    C     0.50014   0.16667   0.33604   0.00000  Uiso   1.00
Zn77   Zn    0.50000   0.21771   0.25000   0.00000  Uiso   1.00
Zn78   Zn    0.50000   0.11563   0.25000   0.00000  Uiso   1.00
H79    H     0.54475   0.04298   0.30201   0.00000  Uiso   1.00
H80    H     0.45525   0.29035   0.19799   0.00000  Uiso   1.00
H81    H     0.45525   0.04128   0.19800   0.00000  Uiso   1.00
H82    H     0.54477   0.29205   0.30198   0.00000  Uiso   1.00
C83    C     0.52486   0.02445   0.27890   0.00000  Uiso   1.00
C84    C     0.47514   0.30889   0.22110   0.00000  Uiso   1.00
C85    C     0.47513   0.02350   0.22110   0.00000  Uiso   1.00
C86    C     0.52487   0.30983   0.27889   0.00000  Uiso   1.00
C87    C     0.35497   0.16238   0.20926   0.00000  Uiso   1.00
C88    C     0.64502   0.17083   0.29105   0.00000  Uiso   1.00
C89    C     0.64491   0.16461   0.20915   0.00000  Uiso   1.00
C90    C     0.35510   0.16872   0.29115   0.00000  Uiso   1.00
C91    C     0.51123   0.20607   0.04685   0.00000  Uiso   1.00
C92    C     0.51736   0.13039   0.45283   0.00000  Uiso   1.00
C93    C     0.48215   0.20284   0.45270   0.00000  Uiso   1.00
C94    C     0.48779   0.12723   0.04692   0.00000  Uiso   1.00
H95    H     0.52092   0.23651   0.02922   0.00000  Uiso   1.00
H96    H     0.53151   0.10255   0.47048   0.00000  Uiso   1.00
H97    H     0.46785   0.23065   0.47025   0.00000  Uiso   1.00
H98    H     0.47813   0.09677   0.02934   0.00000  Uiso   1.00
C99    C     0.51102   0.20618   0.09284   0.00000  Uiso   1.00
C100   C     0.51734   0.13030   0.40682   0.00000  Uiso   1.00
C101   C     0.48263   0.20303   0.40671   0.00000  Uiso   1.00
C102   C     0.48808   0.12716   0.09292   0.00000  Uiso   1.00
H103   H     0.52033   0.23687   0.11026   0.00000  Uiso   1.00
H104   H     0.53128   0.10227   0.38925   0.00000  Uiso   1.00
H105   H     0.46881   0.23107   0.38906   0.00000  Uiso   1.00
H106   H     0.47886   0.09648   0.11042   0.00000  Uiso   1.00
C107   C     0.49962   0.16667   0.11591   0.00000  Uiso   1.00
C108   C     0.50008   0.16668   0.38385   0.00000  Uiso   1.00
C109   C     0.49952   0.16663   0.02389   0.00000  Uiso   1.00
C110   C     0.49964   0.16659   0.47577   0.00000  Uiso   1.00
C111   C     0.62400   0.16857   0.25004   0.00000  Uiso   1.00
C112   C     0.37600   0.16475   0.25024   0.00000  Uiso   1.00
N113   N     0.37771   0.15943   0.16802   0.00000  Uiso   1.00
O114   O     0.40308   0.12616   0.16113   0.00000  Uiso   1.00
O115   O     0.37131   0.18853   0.13629   0.00000  Uiso   1.00
N116   N     0.62225   0.17338   0.33233   0.00000  Uiso   1.00
O117   O     0.59628   0.20612   0.33924   0.00000  Uiso   1.00
O118   O     0.62901   0.14429   0.36397   0.00000  Uiso   1.00
N119   N     0.62204   0.16184   0.16793   0.00000  Uiso   1.00
O120   O     0.59646   0.19375   0.15688   0.00000  Uiso   1.00
O121   O     0.62856   0.12884   0.14021   0.00000  Uiso   1.00
N122   N     0.37800   0.17164   0.33235   0.00000  Uiso   1.00
O123   O     0.40389   0.14000   0.34333   0.00000  Uiso   1.00
O124   O     0.37126   0.20456   0.36010   0.00000  Uiso   1.00
O125   O     0.77226   0.20487   0.25000   0.00000  Uiso   1.00
O126   O     0.89441   0.12846   0.25000   0.00000  Uiso   1.00
O127   O     0.89441   0.20487   0.25000   0.00000  Uiso   1.00
O128   O     0.77226   0.12846   0.25000   0.00000  Uiso   1.00
N129   N     0.83333   0.28573   0.25000   0.00000  Uiso   1.00
N130   N     0.83333   0.04760   0.25000   0.00000  Uiso   1.00
C131   C     0.75347   0.16620   0.25005   0.00000  Uiso   1.00
C132   C     0.91319   0.16714   0.25012   0.00000  Uiso   1.00
O133   O     0.83333   0.20489   0.18453   0.00000  Uiso   1.00
O134   O     0.83334   0.12845   0.31547   0.00000  Uiso   1.00
O135   O     0.83334   0.20489   0.31547   0.00000  Uiso   1.00
O136   O     0.83333   0.12845   0.18453   0.00000  Uiso   1.00
C137   C     0.83316   0.16667   0.16388   0.00000  Uiso   1.00
C138   C     0.83347   0.16667   0.33604   0.00000  Uiso   1.00
Zn139  Zn    0.83333   0.21771   0.25000   0.00000  Uiso   1.00
Zn140  Zn    0.83333   0.11563   0.25000   0.00000  Uiso   1.00
H141   H     0.87809   0.04298   0.30201   0.00000  Uiso   1.00
H142   H     0.78858   0.29035   0.19799   0.00000  Uiso   1.00
H143   H     0.78858   0.04128   0.19800   0.00000  Uiso   1.00
H144   H     0.87811   0.29205   0.30198   0.00000  Uiso   1.00
C145   C     0.85820   0.02445   0.27890   0.00000  Uiso   1.00
C146   C     0.80847   0.30889   0.22110   0.00000  Uiso   1.00
C147   C     0.80847   0.02350   0.22110   0.00000  Uiso   1.00
C148   C     0.85821   0.30983   0.27889   0.00000  Uiso   1.00
C149   C     0.68830   0.16238   0.20926   0.00000  Uiso   1.00
C150   C     0.97835   0.17083   0.29105   0.00000  Uiso   1.00
C151   C     0.97824   0.16461   0.20915   0.00000  Uiso   1.00
C152   C     0.68844   0.16872   0.29115   0.00000  Uiso   1.00
C153   C     0.84457   0.20607   0.04685   0.00000  Uiso   1.00
C154   C     0.85069   0.13039   0.45283   0.00000  Uiso   1.00
C155   C     0.81548   0.20284   0.45270   0.00000  Uiso   1.00
C156   C     0.82113   0.12723   0.04692   0.00000  Uiso   1.00
H157   H     0.85425   0.23651   0.02922   0.00000  Uiso   1.00
H158   H     0.86484   0.10255   0.47048   0.00000  Uiso   1.00
H159   H     0.80118   0.23065   0.47025   0.00000  Uiso   1.00
H160   H     0.81146   0.09677   0.02934   0.00000  Uiso   1.00
C161   C     0.84436   0.20618   0.09284   0.00000  Uiso   1.00
C162   C     0.85067   0.13030   0.40682   0.00000  Uiso   1.00
C163   C     0.81596   0.20303   0.40671   0.00000  Uiso   1.00
C164   C     0.82141   0.12716   0.09292   0.00000  Uiso   1.00
H165   H     0.85366   0.23687   0.11026   0.00000  Uiso   1.00
H166   H     0.86461   0.10227   0.38925   0.00000  Uiso   1.00
H167   H     0.80214   0.23107   0.38906   0.00000  Uiso   1.00
H168   H     0.81219   0.09648   0.11042   0.00000  Uiso   1.00
C169   C     0.83295   0.16667   0.11591   0.00000  Uiso   1.00
C170   C     0.83342   0.16668   0.38385   0.00000  Uiso   1.00
C171   C     0.83286   0.16663   0.02389   0.00000  Uiso   1.00
C172   C     0.83298   0.16659   0.47577   0.00000  Uiso   1.00
C173   C     0.95733   0.16857   0.25004   0.00000  Uiso   1.00
C174   C     0.70933   0.16475   0.25024   0.00000  Uiso   1.00
N175   N     0.71105   0.15943   0.16802   0.00000  Uiso   1.00
O176   O     0.73642   0.12616   0.16113   0.00000  Uiso   1.00
O177   O     0.70464   0.18853   0.13629   0.00000  Uiso   1.00
N178   N     0.95558   0.17338   0.33233   0.00000  Uiso   1.00
O179   O     0.92962   0.20612   0.33924   0.00000  Uiso   1.00
O180   O     0.96234   0.14429   0.36397   0.00000  Uiso   1.00
N181   N     0.95538   0.16184   0.16793   0.00000  Uiso   1.00
O182   O     0.92979   0.19375   0.15688   0.00000  Uiso   1.00
O183   O     0.96190   0.12884   0.14021   0.00000  Uiso   1.00
N184   N     0.71133   0.17164   0.33235   0.00000  Uiso   1.00
O185   O     0.73723   0.14000   0.34333   0.00000  Uiso   1.00
O186   O     0.70459   0.20456   0.36010   0.00000  Uiso   1.00
O187   O     0.10559   0.53821   0.25000   0.00000  Uiso   1.00
O188   O     0.22774   0.46179   0.25000   0.00000  Uiso   1.00
O189   O     0.22774   0.53821   0.25000   0.00000  Uiso   1.00
O190   O     0.10559   0.46179   0.25000   0.00000  Uiso   1.00
N191   N     0.16667   0.61907   0.25000   0.00000  Uiso   1.00
N192   N     0.16667   0.38093   0.25000   0.00000  Uiso   1.00
C193   C     0.08680   0.49953   0.25005   0.00000  Uiso   1.00
C194   C     0.24653   0.50047   0.25012   0.00000  Uiso   1.00
O195   O     0.16666   0.53822   0.18453   0.00000  Uiso   1.00
O196   O     0.16667   0.46178   0.31547   0.00000  Uiso   1.00
O197   O     0.16667   0.53822   0.31547   0.00000  Uiso   1.00
O198   O     0.16666   0.46178   0.18453   0.00000  Uiso   1.00
C199   C     0.16649   0.50000   0.16388   0.00000  Uiso   1.00
C200   C     0.16681   0.50000   0.33604   0.00000  Uiso   1.00
Zn201  Zn    0.16667   0.55104   0.25000   0.00000  Uiso   1.00
Zn202  Zn    0.16667   0.44896   0.25000   0.00000  Uiso   1.00
H203   H     0.21142   0.37632   0.30201   0.00000  Uiso   1.00
H204   H     0.12191   0.62369   0.19799   0.00000  Uiso   1.00
H205   H     0.12191   0.37462   0.19800   0.00000  Uiso   1.00
H206   H     0.21144   0.62539   0.30198   0.00000  Uiso   1.00
C207   C     0.19153   0.35778   0.27890   0.00000  Uiso   1.00
C208   C     0.14180   0.64222   0.22110   0.00000  Uiso   1.00
C209   C     0.14180   0.35684   0.22110   0.00000  Uiso   1.00
C210   C     0.19154   0.64316   0.27889   0.00000  Uiso   1.00
C211   C     0.02163   0.49571   0.20926   0.00000  Uiso   1.00
C212   C     0.31168   0.50416   0.29105   0.00000  Uiso   1.00
C213   C     0.31158   0.49794   0.20915   0.00000  Uiso   1.00
C214   C     0.02177   0.50206   0.29115   0.00000  Uiso   1.00
C215   C     0.17790   0.53940   0.04685   0.00000  Uiso   1.00
C216   C     0.18403   0.46372   0.45283   0.00000  Uiso   1.00
C217   C     0.14882   0.53617   0.45270   0.00000  Uiso   1.00
C218   C     0.15446   0.46057   0.04692   0.00000  Uiso   1.00
H219   H     0.18758   0.56984   0.02922   0.00000  Uiso   1.00
H220   H     0.19817   0.43589   0.47048   0.00000  Uiso   1.00
H221   H     0.13452   0.56398   0.47025   0.00000  Uiso   1.00
H222   H     0.14479   0.43010   0.02934   0.00000  Uiso   1.00
C223   C     0.17769   0.53952   0.09284   0.00000  Uiso   1.00
C224   C     0.18401   0.46363   0.40682   0.00000  Uiso   1.00
C225   C     0.14929   0.53636   0.40671   0.00000  Uiso   1.00
C226   C     0.15475   0.46050   0.09292   0.00000  Uiso   1.00
H227   H     0.18699   0.57020   0.11026   0.00000  Uiso   1.00
H228   H     0.19795   0.43561   0.38925   0.00000  Uiso   1.00
H229   H     0.13547   0.56440   0.38906   0.00000  Uiso   1.00
H230   H     0.14553   0.42982   0.11042   0.00000  Uiso   1.00
C231   C     0.16629   0.50001   0.11591   0.00000  Uiso   1.00
C232   C     0.16675   0.50002   0.38385   0.00000  Uiso   1.00
C233   C     0.16619   0.49997   0.02389   0.00000  Uiso   1.00
C234   C     0.16631   0.49993   0.47577   0.00000  Uiso   1.00
C235   C     0.29067   0.50190   0.25004   0.00000  Uiso   1.00
C236   C     0.04266   0.49809   0.25024   0.00000  Uiso   1.00
N237   N     0.04438   0.49277   0.16802   0.00000  Uiso   1.00
O238   O     0.06975   0.45949   0.16113   0.00000  Uiso   1.00
O239   O     0.03797   0.52186   0.13629   0.00000  Uiso   1.00
N240   N     0.28891   0.50671   0.33233   0.00000  Uiso   1.00
O241   O     0.26295   0.53945   0.33924   0.00000  Uiso   1.00
O242   O     0.29567   0.47762   0.36397   0.00000  Uiso   1.00
N243   N     0.28871   0.49518   0.16793   0.00000  Uiso   1.00
O244   O     0.26313   0.52709   0.15688   0.00000  Uiso   1.00
O245   O     0.29523   0.46218   0.14021   0.00000  Uiso   1.00
N246   N     0.04466   0.50497   0.33235   0.00000  Uiso   1.00
O247   O     0.07056   0.47333   0.34333   0.00000  Uiso   1.00
O248   O     0.03792   0.53790   0.36010   0.00000  Uiso   1.00
O249   O     0.43892   0.53821   0.25000   0.00000  Uiso   1.00
O250   O     0.56108   0.46179   0.25000   0.00000  Uiso   1.00
O251   O     0.56108   0.53821   0.25000   0.00000  Uiso   1.00
O252   O     0.43892   0.46179   0.25000   0.00000  Uiso   1.00
N253   N     0.50000   0.61907   0.25000   0.00000  Uiso   1.00
N254   N     0.50000   0.38093   0.25000   0.00000  Uiso   1.00
C255   C     0.42014   0.49953   0.25005   0.00000  Uiso   1.00
C256   C     0.57986   0.50047   0.25012   0.00000  Uiso   1.00
O257   O     0.50000   0.53822   0.18453   0.00000  Uiso   1.00
O258   O     0.50000   0.46178   0.31547   0.00000  Uiso   1.00
O259   O     0.50000   0.53822   0.31547   0.00000  Uiso   1.00
O260   O     0.50000   0.46178   0.18453   0.00000  Uiso   1.00
C261   C     0.49982   0.50000   0.16388   0.00000  Uiso   1.00
C262   C     0.50014   0.50000   0.33604   0.00000  Uiso   1.00
Zn263  Zn    0.50000   0.55104   0.25000   0.00000  Uiso   1.00
Zn264  Zn    0.50000   0.44896   0.25000   0.00000  Uiso   1.00
H265   H     0.54475   0.37632   0.30201   0.00000  Uiso   1.00
H266   H     0.45525   0.62369   0.19799   0.00000  Uiso   1.00
H267   H     0.45525   0.37462   0.19800   0.00000  Uiso   1.00
H268   H     0.54477   0.62539   0.30198   0.00000  Uiso   1.00
C269   C     0.52486   0.35778   0.27890   0.00000  Uiso   1.00
C270   C     0.47514   0.64222   0.22110   0.00000  Uiso   1.00
C271   C     0.47513   0.35684   0.22110   0.00000  Uiso   1.00
C272   C     0.52487   0.64316   0.27889   0.00000  Uiso   1.00
C273   C     0.35497   0.49571   0.20926   0.00000  Uiso   1.00
C274   C     0.64502   0.50416   0.29105   0.00000  Uiso   1.00
C275   C     0.64491   0.49794   0.20915   0.00000  Uiso   1.00
C276   C     0.35510   0.50206   0.29115   0.00000  Uiso   1.00
C277   C     0.51123   0.53940   0.04685   0.00000  Uiso   1.00
C278   C     0.51736   0.46372   0.45283   0.00000  Uiso   1.00
C279   C     0.48215   0.53617   0.45270   0.00000  Uiso   1.00
C280   C     0.48779   0.46057   0.04692   0.00000  Uiso   1.00
H281   H     0.52092   0.56984   0.02922   0.00000  Uiso   1.00
H282   H     0.53151   0.43589   0.47048   0.00000  Uiso   1.00
H283   H     0.46785   0.56398   0.47025   0.00000  Uiso   1.00
H284   H     0.47813   0.43010   0.02934   0.00000  Uiso   1.00
C285   C     0.51102   0.53952   0.09284   0.00000  Uiso   1.00
C286   C     0.51734   0.46363   0.40682   0.00000  Uiso   1.00
C287   C     0.48263   0.53636   0.40671   0.00000  Uiso   1.00
C288   C     0.48808   0.46050   0.09292   0.00000  Uiso   1.00
H289   H     0.52033   0.57020   0.11026   0.00000  Uiso   1.00
H290   H     0.53128   0.43561   0.38925   0.00000  Uiso   1.00
H291   H     0.46881   0.56440   0.38906   0.00000  Uiso   1.00
H292   H     0.47886   0.42982   0.11042   0.00000  Uiso   1.00
C293   C     0.49962   0.50001   0.11591   0.00000  Uiso   1.00
C294   C     0.50008   0.50002   0.38385   0.00000  Uiso   1.00
C295   C     0.49952   0.49997   0.02389   0.00000  Uiso   1.00
C296   C     0.49964   0.49993   0.47577   0.00000  Uiso   1.00
C297   C     0.62400   0.50190   0.25004   0.00000  Uiso   1.00
C298   C     0.37600   0.49809   0.25024   0.00000  Uiso   1.00
N299   N     0.37771   0.49277   0.16802   0.00000  Uiso   1.00
O300   O     0.40308   0.45949   0.16113   0.00000  Uiso   1.00
O301   O     0.37131   0.52186   0.13629   0.00000  Uiso   1.00
N302   N     0.62225   0.50671   0.33233   0.00000  Uiso   1.00
O303   O     0.59628   0.53945   0.33924   0.00000  Uiso   1.00
O304   O     0.62901   0.47762   0.36397   0.00000  Uiso   1.00
N305   N     0.62204   0.49518   0.16793   0.00000  Uiso   1.00
O306   O     0.59646   0.52709   0.15688   0.00000  Uiso   1.00
O307   O     0.62856   0.46218   0.14021   0.00000  Uiso   1.00
N308   N     0.37800   0.50497   0.33235   0.00000  Uiso   1.00
O309   O     0.40389   0.47333   0.34333   0.00000  Uiso   1.00
O310   O     0.37126   0.53790   0.36010   0.00000  Uiso   1.00
O311   O     0.77226   0.53821   0.25000   0.00000  Uiso   1.00
O312   O     0.89441   0.46179   0.25000   0.00000  Uiso   1.00
O313   O     0.89441   0.53821   0.25000   0.00000  Uiso   1.00
O314   O     0.77226   0.46179   0.25000   0.00000  Uiso   1.00
N315   N     0.83333   0.61907   0.25000   0.00000  Uiso   1.00
N316   N     0.83333   0.38093   0.25000   0.00000  Uiso   1.00
C317   C     0.75347   0.49953   0.25005   0.00000  Uiso   1.00
C318   C     0.91319   0.50047   0.25012   0.00000  Uiso   1.00
O319   O     0.83333   0.53822   0.18453   0.00000  Uiso   1.00
O320   O     0.83334   0.46178   0.31547   0.00000  Uiso   1.00
O321   O     0.83334   0.53822   0.31547   0.00000  Uiso   1.00
O322   O     0.83333   0.46178   0.18453   0.00000  Uiso   1.00
C323   C     0.83316   0.50000   0.16388   0.00000  Uiso   1.00
C324   C     0.83347   0.50000   0.33604   0.00000  Uiso   1.00
Zn325  Zn    0.83333   0.55104   0.25000   0.00000  Uiso   1.00
Zn326  Zn    0.83333   0.44896   0.25000   0.00000  Uiso   1.00
H327   H     0.87809   0.37632   0.30201   0.00000  Uiso   1.00
H328   H     0.78858   0.62369   0.19799   0.00000  Uiso   1.00
H329   H     0.78858   0.37462   0.19800   0.00000  Uiso   1.00
H330   H     0.87811   0.62539   0.30198   0.00000  Uiso   1.00
C331   C     0.85820   0.35778   0.27890   0.00000  Uiso   1.00
C332   C     0.80847   0.64222   0.22110   0.00000  Uiso   1.00
C333   C     0.80847   0.35684   0.22110   0.00000  Uiso   1.00
C334   C     0.85821   0.64316   0.27889   0.00000  Uiso   1.00
C335   C     0.68830   0.49571   0.20926   0.00000  Uiso   1.00
C336   C     0.97835   0.50416   0.29105   0.00000  Uiso   1.00
C337   C     0.97824   0.49794   0.20915   0.00000  Uiso   1.00
C338   C     0.68844   0.50206   0.29115   0.00000  Uiso   1.00
C339   C     0.84457   0.53940   0.04685   0.00000  Uiso   1.00
C340   C     0.85069   0.46372   0.45283   0.00000  Uiso   1.00
C341   C     0.81548   0.53617   0.45270   0.00000  Uiso   1.00
C342   C     0.82113   0.46057   0.04692   0.00000  Uiso   1.00
H343   H     0.85425   0.56984   0.02922   0.00000  Uiso   1.00
H344   H     0.86484   0.43589   0.47048   0.00000  Uiso   1.00
H345   H     0.80118   0.56398   0.47025   0.00000  Uiso   1.00
H346   H     0.81146   0.43010   0.02934   0.00000  Uiso   1.00
C347   C     0.84436   0.53952   0.09284   0.00000  Uiso   1.00
C348   C     0.85067   0.46363   0.40682   0.00000  Uiso   1.00
C349   C     0.81596   0.53636   0.40671   0.00000  Uiso   1.00
C350   C     0.82141   0.46050   0.09292   0.00000  Uiso   1.00
H351   H     0.85366   0.57020   0.11026   0.00000  Uiso   1.00
H352   H     0.86461   0.43561   0.38925   0.00000  Uiso   1.00
H353   H     0.80214   0.56440   0.38906   0.00000  Uiso   1.00
H354   H     0.81219   0.42982   0.11042   0.00000  Uiso   1.00
C355   C     0.83295   0.50001   0.11591   0.00000  Uiso   1.00
C356   C     0.83342   0.50002   0.38385   0.00000  Uiso   1.00
C357   C     0.83286   0.49997   0.02389   0.00000  Uiso   1.00
C358   C     0.83298   0.49993   0.47577   0.00000  Uiso   1.00
C359   C     0.95733   0.50190   0.25004   0.00000  Uiso   1.00
C360   C     0.70933   0.49809   0.25024   0.00000  Uiso   1.00
N361   N     0.71105   0.49277   0.16802   0.00000  Uiso   1.00
O362   O     0.73642   0.45949   0.16113   0.00000  Uiso   1.00
O363   O     0.70464   0.52186   0.13629   0.00000  Uiso   1.00
N364   N     0.95558   0.50671   0.33233   0.00000  Uiso   1.00
O365   O     0.92962   0.53945   0.33924   0.00000  Uiso   1.00
O366   O     0.96234   0.47762   0.36397   0.00000  Uiso   1.00
N367   N     0.95538   0.49518   0.16793   0.00000  Uiso   1.00
O368   O     0.92979   0.52709   0.15688   0.00000  Uiso   1.00
O369   O     0.96190   0.46218   0.14021   0.00000  Uiso   1.00
N370   N     0.71133   0.50497   0.33235   0.00000  Uiso   1.00
O371   O     0.73723   0.47333   0.34333   0.00000  Uiso   1.00
O372   O     0.70459   0.53790   0.36010   0.00000  Uiso   1.00
O373   O     0.10559   0.87154   0.25000   0.00000  Uiso   1.00
O374   O     0.22774   0.79513   0.25000   0.00000  Uiso   1.00
O375   O     0.22774   0.87154   0.25000   0.00000  Uiso   1.00
O376   O     0.10559   0.79513   0.25000   0.00000  Uiso   1.00
N377   N     0.16667   0.95240   0.25000   0.00000  Uiso   1.00
N378   N     0.16667   0.71427   0.25000   0.00000  Uiso   1.00
C379   C     0.08680   0.83286   0.25005   0.00000  Uiso   1.00
C380   C     0.24653   0.83380   0.25012   0.00000  Uiso   1.00
O381   O     0.16666   0.87155   0.18453   0.00000  Uiso   1.00
O382   O     0.16667   0.79511   0.31547   0.00000  Uiso   1.00
O383   O     0.16667   0.87155   0.31547   0.00000  Uiso   1.00
O384   O     0.16666   0.79511   0.18453   0.00000  Uiso   1.00
C385   C     0.16649   0.83333   0.16388   0.00000  Uiso   1.00
C386   C     0.16681   0.83334   0.33604   0.00000  Uiso   1.00
Zn387  Zn    0.16667   0.88437   0.25000   0.00000  Uiso   1.00
Zn388  Zn    0.16667   0.78229   0.25000   0.00000  Uiso   1.00
H389   H     0.21142   0.70965   0.30201   0.00000  Uiso   1.00
H390   H     0.12191   0.95702   0.19799   0.00000  Uiso   1.00
H391   H     0.12191   0.70795   0.19800   0.00000  Uiso   1.00
H392   H     0.21144   0.95872   0.30198   0.00000  Uiso   1.00
C393   C     0.19153   0.69111   0.27890   0.00000  Uiso   1.00
C394   C     0.14180   0.97555   0.22110   0.00000  Uiso   1.00
C395   C     0.14180   0.69017   0.22110   0.00000  Uiso   1.00
C396   C     0.19154   0.97650   0.27889   0.00000  Uiso   1.00
C397   C     0.02163   0.82904   0.20926   0.00000  Uiso   1.00
C398   C     0.31168   0.83750   0.29105   0.00000  Uiso   1.00
C399   C     0.31158   0.83127   0.20915   0.00000  Uiso   1.00
C400   C     0.02177   0.83539   0.29115   0.00000  Uiso   1.00
C401   C     0.17790   0.87274   0.04685   0.00000  Uiso   1.00
C402   C     0.18403   0.79706   0.45283   0.00000  Uiso   1.00
C403   C     0.14882   0.86950   0.45270   0.00000  Uiso   1.00
C404   C     0.15446   0.79390   0.04692   0.00000  Uiso   1.00
H405   H     0.18758   0.90318   0.02922   0.00000  Uiso   1.00
H406   H     0.19817   0.76922   0.47048   0.00000  Uiso   1.00
H407   H     0.13452   0.89732   0.47025   0.00000  Uiso   1.00
H408   H     0.14479   0.76343   0.02934   0.00000  Uiso   1.00
C409   C     0.17769   0.87285   0.09284   0.00000  Uiso   1.00
C410   C     0.18401   0.79696   0.40682   0.00000  Uiso   1.00
C411   C     0.14929   0.86969   0.40671   0.00000  Uiso   1.00
C412   C     0.15475   0.79383   0.09292   0.00000  Uiso   1.00
H413   H     0.18699   0.90354   0.11026   0.00000  Uiso   1.00
H414   H     0.19795   0.76894   0.38925   0.00000  Uiso   1.00
H415   H     0.13547   0.89774   0.38906   0.00000  Uiso   1.00
H416   H     0.14553   0.76315   0.11042   0.00000  Uiso   1.00
C417   C     0.16629   0.83334   0.11591   0.00000  Uiso   1.00
C418   C     0.16675   0.83335   0.38385   0.00000  Uiso   1.00
C419   C     0.16619   0.83330   0.02389   0.00000  Uiso   1.00
C420   C     0.16631   0.83326   0.47577   0.00000  Uiso   1.00
C421   C     0.29067   0.83523   0.25004   0.00000  Uiso   1.00
C422   C     0.04266   0.83142   0.25024   0.00000  Uiso   1.00
N423   N     0.04438   0.82610   0.16802   0.00000  Uiso   1.00
O424   O     0.06975   0.79282   0.16113   0.00000  Uiso   1.00
O425   O     0.03797   0.85520   0.13629   0.00000  Uiso   1.00
N426   N     0.28891   0.84005   0.33233   0.00000  Uiso   1.00
O427   O     0.26295   0.87279   0.33924   0.00000  Uiso   1.00
O428   O     0.29567   0.81096   0.36397   0.00000  Uiso   1.00
N429   N     0.28871   0.82851   0.16793   0.00000  Uiso   1.00
O430   O     0.26313   0.86042   0.15688   0.00000  Uiso   1.00
O431   O     0.29523   0.79551   0.14021   0.00000  Uiso   1.00
N432   N     0.04466   0.83831   0.33235   0.00000  Uiso   1.00
O433   O     0.07056   0.80666   0.34333   0.00000  Uiso   1.00
O434   O     0.03792   0.87123   0.36010   0.00000  Uiso   1.00
O435   O     0.43892   0.87154   0.25000   0.00000  Uiso   1.00
O436   O     0.56108   0.79513   0.25000   0.00000  Uiso   1.00
O437   O     0.56108   0.87154   0.25000   0.00000  Uiso   1.00
O438   O     0.43892   0.79513   0.25000   0.00000  Uiso   1.00
N439   N     0.50000   0.95240   0.25000   0.00000  Uiso   1.00
N440   N     0.50000   0.71427   0.25000   0.00000  Uiso   1.00
C441   C     0.42014   0.83286   0.25005   0.00000  Uiso   1.00
C442   C     0.57986   0.83380   0.25012   0.00000  Uiso   1.00
O443   O     0.50000   0.87155   0.18453   0.00000  Uiso   1.00
O444   O     0.50000   0.79511   0.31547   0.00000  Uiso   1.00
O445   O     0.50000   0.87155   0.31547   0.00000  Uiso   1.00
O446   O     0.50000   0.79511   0.18453   0.00000  Uiso   1.00
C447   C     0.49982   0.83333   0.16388   0.00000  Uiso   1.00
C448   C     0.50014   0.83334   0.33604   0.00000  Uiso   1.00
Zn449  Zn    0.50000   0.88437   0.25000   0.00000  Uiso   1.00
Zn450  Zn    0.50000   0.78229   0.25000   0.00000  Uiso   1.00
H451   H     0.54475   0.70965   0.30201   0.00000  Uiso   1.00
H452   H     0.45525   0.95702   0.19799   0.00000  Uiso   1.00
H453   H     0.45525   0.70795   0.19800   0.00000  Uiso   1.00
H454   H     0.54477   0.95872   0.30198   0.00000  Uiso   1.00
C455   C     0.52486   0.69111   0.27890   0.00000  Uiso   1.00
C456   C     0.47514   0.97555   0.22110   0.00000  Uiso   1.00
C457   C     0.47513   0.69017   0.22110   0.00000  Uiso   1.00
C458   C     0.52487   0.97650   0.27889   0.00000  Uiso   1.00
C459   C     0.35497   0.82904   0.20926   0.00000  Uiso   1.00
C460   C     0.64502   0.83750   0.29105   0.00000  Uiso   1.00
C461   C     0.64491   0.83127   0.20915   0.00000  Uiso   1.00
C462   C     0.35510   0.83539   0.29115   0.00000  Uiso   1.00
C463   C     0.51123   0.87274   0.04685   0.00000  Uiso   1.00
C464   C     0.51736   0.79706   0.45283   0.00000  Uiso   1.00
C465   C     0.48215   0.86950   0.45270   0.00000  Uiso   1.00
C466   C     0.48779   0.79390   0.04692   0.00000  Uiso   1.00
H467   H     0.52092   0.90318   0.02922   0.00000  Uiso   1.00
H468   H     0.53151   0.76922   0.47048   0.00000  Uiso   1.00
H469   H     0.46785   0.89732   0.47025   0.00000  Uiso   1.00
H470   H     0.47813   0.76343   0.02934   0.00000  Uiso   1.00
C471   C     0.51102   0.87285   0.09284   0.00000  Uiso   1.00
C472   C     0.51734   0.79696   0.40682   0.00000  Uiso   1.00
C473   C     0.48263   0.86969   0.40671   0.00000  Uiso   1.00
C474   C     0.48808   0.79383   0.09292   0.00000  Uiso   1.00
H475   H     0.52033   0.90354   0.11026   0.00000  Uiso   1.00
H476   H     0.53128   0.76894   0.38925   0.00000  Uiso   1.00
H477   H     0.46881   0.89774   0.38906   0.00000  Uiso   1.00
H478   H     0.47886   0.76315   0.11042   0.00000  Uiso   1.00
C479   C     0.49962   0.83334   0.11591   0.00000  Uiso   1.00
C480   C     0.50008   0.83335   0.38385   0.00000  Uiso   1.00
C481   C     0.49952   0.83330   0.02389   0.00000  Uiso   1.00
C482   C     0.49964   0.83326   0.47577   0.00000  Uiso   1.00
C483   C     0.62400   0.83523   0.25004   0.00000  Uiso   1.00
C484   C     0.37600   0.83142   0.25024   0.00000  Uiso   1.00
N485   N     0.37771   0.82610   0.16802   0.00000  Uiso   1.00
O486   O     0.40308   0.79282   0.16113   0.00000  Uiso   1.00
O487   O     0.37131   0.85520   0.13629   0.00000  Uiso   1.00
N488   N     0.62225   0.84005   0.33233   0.00000  Uiso   1.00
O489   O     0.59628   0.87279   0.33924   0.00000  Uiso   1.00
O490   O     0.62901   0.81096   0.36397   0.00000  Uiso   1.00
N491   N     0.62204   0.82851   0.16793   0.00000  Uiso   1.00
O492   O     0.59646   0.86042   0.15688   0.00000  Uiso   1.00
O493   O     0.62856   0.79551   0.14021   0.00000  Uiso   1.00
N494   N     0.37800   0.83831   0.33235   0.00000  Uiso   1.00
O495   O     0.40389   0.80666   0.34333   0.00000  Uiso   1.00
O496   O     0.37126   0.87123   0.36010   0.00000  Uiso   1.00
O497   O     0.77226   0.87154   0.25000   0.00000  Uiso   1.00
O498   O     0.89441   0.79513   0.25000   0.00000  Uiso   1.00
O499   O     0.89441   0.87154   0.25000   0.00000  Uiso   1.00
O500   O     0.77226   0.79513   0.25000   0.00000  Uiso   1.00
N501   N     0.83333   0.95240   0.25000   0.00000  Uiso   1.00
N502   N     0.83333   0.71427   0.25000   0.00000  Uiso   1.00
C503   C     0.75347   0.83286   0.25005   0.00000  Uiso   1.00
C504   C     0.91319   0.83380   0.25012   0.00000  Uiso   1.00
O505   O     0.83333   0.87155   0.18453   0.00000  Uiso   1.00
O506   O     0.83334   0.79511   0.31547   0.00000  Uiso   1.00
O507   O     0.83334   0.87155   0.31547   0.00000  Uiso   1.00
O508   O     0.83333   0.79511   0.18453   0.00000  Uiso   1.00
C509   C     0.83316   0.83333   0.16388   0.00000  Uiso   1.00
C510   C     0.83347   0.83334   0.33604   0.00000  Uiso   1.00
Zn511  Zn    0.83333   0.88437   0.25000   0.00000  Uiso   1.00
Zn512  Zn    0.83333   0.78229   0.25000   0.00000  Uiso   1.00
H513   H     0.87809   0.70965   0.30201   0.00000  Uiso   1.00
H514   H     0.78858   0.95702   0.19799   0.00000  Uiso   1.00
H515   H     0.78858   0.70795   0.19800   0.00000  Uiso   1.00
H516   H     0.87811   0.95872   0.30198   0.00000  Uiso   1.00
C517   C     0.85820   0.69111   0.27890   0.00000  Uiso   1.00
C518   C     0.80847   0.97555   0.22110   0.00000  Uiso   1.00
C519   C     0.80847   0.69017   0.22110   0.00000  Uiso   1.00
C520   C     0.85821   0.97650   0.27889   0.00000  Uiso   1.00
C521   C     0.68830   0.82904   0.20926   0.00000  Uiso   1.00
C522   C     0.97835   0.83750   0.29105   0.00000  Uiso   1.00
C523   C     0.97824   0.83127   0.20915   0.00000  Uiso   1.00
C524   C     0.68844   0.83539   0.29115   0.00000  Uiso   1.00
C525   C     0.84457   0.87274   0.04685   0.00000  Uiso   1.00
C526   C     0.85069   0.79706   0.45283   0.00000  Uiso   1.00
C527   C     0.81548   0.86950   0.45270   0.00000  Uiso   1.00
C528   C     0.82113   0.79390   0.04692   0.00000  Uiso   1.00
H529   H     0.85425   0.90318   0.02922   0.00000  Uiso   1.00
H530   H     0.86484   0.76922   0.47048   0.00000  Uiso   1.00
H531   H     0.80118   0.89732   0.47025   0.00000  Uiso   1.00
H532   H     0.81146   0.76343   0.02934   0.00000  Uiso   1.00
C533   C     0.84436   0.87285   0.09284   0.00000  Uiso   1.00
C534   C     0.85067   0.79696   0.40682   0.00000  Uiso   1.00
C535   C     0.81596   0.86969   0.40671   0.00000  Uiso   1.00
C536   C     0.82141   0.79383   0.09292   0.00000  Uiso   1.00
H537   H     0.85366   0.90354   0.11026   0.00000  Uiso   1.00
H538   H     0.86461   0.76894   0.38925   0.00000  Uiso   1.00
H539   H     0.80214   0.89774   0.38906   0.00000  Uiso   1.00
H540   H     0.81219   0.76315   0.11042   0.00000  Uiso   1.00
C541   C     0.83295   0.83334   0.11591   0.00000  Uiso   1.00
C542   C     0.83342   0.83335   0.38385   0.00000  Uiso   1.00
C543   C     0.83286   0.83330   0.02389   0.00000  Uiso   1.00
C544   C     0.83298   0.83326   0.47577   0.00000  Uiso   1.00
C545   C     0.95733   0.83523   0.25004   0.00000  Uiso   1.00
C546   C     0.70933   0.83142   0.25024   0.00000  Uiso   1.00
N547   N     0.71105   0.82610   0.16802   0.00000  Uiso   1.00
O548   O     0.73642   0.79282   0.16113   0.00000  Uiso   1.00
O549   O     0.70464   0.85520   0.13629   0.00000  Uiso   1.00
N550   N     0.95558   0.84005   0.33233   0.00000  Uiso   1.00
O551   O     0.92962   0.87279   0.33924   0.00000  Uiso   1.00
O552   O     0.96234   0.81096   0.36397   0.00000  Uiso   1.00
N553   N     0.95538   0.82851   0.16793   0.00000  Uiso   1.00
O554   O     0.92979   0.86042   0.15688   0.00000  Uiso   1.00
O555   O     0.96190   0.79551   0.14021   0.00000  Uiso   1.00
N556   N     0.71133   0.83831   0.33235   0.00000  Uiso   1.00
O557   O     0.73723   0.80666   0.34333   0.00000  Uiso   1.00
O558   O     0.70459   0.87123   0.36010   0.00000  Uiso   1.00
O559   O     0.10559   0.20487   0.75000   0.00000  Uiso   1.00
O560   O     0.22774   0.12846   0.75000   0.00000  Uiso   1.00
O561   O     0.22774   0.20487   0.75000   0.00000  Uiso   1.00
O562   O     0.10559   0.12846   0.75000   0.00000  Uiso   1.00
N563   N     0.16667   0.28573   0.75000   0.00000  Uiso   1.00
N564   N     0.16667   0.04760   0.75000   0.00000  Uiso   1.00
C565   C     0.08680   0.16620   0.75005   0.00000  Uiso   1.00
C566   C     0.24653   0.16714   0.75012   0.00000  Uiso   1.00
O567   O     0.16666   0.20489   0.68453   0.00000  Uiso   1.00
O568   O     0.16667   0.12845   0.81547   0.00000  Uiso   1.00
O569   O     0.16667   0.20489   0.81547   0.00000  Uiso   1.00
O570   O     0.16666   0.12845   0.68453   0.00000  Uiso   1.00
C571   C     0.16649   0.16667   0.66388   0.00000  Uiso   1.00
C572   C     0.16681   0.16667   0.83604   0.00000  Uiso   1.00
Zn573  Zn    0.16667   0.21771   0.75000   0.00000  Uiso   1.00
Zn574  Zn    0.16667   0.11563   0.75000   0.00000  Uiso   1.00
H575   H     0.21142   0.04298   0.80201   0.00000  Uiso   1.00
H576   H     0.12191   0.29035   0.69799   0.00000  Uiso   1.00
H577   H     0.12191   0.04128   0.69800   0.00000  Uiso   1.00
H578   H     0.21144   0.29205   0.80198   0.00000  Uiso   1.00
C579   C     0.19153   0.02445   0.77890   0.00000  Uiso   1.00
C580   C     0.14180   0.30889   0.72110   0.00000  Uiso   1.00
C581   C     0.14180   0.02350   0.72110   0.00000  Uiso   1.00
C582   C     0.19154   0.30983   0.77889   0.00000  Uiso   1.00
C583   C     0.02163   0.16238   0.70926   0.00000  Uiso   1.00
C584   C     0.31168   0.17083   0.79105   0.00000  Uiso   1.00
C585   C     0.31158   0.16461   0.70915   0.00000  Uiso   1.00
C586   C     0.02177   0.16872   0.79115   0.00000  Uiso   1.00
C587   C     0.17790   0.20607   0.54685   0.00000  Uiso   1.00
C588   C     0.18403   0.13039   0.95283   0.00000  Uiso   1.00
C589   C     0.14882   0.20284   0.95270   0.00000  Uiso   1.00
C590   C     0.15446   0.12723   0.54692   0.00000  Uiso   1.00
H591   H     0.18758   0.23651   0.52922   0.00000  Uiso   1.00
H592   H     0.19817   0.10255   0.97048   0.00000  Uiso   1.00
H593   H     0.13452   0.23065   0.97025   0.00000  Uiso   1.00
H594   H     0.14479   0.09677   0.52934   0.00000  Uiso   1.00
C595   C     0.17769   0.20618   0.59284   0.00000  Uiso   1.00
C596   C     0.18401   0.13030   0.90682   0.00000  Uiso   1.00
C597   C     0.14929   0.20303   0.90671   0.00000  Uiso   1.00
C598   C     0.15475   0.12716   0.59292   0.00000  Uiso   1.00
H599   H     0.18699   0.23687   0.61026   0.00000  Uiso   1.00
H600   H     0.19795   0.10227   0.88925   0.00000  Uiso   1.00
H601   H     0.13547   0.23107   0.88906   0.00000  Uiso   1.00
H602   H     0.14553   0.09648   0.61042   0.00000  Uiso   1.00
C603   C     0.16629   0.16667   0.61591   0.00000  Uiso   1.00
C604   C     0.16675   0.16668   0.88385   0.00000  Uiso   1.00
C605   C     0.16619   0.16663   0.52389   0.00000  Uiso   1.00
C606   C     0.16631   0.16659   0.97577   0.00000  Uiso   1.00
C607   C     0.29067   0.16857   0.75004   0.00000  Uiso   1.00
C608   C     0.04266   0.16475   0.75024   0.00000  Uiso   1.00
N609   N     0.04438   0.15943   0.66802   0.00000  Uiso   1.00
O610   O     0.06975   0.12616   0.66113   0.00000  Uiso   1.00
O611   O     0.03797   0.18853   0.63629   0.00000  Uiso   1.00
N612   N     0.28891   0.17338   0.83233   0.00000  Uiso   1.00
O613   O     0.26295   0.20612   0.83924   0.00000  Uiso   1.00
O614   O     0.29567   0.14429   0.86397   0.00000  Uiso   1.00
N615   N     0.28871   0.16184   0.66793   0.00000  Uiso   1.00
O616   O     0.26313   0.19375   0.65688   0.00000  Uiso   1.00
O617   O     0.29523   0.12884   0.64021   0.00000  Uiso   1.00
N618   N     0.04466   0.17164   0.83235   0.00000  Uiso   1.00
O619   O     0.07056   0.14000   0.84333   0.00000  Uiso   1.00
O620   O     0.03792   0.20456   0.86010   0.00000  Uiso   1.00
O621   O     0.43892   0.20487   0.75000   0.00000  Uiso   1.00
O622   O     0.56108   0.12846   0.75000   0.00000  Uiso   1.00
O623   O     0.56108   0.20487   0.75000   0.00000  Uiso   1.00
O624   O     0.43892   0.12846   0.75000   0.00000  Uiso   1.00
N625   N     0.50000   0.28573   0.75000   0.00000  Uiso   1.00
N626   N     0.50000   0.04760   0.75000   0.00000  Uiso   1.00
C627   C     0.42014   0.16620   0.75005   0.00000  Uiso   1.00
C628   C     0.57986   0.16714   0.75012   0.00000  Uiso   1.00
O629   O     0.50000   0.20489   0.68453   0.00000  Uiso   1.00
O630   O     0.50000   0.12845   0.81547   0.00000  Uiso   1.00
O631   O     0.50000   0.20489   0.81547   0.00000  Uiso   1.00
O632   O     0.50000   0.12845   0.68453   0.00000  Uiso   1.00
C633   C     0.49982   0.16667   0.66388   0.00000  Uiso   1.00
C634   C     0.50014   0.16667   0.83604   0.00000  Uiso   1.00
Zn635  Zn    0.50000   0.21771   0.75000   0.00000  Uiso   1.00
Zn636  Zn    0.50000   0.11563   0.75000   0.00000  Uiso   1.00
H637   H     0.54475   0.04298   0.80201   0.00000  Uiso   1.00
H638   H     0.45525   0.29035   0.69799   0.00000  Uiso   1.00
H639   H     0.45525   0.04128   0.69800   0.00000  Uiso   1.00
H640   H     0.54477   0.29205   0.80198   0.00000  Uiso   1.00
C641   C     0.52486   0.02445   0.77890   0.00000  Uiso   1.00
C642   C     0.47514   0.30889   0.72110   0.00000  Uiso   1.00
C643   C     0.47513   0.02350   0.72110   0.00000  Uiso   1.00
C644   C     0.52487   0.30983   0.77889   0.00000  Uiso   1.00
C645   C     0.35497   0.16238   0.70926   0.00000  Uiso   1.00
C646   C     0.64502   0.17083   0.79105   0.00000  Uiso   1.00
C647   C     0.64491   0.16461   0.70915   0.00000  Uiso   1.00
C648   C     0.35510   0.16872   0.79115   0.00000  Uiso   1.00
C649   C     0.51123   0.20607   0.54685   0.00000  Uiso   1.00
C650   C     0.51736   0.13039   0.95283   0.00000  Uiso   1.00
C651   C     0.48215   0.20284   0.95270   0.00000  Uiso   1.00
C652   C     0.48779   0.12723   0.54692   0.00000  Uiso   1.00
H653   H     0.52092   0.23651   0.52922   0.00000  Uiso   1.00
H654   H     0.53151   0.10255   0.97048   0.00000  Uiso   1.00
H655   H     0.46785   0.23065   0.97025   0.00000  Uiso   1.00
H656   H     0.47813   0.09677   0.52934   0.00000  Uiso   1.00
C657   C     0.51102   0.20618   0.59284   0.00000  Uiso   1.00
C658   C     0.51734   0.13030   0.90682   0.00000  Uiso   1.00
C659   C     0.48263   0.20303   0.90671   0.00000  Uiso   1.00
C660   C     0.48808   0.12716   0.59292   0.00000  Uiso   1.00
H661   H     0.52033   0.23687   0.61026   0.00000  Uiso   1.00
H662   H     0.53128   0.10227   0.88925   0.00000  Uiso   1.00
H663   H     0.46881   0.23107   0.88906   0.00000  Uiso   1.00
H664   H     0.47886   0.09648   0.61042   0.00000  Uiso   1.00
C665   C     0.49962   0.16667   0.61591   0.00000  Uiso   1.00
C666   C     0.50008   0.16668   0.88385   0.00000  Uiso   1.00
C667   C     0.49952   0.16663   0.52389   0.00000  Uiso   1.00
C668   C     0.49964   0.16659   0.97577   0.00000  Uiso   1.00
C669   C     0.62400   0.16857   0.75004   0.00000  Uiso   1.00
C670   C     0.37600   0.16475   0.75024   0.00000  Uiso   1.00
N671   N     0.37771   0.15943   0.66802   0.00000  Uiso   1.00
O672   O     0.40308   0.12616   0.66113   0.00000  Uiso   1.00
O673   O     0.37131   0.18853   0.63629   0.00000  Uiso   1.00
N674   N     0.62225   0.17338   0.83233   0.00000  Uiso   1.00
O675   O     0.59628   0.20612   0.83924   0.00000  Uiso   1.00
O676   O     0.62901   0.14429   0.86397   0.00000  Uiso   1.00
N677   N     0.62204   0.16184   0.66793   0.00000  Uiso   1.00
O678   O     0.59646   0.19375   0.65688   0.00000  Uiso   1.00
O679   O     0.62856   0.12884   0.64021   0.00000  Uiso   1.00
N680   N     0.37800   0.17164   0.83235   0.00000  Uiso   1.00
O681   O     0.40389   0.14000   0.84333   0.00000  Uiso   1.00
O682   O     0.37126   0.20456   0.86010   0.00000  Uiso   1.00
O683   O     0.77226   0.20487   0.75000   0.00000  Uiso   1.00
O684   O     0.89441   0.12846   0.75000   0.00000  Uiso   1.00
O685   O     0.89441   0.20487   0.75000   0.00000  Uiso   1.00
O686   O     0.77226   0.12846   0.75000   0.00000  Uiso   1.00
N687   N     0.83333   0.28573   0.75000   0.00000  Uiso   1.00
N688   N     0.83333   0.04760   0.75000   0.00000  Uiso   1.00
C689   C     0.75347   0.16620   0.75005   0.00000  Uiso   1.00
C690   C     0.91319   0.16714   0.75012   0.00000  Uiso   1.00
O691   O     0.83333   0.20489   0.68453   0.00000  Uiso   1.00
O692   O     0.83334   0.12845   0.81547   0.00000  Uiso   1.00
O693   O     0.83334   0.20489   0.81547   0.00000  Uiso   1.00
O694   O     0.83333   0.12845   0.68453   0.00000  Uiso   1.00
C695   C     0.83316   0.16667   0.66388   0.00000  Uiso   1.00
C696   C     0.83347   0.16667   0.83604   0.00000  Uiso   1.00
Zn697  Zn    0.83333   0.21771   0.75000   0.00000  Uiso   1.00
Zn698  Zn    0.83333   0.11563   0.75000   0.00000  Uiso   1.00
H699   H     0.87809   0.04298   0.80201   0.00000  Uiso   1.00
H700   H     0.78858   0.29035   0.69799   0.00000  Uiso   1.00
H701   H     0.78858   0.04128   0.69800   0.00000  Uiso   1.00
H702   H     0.87811   0.29205   0.80198   0.00000  Uiso   1.00
C703   C     0.85820   0.02445   0.77890   0.00000  Uiso   1.00
C704   C     0.80847   0.30889   0.72110   0.00000  Uiso   1.00
C705   C     0.80847   0.02350   0.72110   0.00000  Uiso   1.00
C706   C     0.85821   0.30983   0.77889   0.00000  Uiso   1.00
C707   C     0.68830   0.16238   0.70926   0.00000  Uiso   1.00
C708   C     0.97835   0.17083   0.79105   0.00000  Uiso   1.00
C709   C     0.97824   0.16461   0.70915   0.00000  Uiso   1.00
C710   C     0.68844   0.16872   0.79115   0.00000  Uiso   1.00
C711   C     0.84457   0.20607   0.54685   0.00000  Uiso   1.00
C712   C     0.85069   0.13039   0.95283   0.00000  Uiso   1.00
C713   C     0.81548   0.20284   0.95270   0.00000  Uiso   1.00
C714   C     0.82113   0.12723   0.54692   0.00000  Uiso   1.00
H715   H     0.85425   0.23651   0.52922   0.00000  Uiso   1.00
H716   H     0.86484   0.10255   0.97048   0.00000  Uiso   1.00
H717   H     0.80118   0.23065   0.97025   0.00000  Uiso   1.00
H718   H     0.81146   0.09677   0.52934   0.00000  Uiso   1.00
C719   C     0.84436   0.20618   0.59284   0.00000  Uiso   1.00
C720   C     0.85067   0.13030   0.90682   0.00000  Uiso   1.00
C721   C     0.81596   0.20303   0.90671   0.00000  Uiso   1.00
C722   C     0.82141   0.12716   0.59292   0.00000  Uiso   1.00
H723   H     0.85366   0.23687   0.61026   0.00000  Uiso   1.00
H724   H     0.86461   0.10227   0.88925   0.00000  Uiso   1.00
H725   H     0.80214   0.23107   0.88906   0.00000  Uiso   1.00
H726   H     0.81219   0.09648   0.61042   0.00000  Uiso   1.00
C727   C     0.83295   0.16667   0.61591   0.00000  Uiso   1.00
C728   C     0.83342   0.16668   0.88385   0.00000  Uiso   1.00
C729   C     0.83286   0.16663   0.52389   0.00000  Uiso   1.00
C730   C     0.83298   0.16659   0.97577   0.00000  Uiso   1.00
C731   C     0.95733   0.16857   0.75004   0.00000  Uiso   1.00
C732   C     0.70933   0.16475   0.75024   0.00000  Uiso   1.00
N733   N     0.71105   0.15943   0.66802   0.00000  Uiso   1.00
O734   O     0.73642   0.12616   0.66113   0.00000  Uiso   1.00
O735   O     0.70464   0.18853   0.63629   0.00000  Uiso   1.00
N736   N     0.95558   0.17338   0.83233   0.00000  Uiso   1.00
O737   O     0.92962   0.20612   0.83924   0.00000  Uiso   1.00
O738   O     0.96234   0.14429   0.86397   0.00000  Uiso   1.00
N739   N     0.95538   0.16184   0.66793   0.00000  Uiso   1.00
O740   O     0.92979   0.19375   0.65688   0.00000  Uiso   1.00
O741   O     0.96190   0.12884   0.64021   0.00000  Uiso   1.00
N742   N     0.71133   0.17164   0.83235   0.00000  Uiso   1.00
O743   O     0.73723   0.14000   0.84333   0.00000  Uiso   1.00
O744   O     0.70459   0.20456   0.86010   0.00000  Uiso   1.00
O745   O     0.10559   0.53821   0.75000   0.00000  Uiso   1.00
O746   O     0.22774   0.46179   0.75000   0.00000  Uiso   1.00
O747   O     0.22774   0.53821   0.75000   0.00000  Uiso   1.00
O748   O     0.10559   0.46179   0.75000   0.00000  Uiso   1.00
N749   N     0.16667   0.61907   0.75000   0.00000  Uiso   1.00
N750   N     0.16667   0.38093   0.75000   0.00000  Uiso   1.00
C751   C     0.08680   0.49953   0.75005   0.00000  Uiso   1.00
C752   C     0.24653   0.50047   0.75012   0.00000  Uiso   1.00
O753   O     0.16666   0.53822   0.68453   0.00000  Uiso   1.00
O754   O     0.16667   0.46178   0.81547   0.00000  Uiso   1.00
O755   O     0.16667   0.53822   0.81547   0.00000  Uiso   1.00
O756   O     0.16666   0.46178   0.68453   0.00000  Uiso   1.00
C757   C     0.16649   0.50000   0.66388   0.00000  Uiso   1.00
C758   C     0.16681   0.50000   0.83604   0.00000  Uiso   1.00
Zn759  Zn    0.16667   0.55104   0.75000   0.00000  Uiso   1.00
Zn760  Zn    0.16667   0.44896   0.75000   0.00000  Uiso   1.00
H761   H     0.21142   0.37632   0.80201   0.00000  Uiso   1.00
H762   H     0.12191   0.62369   0.69799   0.00000  Uiso   1.00
H763   H     0.12191   0.37462   0.69800   0.00000  Uiso   1.00
H764   H     0.21144   0.62539   0.80198   0.00000  Uiso   1.00
C765   C     0.19153   0.35778   0.77890   0.00000  Uiso   1.00
C766   C     0.14180   0.64222   0.72110   0.00000  Uiso   1.00
C767   C     0.14180   0.35684   0.72110   0.00000  Uiso   1.00
C768   C     0.19154   0.64316   0.77889   0.00000  Uiso   1.00
C769   C     0.02163   0.49571   0.70926   0.00000  Uiso   1.00
C770   C     0.31168   0.50416   0.79105   0.00000  Uiso   1.00
C771   C     0.31158   0.49794   0.70915   0.00000  Uiso   1.00
C772   C     0.02177   0.50206   0.79115   0.00000  Uiso   1.00
C773   C     0.17790   0.53940   0.54685   0.00000  Uiso   1.00
C774   C     0.18403   0.46372   0.95283   0.00000  Uiso   1.00
C775   C     0.14882   0.53617   0.95270   0.00000  Uiso   1.00
C776   C     0.15446   0.46057   0.54692   0.00000  Uiso   1.00
H777   H     0.18758   0.56984   0.52922   0.00000  Uiso   1.00
H778   H     0.19817   0.43589   0.97048   0.00000  Uiso   1.00
H779   H     0.13452   0.56398   0.97025   0.00000  Uiso   1.00
H780   H     0.14479   0.43010   0.52934   0.00000  Uiso   1.00
C781   C     0.17769   0.53952   0.59284   0.00000  Uiso   1.00
C782   C     0.18401   0.46363   0.90682   0.00000  Uiso   1.00
C783   C     0.14929   0.53636   0.90671   0.00000  Uiso   1.00
C784   C     0.15475   0.46050   0.59292   0.00000  Uiso   1.00
H785   H     0.18699   0.57020   0.61026   0.00000  Uiso   1.00
H786   H     0.19795   0.43561   0.88925   0.00000  Uiso   1.00
H787   H     0.13547   0.56440   0.88906   0.00000  Uiso   1.00
H788   H     0.14553   0.42982   0.61042   0.00000  Uiso   1.00
C789   C     0.16629   0.50001   0.61591   0.00000  Uiso   1.00
C790   C     0.16675   0.50002   0.88385   0.00000  Uiso   1.00
C791   C     0.16619   0.49997   0.52389   0.00000  Uiso   1.00
C792   C     0.16631   0.49993   0.97577   0.00000  Uiso   1.00
C793   C     0.29067   0.50190   0.75004   0.00000  Uiso   1.00
C794   C     0.04266   0.49809   0.75024   0.00000  Uiso   1.00
N795   N     0.04438   0.49277   0.66802   0.00000  Uiso   1.00
O796   O     0.06975   0.45949   0.66113   0.00000  Uiso   1.00
O797   O     0.03797   0.52186   0.63629   0.00000  Uiso   1.00
N798   N     0.28891   0.50671   0.83233   0.00000  Uiso   1.00
O799   O     0.26295   0.53945   0.83924   0.00000  Uiso   1.00
O800   O     0.29567   0.47762   0.86397   0.00000  Uiso   1.00
N801   N     0.28871   0.49518   0.66793   0.00000  Uiso   1.00
O802   O     0.26313   0.52709   0.65688   0.00000  Uiso   1.00
O803   O     0.29523   0.46218   0.64021   0.00000  Uiso   1.00
N804   N     0.04466   0.50497   0.83235   0.00000  Uiso   1.00
O805   O     0.07056   0.47333   0.84333   0.00000  Uiso   1.00
O806   O     0.03792   0.53790   0.86010   0.00000  Uiso   1.00
O807   O     0.43892   0.53821   0.75000   0.00000  Uiso   1.00
O808   O     0.56108   0.46179   0.75000   0.00000  Uiso   1.00
O809   O     0.56108   0.53821   0.75000   0.00000  Uiso   1.00
O810   O     0.43892   0.46179   0.75000   0.00000  Uiso   1.00
N811   N     0.50000   0.61907   0.75000   0.00000  Uiso   1.00
N812   N     0.50000   0.38093   0.75000   0.00000  Uiso   1.00
C813   C     0.42014   0.49953   0.75005   0.00000  Uiso   1.00
C814   C     0.57986   0.50047   0.75012   0.00000  Uiso   1.00
O815   O     0.50000   0.53822   0.68453   0.00000  Uiso   1.00
O816   O     0.50000   0.46178   0.81547   0.00000  Uiso   1.00
O817   O     0.50000   0.53822   0.81547   0.00000  Uiso   1.00
O818   O     0.50000   0.46178   0.68453   0.00000  Uiso   1.00
C819   C     0.49982   0.50000   0.66388   0.00000  Uiso   1.00
C820   C     0.50014   0.50000   0.83604   0.00000  Uiso   1.00
Zn821  Zn    0.50000   0.55104   0.75000   0.00000  Uiso   1.00
Zn822  Zn    0.50000   0.44896   0.75000   0.00000  Uiso   1.00
H823   H     0.54475   0.37632   0.80201   0.00000  Uiso   1.00
H824   H     0.45525   0.62369   0.69799   0.00000  Uiso   1.00
H825   H     0.45525   0.37462   0.69800   0.00000  Uiso   1.00
H826   H     0.54477   0.62539   0.80198   0.00000  Uiso   1.00
C827   C     0.52486   0.35778   0.77890   0.00000  Uiso   1.00
C828   C     0.47514   0.64222   0.72110   0.00000  Uiso   1.00
C829   C     0.47513   0.35684   0.72110   0.00000  Uiso   1.00
C830   C     0.52487   0.64316   0.77889   0.00000  Uiso   1.00
C831   C     0.35497   0.49571   0.70926   0.00000  Uiso   1.00
C832   C     0.64502   0.50416   0.79105   0.00000  Uiso   1.00
C833   C     0.64491   0.49794   0.70915   0.00000  Uiso   1.00
C834   C     0.35510   0.50206   0.79115   0.00000  Uiso   1.00
C835   C     0.51123   0.53940   0.54685   0.00000  Uiso   1.00
C836   C     0.51736   0.46372   0.95283   0.00000  Uiso   1.00
C837   C     0.48215   0.53617   0.95270   0.00000  Uiso   1.00
C838   C     0.48779   0.46057   0.54692   0.00000  Uiso   1.00
H839   H     0.52092   0.56984   0.52922   0.00000  Uiso   1.00
H840   H     0.53151   0.43589   0.97048   0.00000  Uiso   1.00
H841   H     0.46785   0.56398   0.97025   0.00000  Uiso   1.00
H842   H     0.47813   0.43010   0.52934   0.00000  Uiso   1.00
C843   C     0.51102   0.53952   0.59284   0.00000  Uiso   1.00
C844   C     0.51734   0.46363   0.90682   0.00000  Uiso   1.00
C845   C     0.48263   0.53636   0.90671   0.00000  Uiso   1.00
C846   C     0.48808   0.46050   0.59292   0.00000  Uiso   1.00
H847   H     0.52033   0.57020   0.61026   0.00000  Uiso   1.00
H848   H     0.53128   0.43561   0.88925   0.00000  Uiso   1.00
H849   H     0.46881   0.56440   0.88906   0.00000  Uiso   1.00
H850   H     0.47886   0.42982   0.61042   0.00000  Uiso   1.00
C851   C     0.49962   0.50001   0.61591   0.00000  Uiso   1.00
C852   C     0.50008   0.50002   0.88385   0.00000  Uiso   1.00
C853   C     0.49952   0.49997   0.52389   0.00000  Uiso   1.00
C854   C     0.49964   0.49993   0.97577   0.00000  Uiso   1.00
C855   C     0.62400   0.50190   0.75004   0.00000  Uiso   1.00
C856   C     0.37600   0.49809   0.75024   0.00000  Uiso   1.00
N857   N     0.37771   0.49277   0.66802   0.00000  Uiso   1.00
O858   O     0.40308   0.45949   0.66113   0.00000  Uiso   1.00
O859   O     0.37131   0.52186   0.63629   0.00000  Uiso   1.00
N860   N     0.62225   0.50671   0.83233   0.00000  Uiso   1.00
O861   O     0.59628   0.53945   0.83924   0.00000  Uiso   1.00
O862   O     0.62901   0.47762   0.86397   0.00000  Uiso   1.00
N863   N     0.62204   0.49518   0.66793   0.00000  Uiso   1.00
O864   O     0.59646   0.52709   0.65688   0.00000  Uiso   1.00
O865   O     0.62856   0.46218   0.64021   0.00000  Uiso   1.00
N866   N     0.37800   0.50497   0.83235   0.00000  Uiso   1.00
O867   O     0.40389   0.47333   0.84333   0.00000  Uiso   1.00
O868   O     0.37126   0.53790   0.86010   0.00000  Uiso   1.00
O869   O     0.77226   0.53821   0.75000   0.00000  Uiso   1.00
O870   O     0.89441   0.46179   0.75000   0.00000  Uiso   1.00
O871   O     0.89441   0.53821   0.75000   0.00000  Uiso   1.00
O872   O     0.77226   0.46179   0.75000   0.00000  Uiso   1.00
N873   N     0.83333   0.61907   0.75000   0.00000  Uiso   1.00
N874   N     0.83333   0.38093   0.75000   0.00000  Uiso   1.00
C875   C     0.75347   0.49953   0.75005   0.00000  Uiso   1.00
C876   C     0.91319   0.50047   0.75012   0.00000  Uiso   1.00
O877   O     0.83333   0.53822   0.68453   0.00000  Uiso   1.00
O878   O     0.83334   0.46178   0.81547   0.00000  Uiso   1.00
O879   O     0.83334   0.53822   0.81547   0.00000  Uiso   1.00
O880   O     0.83333   0.46178   0.68453   0.00000  Uiso   1.00
C881   C     0.83316   0.50000   0.66388   0.00000  Uiso   1.00
C882   C     0.83347   0.50000   0.83604   0.00000  Uiso   1.00
Zn883  Zn    0.83333   0.55104   0.75000   0.00000  Uiso   1.00
Zn884  Zn    0.83333   0.44896   0.75000   0.00000  Uiso   1.00
H885   H     0.87809   0.37632   0.80201   0.00000  Uiso   1.00
H886   H     0.78858   0.62369   0.69799   0.00000  Uiso   1.00
H887   H     0.78858   0.37462   0.69800   0.00000  Uiso   1.00
H888   H     0.87811   0.62539   0.80198   0.00000  Uiso   1.00
C889   C     0.85820   0.35778   0.77890   0.00000  Uiso   1.00
C890   C     0.80847   0.64222   0.72110   0.00000  Uiso   1.00
C891   C     0.80847   0.35684   0.72110   0.00000  Uiso   1.00
C892   C     0.85821   0.64316   0.77889   0.00000  Uiso   1.00
C893   C     0.68830   0.49571   0.70926   0.00000  Uiso   1.00
C894   C     0.97835   0.50416   0.79105   0.00000  Uiso   1.00
C895   C     0.97824   0.49794   0.70915   0.00000  Uiso   1.00
C896   C     0.68844   0.50206   0.79115   0.00000  Uiso   1.00
C897   C     0.84457   0.53940   0.54685   0.00000  Uiso   1.00
C898   C     0.85069   0.46372   0.95283   0.00000  Uiso   1.00
C899   C     0.81548   0.53617   0.95270   0.00000  Uiso   1.00
C900   C     0.82113   0.46057   0.54692   0.00000  Uiso   1.00
H901   H     0.85425   0.56984   0.52922   0.00000  Uiso   1.00
H902   H     0.86484   0.43589   0.97048   0.00000  Uiso   1.00
H903   H     0.80118   0.56398   0.97025   0.00000  Uiso   1.00
H904   H     0.81146   0.43010   0.52934   0.00000  Uiso   1.00
C905   C     0.84436   0.53952   0.59284   0.00000  Uiso   1.00
C906   C     0.85067   0.46363   0.90682   0.00000  Uiso   1.00
C907   C     0.81596   0.53636   0.90671   0.00000  Uiso   1.00
C908   C     0.82141   0.46050   0.59292   0.00000  Uiso   1.00
H909   H     0.85366   0.57020   0.61026   0.00000  Uiso   1.00
H910   H     0.86461   0.43561   0.88925   0.00000  Uiso   1.00
H911   H     0.80214   0.56440   0.88906   0.00000  Uiso   1.00
H912   H     0.81219   0.42982   0.61042   0.00000  Uiso   1.00
C913   C     0.83295   0.50001   0.61591   0.00000  Uiso   1.00
C914   C     0.83342   0.50002   0.88385   0.00000  Uiso   1.00
C915   C     0.83286   0.49997   0.52389   0.00000  Uiso   1.00
C916   C     0.83298   0.49993   0.97577   0.00000  Uiso   1.00
C917   C     0.95733   0.50190   0.75004   0.00000  Uiso   1.00
C918   C     0.70933   0.49809   0.75024   0.00000  Uiso   1.00
N919   N     0.71105   0.49277   0.66802   0.00000  Uiso   1.00
O920   O     0.73642   0.45949   0.66113   0.00000  Uiso   1.00
O921   O     0.70464   0.52186   0.63629   0.00000  Uiso   1.00
N922   N     0.95558   0.50671   0.83233   0.00000  Uiso   1.00
O923   O     0.92962   0.53945   0.83924   0.00000  Uiso   1.00
O924   O     0.96234   0.47762   0.86397   0.00000  Uiso   1.00
N925   N     0.95538   0.49518   0.66793   0.00000  Uiso   1.00
O926   O     0.92979   0.52709   0.65688   0.00000  Uiso   1.00
O927   O     0.96190   0.46218   0.64021   0.00000  Uiso   1.00
N928   N     0.71133   0.50497   0.83235   0.00000  Uiso   1.00
O929   O     0.73723   0.47333   0.84333   0.00000  Uiso   1.00
O930   O     0.70459   0.53790   0.86010   0.00000  Uiso   1.00
O931   O     0.10559   0.87154   0.75000   0.00000  Uiso   1.00
O932   O     0.22774   0.79513   0.75000   0.00000  Uiso   1.00
O933   O     0.22774   0.87154   0.75000   0.00000  Uiso   1.00
O934   O     0.10559   0.79513   0.75000   0.00000  Uiso   1.00
N935   N     0.16667   0.95240   0.75000   0.00000  Uiso   1.00
N936   N     0.16667   0.71427   0.75000   0.00000  Uiso   1.00
C937   C     0.08680   0.83286   0.75005   0.00000  Uiso   1.00
C938   C     0.24653   0.83380   0.75012   0.00000  Uiso   1.00
O939   O     0.16666   0.87155   0.68453   0.00000  Uiso   1.00
O940   O     0.16667   0.79511   0.81547   0.00000  Uiso   1.00
O941   O     0.16667   0.87155   0.81547   0.00000  Uiso   1.00
O942   O     0.16666   0.79511   0.68453   0.00000  Uiso   1.00
C943   C     0.16649   0.83333   0.66388   0.00000  Uiso   1.00
C944   C     0.16681   0.83334   0.83604   0.00000  Uiso   1.00
Zn945  Zn    0.16667   0.88437   0.75000   0.00000  Uiso   1.00
Zn946  Zn    0.16667   0.78229   0.75000   0.00000  Uiso   1.00
H947   H     0.21142   0.70965   0.80201   0.00000  Uiso   1.00
H948   H     0.12191   0.95702   0.69799   0.00000  Uiso   1.00
H949   H     0.12191   0.70795   0.69800   0.00000  Uiso   1.00
H950   H     0.21144   0.95872   0.80198   0.00000  Uiso   1.00
C951   C     0.19153   0.69111   0.77890   0.00000  Uiso   1.00
C952   C     0.14180   0.97555   0.72110   0.00000  Uiso   1.00
C953   C     0.14180   0.69017   0.72110   0.00000  Uiso   1.00
C954   C     0.19154   0.97650   0.77889   0.00000  Uiso   1.00
C955   C     0.02163   0.82904   0.70926   0.00000  Uiso   1.00
C956   C     0.31168   0.83750   0.79105   0.00000  Uiso   1.00
C957   C     0.31158   0.83127   0.70915   0.00000  Uiso   1.00
C958   C     0.02177   0.83539   0.79115   0.00000  Uiso   1.00
C959   C     0.17790   0.87274   0.54685   0.00000  Uiso   1.00
C960   C     0.18403   0.79706   0.95283   0.00000  Uiso   1.00
C961   C     0.14882   0.86950   0.95270   0.00000  Uiso   1.00
C962   C     0.15446   0.79390   0.54692   0.00000  Uiso   1.00
H963   H     0.18758   0.90318   0.52922   0.00000  Uiso   1.00
H964   H     0.19817   0.76922   0.97048   0.00000  Uiso   1.00
H965   H     0.13452   0.89732   0.97025   0.00000  Uiso   1.00
H966   H     0.14479   0.76343   0.52934   0.00000  Uiso   1.00
C967   C     0.17769   0.87285   0.59284   0.00000  Uiso   1.00
C968   C     0.18401   0.79696   0.90682   0.00000  Uiso   1.00
C969   C     0.14929   0.86969   0.90671   0.00000  Uiso   1.00
C970   C     0.15475   0.79383   0.59292   0.00000  Uiso   1.00
H971   H     0.18699   0.90354   0.61026   0.00000  Uiso   1.00
H972   H     0.19795   0.76894   0.88925   0.00000  Uiso   1.00
H973   H     0.13547   0.89774   0.88906   0.00000  Uiso   1.00
H974   H     0.14553   0.76315   0.61042   0.00000  Uiso   1.00
C975   C     0.16629   0.83334   0.61591   0.00000  Uiso   1.00
C976   C     0.16675   0.83335   0.88385   0.00000  Uiso   1.00
C977   C     0.16619   0.83330   0.52389   0.00000  Uiso   1.00
C978   C     0.16631   0.83326   0.97577   0.00000  Uiso   1.00
C979   C     0.29067   0.83523   0.75004   0.00000  Uiso   1.00
C980   C     0.04266   0.83142   0.75024   0.00000  Uiso   1.00
N981   N     0.04438   0.82610   0.66802   0.00000  Uiso   1.00
O982   O     0.06975   0.79282   0.66113   0.00000  Uiso   1.00
O983   O     0.03797   0.85520   0.63629   0.00000  Uiso   1.00
N984   N     0.28891   0.84005   0.83233   0.00000  Uiso   1.00
O985   O     0.26295   0.87279   0.83924   0.00000  Uiso   1.00
O986   O     0.29567   0.81096   0.86397   0.00000  Uiso   1.00
N987   N     0.28871   0.82851   0.66793   0.00000  Uiso   1.00
O988   O     0.26313   0.86042   0.65688   0.00000  Uiso   1.00
O989   O     0.29523   0.79551   0.64021   0.00000  Uiso   1.00
N990   N     0.04466   0.83831   0.83235   0.00000  Uiso   1.00
O991   O     0.07056   0.80666   0.84333   0.00000  Uiso   1.00
O992   O     0.03792   0.87123   0.86010   0.00000  Uiso   1.00
O993   O     0.43892   0.87154   0.75000   0.00000  Uiso   1.00
O994   O     0.56108   0.79513   0.75000   0.00000  Uiso   1.00
O995   O     0.56108   0.87154   0.75000   0.00000  Uiso   1.00
O996   O     0.43892   0.79513   0.75000   0.00000  Uiso   1.00
N997   N     0.50000   0.95240   0.75000   0.00000  Uiso   1.00
N998   N     0.50000   0.71427   0.75000   0.00000  Uiso   1.00
C999   C     0.42014   0.83286   0.75005   0.00000  Uiso   1.00
C1000  C     0.57986   0.83380   0.75012   0.00000  Uiso   1.00
O1001  O     0.50000   0.87155   0.68453   0.00000  Uiso   1.00
O1002  O     0.50000   0.79511   0.81547   0.00000  Uiso   1.00
O1003  O     0.50000   0.87155   0.81547   0.00000  Uiso   1.00
O1004  O     0.50000   0.79511   0.68453   0.00000  Uiso   1.00
C1005  C     0.49982   0.83333   0.66388   0.00000  Uiso   1.00
C1006  C     0.50014   0.83334   0.83604   0.00000  Uiso   1.00
Zn1007 Zn    0.50000   0.88437   0.75000   0.00000  Uiso   1.00
Zn1008 Zn    0.50000   0.78229   0.75000   0.00000  Uiso   1.00
H1009  H     0.54475   0.70965   0.80201   0.00000  Uiso   1.00
H1010  H     0.45525   0.95702   0.69799   0.00000  Uiso   1.00
H1011  H     0.45525   0.70795   0.69800   0.00000  Uiso   1.00
H1012  H     0.54477   0.95872   0.80198   0.00000  Uiso   1.00
C1013  C     0.52486   0.69111   0.77890   0.00000  Uiso   1.00
C1014  C     0.47514   0.97555   0.72110   0.00000  Uiso   1.00
C1015  C     0.47513   0.69017   0.72110   0.00000  Uiso   1.00
C1016  C     0.52487   0.97650   0.77889   0.00000  Uiso   1.00
C1017  C     0.35497   0.82904   0.70926   0.00000  Uiso   1.00
C1018  C     0.64502   0.83750   0.79105   0.00000  Uiso   1.00
C1019  C     0.64491   0.83127   0.70915   0.00000  Uiso   1.00
C1020  C     0.35510   0.83539   0.79115   0.00000  Uiso   1.00
C1021  C     0.51123   0.87274   0.54685   0.00000  Uiso   1.00
C1022  C     0.51736   0.79706   0.95283   0.00000  Uiso   1.00
C1023  C     0.48215   0.86950   0.95270   0.00000  Uiso   1.00
C1024  C     0.48779   0.79390   0.54692   0.00000  Uiso   1.00
H1025  H     0.52092   0.90318   0.52922   0.00000  Uiso   1.00
H1026  H     0.53151   0.76922   0.97048   0.00000  Uiso   1.00
H1027  H     0.46785   0.89732   0.97025   0.00000  Uiso   1.00
H1028  H     0.47813   0.76343   0.52934   0.00000  Uiso   1.00
C1029  C     0.51102   0.87285   0.59284   0.00000  Uiso   1.00
C1030  C     0.51734   0.79696   0.90682   0.00000  Uiso   1.00
C1031  C     0.48263   0.86969   0.90671   0.00000  Uiso   1.00
C1032  C     0.48808   0.79383   0.59292   0.00000  Uiso   1.00
H1033  H     0.52033   0.90354   0.61026   0.00000  Uiso   1.00
H1034  H     0.53128   0.76894   0.88925   0.00000  Uiso   1.00
H1035  H     0.46881   0.89774   0.88906   0.00000  Uiso   1.00
H1036  H     0.47886   0.76315   0.61042   0.00000  Uiso   1.00
C1037  C     0.49962   0.83334   0.61591   0.00000  Uiso   1.00
C1038  C     0.50008   0.83335   0.88385   0.00000  Uiso   1.00
C1039  C     0.49952   0.83330   0.52389   0.00000  Uiso   1.00
C1040  C     0.49964   0.83326   0.97577   0.00000  Uiso   1.00
C1041  C     0.62400   0.83523   0.75004   0.00000  Uiso   1.00
C1042  C     0.37600   0.83142   0.75024   0.00000  Uiso   1.00
N1043  N     0.37771   0.82610   0.66802   0.00000  Uiso   1.00
O1044  O     0.40308   0.79282   0.66113   0.00000  Uiso   1.00
O1045  O     0.37131   0.85520   0.63629   0.00000  Uiso   1.00
N1046  N     0.62225   0.84005   0.83233   0.00000  Uiso   1.00
O1047  O     0.59628   0.87279   0.83924   0.00000  Uiso   1.00
O1048  O     0.62901   0.81096   0.86397   0.00000  Uiso   1.00
N1049  N     0.62204   0.82851   0.66793   0.00000  Uiso   1.00
O1050  O     0.59646   0.86042   0.65688   0.00000  Uiso   1.00
O1051  O     0.62856   0.79551   0.64021   0.00000  Uiso   1.00
N1052  N     0.37800   0.83831   0.83235   0.00000  Uiso   1.00
O1053  O     0.40389   0.80666   0.84333   0.00000  Uiso   1.00
O1054  O     0.37126   0.87123   0.86010   0.00000  Uiso   1.00
O1055  O     0.77226   0.87154   0.75000   0.00000  Uiso   1.00
O1056  O     0.89441   0.79513   0.75000   0.00000  Uiso   1.00
O1057  O     0.89441   0.87154   0.75000   0.00000  Uiso   1.00
O1058  O     0.77226   0.79513   0.75000   0.00000  Uiso   1.00
N1059  N     0.83333   0.95240   0.75000   0.00000  Uiso   1.00
N1060  N     0.83333   0.71427   0.75000   0.00000  Uiso   1.00
C1061  C     0.75347   0.83286   0.75005   0.00000  Uiso   1.00
C1062  C     0.91319   0.83380   0.75012   0.00000  Uiso   1.00
O1063  O     0.83333   0.87155   0.68453   0.00000  Uiso   1.00
O1064  O     0.83334   0.79511   0.81547   0.00000  Uiso   1.00
O1065  O     0.83334   0.87155   0.81547   0.00000  Uiso   1.00
O1066  O     0.83333   0.79511   0.68453   0.00000  Uiso   1.00
C1067  C     0.83316   0.83333   0.66388   0.00000  Uiso   1.00
C1068  C     0.83347   0.83334   0.83604   0.00000  Uiso   1.00
Zn1069 Zn    0.83333   0.88437   0.75000   0.00000  Uiso   1.00
Zn1070 Zn    0.83333   0.78229   0.75000   0.00000  Uiso   1.00
H1071  H     0.87809   0.70965   0.80201   0.00000  Uiso   1.00
H1072  H     0.78858   0.95702   0.69799   0.00000  Uiso   1.00
H1073  H     0.78858   0.70795   0.69800   0.00000  Uiso   1.00
H1074  H     0.87811   0.95872   0.80198   0.00000  Uiso   1.00
C1075  C     0.85820   0.69111   0.77890   0.00000  Uiso   1.00
C1076  C     0.80847   0.97555   0.72110   0.00000  Uiso   1.00
C1077  C     0.80847   0.69017   0.72110   0.00000  Uiso   1.00
C1078  C     0.85821   0.97650   0.77889   0.00000  Uiso   1.00
C1079  C     0.68830   0.82904   0.70926   0.00000  Uiso   1.00
C1080  C     0.97835   0.83750   0.79105   0.00000  Uiso   1.00
C1081  C     0.97824   0.83127   0.70915   0.00000  Uiso   1.00
C1082  C     0.68844   0.83539   0.79115   0.00000  Uiso   1.00
C1083  C     0.84457   0.87274   0.54685   0.00000  Uiso   1.00
C1084  C     0.85069   0.79706   0.95283   0.00000  Uiso   1.00
C1085  C     0.81548   0.86950   0.95270   0.00000  Uiso   1.00
C1086  C     0.82113   0.79390   0.54692   0.00000  Uiso   1.00
H1087  H     0.85425   0.90318   0.52922   0.00000  Uiso   1.00
H1088  H     0.86484   0.76922   0.97048   0.00000  Uiso   1.00
H1089  H     0.80118   0.89732   0.97025   0.00000  Uiso   1.00
H1090  H     0.81146   0.76343   0.52934   0.00000  Uiso   1.00
C1091  C     0.84436   0.87285   0.59284   0.00000  Uiso   1.00
C1092  C     0.85067   0.79696   0.90682   0.00000  Uiso   1.00
C1093  C     0.81596   0.86969   0.90671   0.00000  Uiso   1.00
C1094  C     0.82141   0.79383   0.59292   0.00000  Uiso   1.00
H1095  H     0.85366   0.90354   0.61026   0.00000  Uiso   1.00
H1096  H     0.86461   0.76894   0.88925   0.00000  Uiso   1.00
H1097  H     0.80214   0.89774   0.88906   0.00000  Uiso   1.00
H1098  H     0.81219   0.76315   0.61042   0.00000  Uiso   1.00
C1099  C     0.83295   0.83334   0.61591   0.00000  Uiso   1.00
C1100  C     0.83342   0.83335   0.88385   0.00000  Uiso   1.00
C1101  C     0.83286   0.83330   0.52389   0.00000  Uiso   1.00
C1102  C     0.83298   0.83326   0.97577   0.00000  Uiso   1.00
C1103  C     0.95733   0.83523   0.75004   0.00000  Uiso   1.00
C1104  C     0.70933   0.83142   0.75024   0.00000  Uiso   1.00
N1105  N     0.71105   0.82610   0.66802   0.00000  Uiso   1.00
O1106  O     0.73642   0.79282   0.66113   0.00000  Uiso   1.00
O1107  O     0.70464   0.85520   0.63629   0.00000  Uiso   1.00
N1108  N     0.95558   0.84005   0.83233   0.00000  Uiso   1.00
O1109  O     0.92962   0.87279   0.83924   0.00000  Uiso   1.00
O1110  O     0.96234   0.81096   0.86397   0.00000  Uiso   1.00
N1111  N     0.95538   0.82851   0.66793   0.00000  Uiso   1.00
O1112  O     0.92979   0.86042   0.65688   0.00000  Uiso   1.00
O1113  O     0.96190   0.79551   0.64021   0.00000  Uiso   1.00
N1114  N     0.71133   0.83831   0.83235   0.00000  Uiso   1.00
O1115  O     0.73723   0.80666   0.84333   0.00000  Uiso   1.00
O1116  O     0.70459   0.87123   0.86010   0.00000  Uiso   1.00
loop_
_geom_bond_atom_site_label_1
_geom_bond_atom_site_label_2
_geom_bond_distance
_geom_bond_site_symmetry_2
_ccdc_geom_bond_type
O1     Zn15    1.976   .     S
O1     C7      1.281   .     A
O2     Zn16    1.976   .     S
O2     C8      1.280   .     A
O3     Zn15    1.990   .     S
O3     C8      1.275   .     A
O4     Zn16    1.990   .     S
O4     C7      1.275   .     A
N5     C24     1.366   .     A
N5     Zn15    2.010   .     S
N5     C22     1.367   .     A
N6     C23     1.366   .     A
N6     Zn16    2.010   .     S
N6     C21     1.367   .     A
C7     C50     1.407   .     S
C8     C49     1.407   .     S
O9     Zn15    2.001   .     S
O9     C13     1.288   .     A
O10    Zn16    2.001   .     S
O10    C14     1.287   .     A
O11    Zn15    2.001   .     S
O11    C14     1.287   .     A
O12    Zn16    2.001   .     S
O12    C13     1.288   .     A
C13    C45     1.439   .     S
C14    C46     1.435   .     S
H17    C21     1.082   .     S
H18    C22     1.082   .     S
H19    C23     1.082   .     S
H20    C24     1.082   .     S
C21    C396    1.417   1_545 S
C22    C209    1.417   .     S
C23    C394    1.417   1_545 S
C24    C207    1.417   .     S
C25    N51     1.438   .     S
C25    C50     1.402   .     A
C25    C151    1.386   1_455 S
C26    C49     1.402   .     A
C26    N54     1.438   .     S
C26    C90     1.386   .     S
C27    N57     1.437   .     S
C27    C49     1.402   .     A
C27    C87     1.386   .     S
C28    N60     1.438   .     S
C28    C50     1.402   .     A
C28    C150    1.386   1_455 S
C29    H33     1.083   .     S
C29    C47     1.399   .     A
C29    C37     1.380   .     A
C30    C48     1.400   .     A
C30    H34     1.083   .     S
C30    C38     1.381   .     A
C31    C39     1.380   .     A
C31    C48     1.399   .     A
C31    H35     1.083   .     S
C32    C40     1.380   .     A
C32    H36     1.083   .     S
C32    C47     1.399   .     A
C37    C45     1.400   .     A
C37    H41     1.083   .     S
C38    H42     1.084   .     S
C38    C46     1.398   .     A
C39    C46     1.398   .     A
C39    H43     1.084   .     S
C40    C45     1.400   .     A
C40    H44     1.083   .     S
C47    C606    1.444   1_554 S
C48    C605    1.444   .     S
N51    O52     1.301   .     A
N51    O53     1.301   .     A
N54    O56     1.301   .     A
N54    O55     1.301   .     A
N57    O58     1.301   .     A
N57    O59     1.301   .     A
N60    O62     1.301   .     A
N60    O61     1.301   .     A
O63    Zn77    1.976   .     S
O63    C69     1.281   .     A
O64    Zn78    1.976   .     S
O64    C70     1.280   .     A
O65    Zn77    1.990   .     S
O65    C70     1.275   .     A
O66    Zn78    1.990   .     S
O66    C69     1.275   .     A
N67    C86     1.366   .     A
N67    Zn77    2.010   .     S
N67    C84     1.367   .     A
N68    C85     1.366   .     A
N68    Zn78    2.010   .     S
N68    C83     1.367   .     A
C69    C112    1.407   .     S
C70    C111    1.407   .     S
O71    Zn77    2.001   .     S
O71    C75     1.288   .     A
O72    Zn78    2.001   .     S
O72    C76     1.287   .     A
O73    Zn77    2.001   .     S
O73    C76     1.287   .     A
O74    Zn78    2.001   .     S
O74    C75     1.288   .     A
C75    C107    1.439   .     S
C76    C108    1.435   .     S
H79    C83     1.082   .     S
H80    C84     1.082   .     S
H81    C85     1.082   .     S
H82    C86     1.082   .     S
C83    C458    1.417   1_545 S
C84    C271    1.417   .     S
C85    C456    1.417   1_545 S
C86    C269    1.417   .     S
C87    N113    1.438   .     S
C87    C112    1.402   .     A
C88    C111    1.402   .     A
C88    N116    1.438   .     S
C88    C152    1.386   .     S
C89    N119    1.437   .     S
C89    C111    1.402   .     A
C89    C149    1.386   .     S
C90    N122    1.438   .     S
C90    C112    1.402   .     A
C91    H95     1.083   .     S
C91    C109    1.399   .     A
C91    C99     1.380   .     A
C92    C110    1.400   .     A
C92    H96     1.083   .     S
C92    C100    1.381   .     A
C93    C101    1.380   .     A
C93    C110    1.399   .     A
C93    H97     1.083   .     S
C94    C102    1.380   .     A
C94    H98     1.083   .     S
C94    C109    1.399   .     A
C99    C107    1.400   .     A
C99    H103    1.083   .     S
C100   H104    1.084   .     S
C100   C108    1.398   .     A
C101   C108    1.398   .     A
C101   H105    1.084   .     S
C102   C107    1.400   .     A
C102   H106    1.083   .     S
C109   C668    1.444   1_554 S
C110   C667    1.444   .     S
N113   O114    1.301   .     A
N113   O115    1.301   .     A
N116   O118    1.301   .     A
N116   O117    1.301   .     A
N119   O120    1.301   .     A
N119   O121    1.301   .     A
N122   O124    1.301   .     A
N122   O123    1.301   .     A
O125   Zn139   1.976   .     S
O125   C131    1.281   .     A
O126   Zn140   1.976   .     S
O126   C132    1.280   .     A
O127   Zn139   1.990   .     S
O127   C132    1.275   .     A
O128   Zn140   1.990   .     S
O128   C131    1.275   .     A
N129   C148    1.366   .     A
N129   Zn139   2.010   .     S
N129   C146    1.367   .     A
N130   C147    1.366   .     A
N130   Zn140   2.010   .     S
N130   C145    1.367   .     A
C131   C174    1.407   .     S
C132   C173    1.407   .     S
O133   Zn139   2.001   .     S
O133   C137    1.288   .     A
O134   Zn140   2.001   .     S
O134   C138    1.287   .     A
O135   Zn139   2.001   .     S
O135   C138    1.287   .     A
O136   Zn140   2.001   .     S
O136   C137    1.288   .     A
C137   C169    1.439   .     S
C138   C170    1.435   .     S
H141   C145    1.082   .     S
H142   C146    1.082   .     S
H143   C147    1.082   .     S
H144   C148    1.082   .     S
C145   C520    1.417   1_545 S
C146   C333    1.417   .     S
C147   C518    1.417   1_545 S
C148   C331    1.417   .     S
C149   N175    1.438   .     S
C149   C174    1.402   .     A
C150   C173    1.402   .     A
C150   N178    1.438   .     S
C150   C28     1.386   1_655 S
C151   N181    1.437   .     S
C151   C173    1.402   .     A
C151   C25     1.386   1_655 S
C152   N184    1.438   .     S
C152   C174    1.402   .     A
C153   H157    1.083   .     S
C153   C171    1.399   .     A
C153   C161    1.380   .     A
C154   C172    1.400   .     A
C154   H158    1.083   .     S
C154   C162    1.381   .     A
C155   C163    1.380   .     A
C155   C172    1.399   .     A
C155   H159    1.083   .     S
C156   C164    1.380   .     A
C156   H160    1.083   .     S
C156   C171    1.399   .     A
C161   C169    1.400   .     A
C161   H165    1.083   .     S
C162   H166    1.084   .     S
C162   C170    1.398   .     A
C163   C170    1.398   .     A
C163   H167    1.084   .     S
C164   C169    1.400   .     A
C164   H168    1.083   .     S
C171   C730    1.444   1_554 S
C172   C729    1.444   .     S
N175   O176    1.301   .     A
N175   O177    1.301   .     A
N178   O180    1.301   .     A
N178   O179    1.301   .     A
N181   O182    1.301   .     A
N181   O183    1.301   .     A
N184   O186    1.301   .     A
N184   O185    1.301   .     A
O187   Zn201   1.976   .     S
O187   C193    1.281   .     A
O188   Zn202   1.976   .     S
O188   C194    1.280   .     A
O189   Zn201   1.990   .     S
O189   C194    1.275   .     A
O190   Zn202   1.990   .     S
O190   C193    1.275   .     A
N191   C210    1.366   .     A
N191   Zn201   2.010   .     S
N191   C208    1.367   .     A
N192   C209    1.366   .     A
N192   Zn202   2.010   .     S
N192   C207    1.367   .     A
C193   C236    1.407   .     S
C194   C235    1.407   .     S
O195   Zn201   2.001   .     S
O195   C199    1.288   .     A
O196   Zn202   2.001   .     S
O196   C200    1.287   .     A
O197   Zn201   2.001   .     S
O197   C200    1.287   .     A
O198   Zn202   2.001   .     S
O198   C199    1.288   .     A
C199   C231    1.439   .     S
C200   C232    1.435   .     S
H203   C207    1.082   .     S
H204   C208    1.082   .     S
H205   C209    1.082   .     S
H206   C210    1.082   .     S
C208   C395    1.417   .     S
C210   C393    1.417   .     S
C211   N237    1.438   .     S
C211   C236    1.402   .     A
C211   C337    1.386   1_455 S
C212   C235    1.402   .     A
C212   N240    1.438   .     S
C212   C276    1.386   .     S
C213   N243    1.437   .     S
C213   C235    1.402   .     A
C213   C273    1.386   .     S
C214   N246    1.438   .     S
C214   C236    1.402   .     A
C214   C336    1.386   1_455 S
C215   H219    1.083   .     S
C215   C233    1.399   .     A
C215   C223    1.380   .     A
C216   C234    1.400   .     A
C216   H220    1.083   .     S
C216   C224    1.381   .     A
C217   C225    1.380   .     A
C217   C234    1.399   .     A
C217   H221    1.083   .     S
C218   C226    1.380   .     A
C218   H222    1.083   .     S
C218   C233    1.399   .     A
C223   C231    1.400   .     A
C223   H227    1.083   .     S
C224   H228    1.084   .     S
C224   C232    1.398   .     A
C225   C232    1.398   .     A
C225   H229    1.084   .     S
C226   C231    1.400   .     A
C226   H230    1.083   .     S
C233   C792    1.444   1_554 S
C234   C791    1.444   .     S
N237   O238    1.301   .     A
N237   O239    1.301   .     A
N240   O242    1.301   .     A
N240   O241    1.301   .     A
N243   O244    1.301   .     A
N243   O245    1.301   .     A
N246   O248    1.301   .     A
N246   O247    1.301   .     A
O249   Zn263   1.976   .     S
O249   C255    1.281   .     A
O250   Zn264   1.976   .     S
O250   C256    1.280   .     A
O251   Zn263   1.990   .     S
O251   C256    1.275   .     A
O252   Zn264   1.990   .     S
O252   C255    1.275   .     A
N253   C272    1.366   .     A
N253   Zn263   2.010   .     S
N253   C270    1.367   .     A
N254   C271    1.366   .     A
N254   Zn264   2.010   .     S
N254   C269    1.367   .     A
C255   C298    1.407   .     S
C256   C297    1.407   .     S
O257   Zn263   2.001   .     S
O257   C261    1.288   .     A
O258   Zn264   2.001   .     S
O258   C262    1.287   .     A
O259   Zn263   2.001   .     S
O259   C262    1.287   .     A
O260   Zn264   2.001   .     S
O260   C261    1.288   .     A
C261   C293    1.439   .     S
C262   C294    1.435   .     S
H265   C269    1.082   .     S
H266   C270    1.082   .     S
H267   C271    1.082   .     S
H268   C272    1.082   .     S
C270   C457    1.417   .     S
C272   C455    1.417   .     S
C273   N299    1.438   .     S
C273   C298    1.402   .     A
C274   C297    1.402   .     A
C274   N302    1.438   .     S
C274   C338    1.386   .     S
C275   N305    1.437   .     S
C275   C297    1.402   .     A
C275   C335    1.386   .     S
C276   N308    1.438   .     S
C276   C298    1.402   .     A
C277   H281    1.083   .     S
C277   C295    1.399   .     A
C277   C285    1.380   .     A
C278   C296    1.400   .     A
C278   H282    1.083   .     S
C278   C286    1.381   .     A
C279   C287    1.380   .     A
C279   C296    1.399   .     A
C279   H283    1.083   .     S
C280   C288    1.380   .     A
C280   H284    1.083   .     S
C280   C295    1.399   .     A
C285   C293    1.400   .     A
C285   H289    1.083   .     S
C286   H290    1.084   .     S
C286   C294    1.398   .     A
C287   C294    1.398   .     A
C287   H291    1.084   .     S
C288   C293    1.400   .     A
C288   H292    1.083   .     S
C295   C854    1.444   1_554 S
C296   C853    1.444   .     S
N299   O300    1.301   .     A
N299   O301    1.301   .     A
N302   O304    1.301   .     A
N302   O303    1.301   .     A
N305   O306    1.301   .     A
N305   O307    1.301   .     A
N308   O310    1.301   .     A
N308   O309    1.301   .     A
O311   Zn325   1.976   .     S
O311   C317    1.281   .     A
O312   Zn326   1.976   .     S
O312   C318    1.280   .     A
O313   Zn325   1.990   .     S
O313   C318    1.275   .     A
O314   Zn326   1.990   .     S
O314   C317    1.275   .     A
N315   C334    1.366   .     A
N315   Zn325   2.010   .     S
N315   C332    1.367   .     A
N316   C333    1.366   .     A
N316   Zn326   2.010   .     S
N316   C331    1.367   .     A
C317   C360    1.407   .     S
C318   C359    1.407   .     S
O319   Zn325   2.001   .     S
O319   C323    1.288   .     A
O320   Zn326   2.001   .     S
O320   C324    1.287   .     A
O321   Zn325   2.001   .     S
O321   C324    1.287   .     A
O322   Zn326   2.001   .     S
O322   C323    1.288   .     A
C323   C355    1.439   .     S
C324   C356    1.435   .     S
H327   C331    1.082   .     S
H328   C332    1.082   .     S
H329   C333    1.082   .     S
H330   C334    1.082   .     S
C332   C519    1.417   .     S
C334   C517    1.417   .     S
C335   N361    1.438   .     S
C335   C360    1.402   .     A
C336   C359    1.402   .     A
C336   N364    1.438   .     S
C336   C214    1.386   1_655 S
C337   N367    1.437   .     S
C337   C359    1.402   .     A
C337   C211    1.386   1_655 S
C338   N370    1.438   .     S
C338   C360    1.402   .     A
C339   H343    1.083   .     S
C339   C357    1.399   .     A
C339   C347    1.380   .     A
C340   C358    1.400   .     A
C340   H344    1.083   .     S
C340   C348    1.381   .     A
C341   C349    1.380   .     A
C341   C358    1.399   .     A
C341   H345    1.083   .     S
C342   C350    1.380   .     A
C342   H346    1.083   .     S
C342   C357    1.399   .     A
C347   C355    1.400   .     A
C347   H351    1.083   .     S
C348   H352    1.084   .     S
C348   C356    1.398   .     A
C349   C356    1.398   .     A
C349   H353    1.084   .     S
C350   C355    1.400   .     A
C350   H354    1.083   .     S
C357   C916    1.444   1_554 S
C358   C915    1.444   .     S
N361   O362    1.301   .     A
N361   O363    1.301   .     A
N364   O366    1.301   .     A
N364   O365    1.301   .     A
N367   O368    1.301   .     A
N367   O369    1.301   .     A
N370   O372    1.301   .     A
N370   O371    1.301   .     A
O373   Zn387   1.976   .     S
O373   C379    1.281   .     A
O374   Zn388   1.976   .     S
O374   C380    1.280   .     A
O375   Zn387   1.990   .     S
O375   C380    1.275   .     A
O376   Zn388   1.990   .     S
O376   C379    1.275   .     A
N377   C396    1.366   .     A
N377   Zn387   2.010   .     S
N377   C394    1.367   .     A
N378   C395    1.366   .     A
N378   Zn388   2.010   .     S
N378   C393    1.367   .     A
C379   C422    1.407   .     S
C380   C421    1.407   .     S
O381   Zn387   2.001   .     S
O381   C385    1.288   .     A
O382   Zn388   2.001   .     S
O382   C386    1.287   .     A
O383   Zn387   2.001   .     S
O383   C386    1.287   .     A
O384   Zn388   2.001   .     S
O384   C385    1.288   .     A
C385   C417    1.439   .     S
C386   C418    1.435   .     S
H389   C393    1.082   .     S
H390   C394    1.082   .     S
H391   C395    1.082   .     S
H392   C396    1.082   .     S
C394   C23     1.417   1_565 S
C396   C21     1.417   1_565 S
C397   N423    1.438   .     S
C397   C422    1.402   .     A
C397   C523    1.386   1_455 S
C398   C421    1.402   .     A
C398   N426    1.438   .     S
C398   C462    1.386   .     S
C399   N429    1.437   .     S
C399   C421    1.402   .     A
C399   C459    1.386   .     S
C400   N432    1.438   .     S
C400   C422    1.402   .     A
C400   C522    1.386   1_455 S
C401   H405    1.083   .     S
C401   C419    1.399   .     A
C401   C409    1.380   .     A
C402   C420    1.400   .     A
C402   H406    1.083   .     S
C402   C410    1.381   .     A
C403   C411    1.380   .     A
C403   C420    1.399   .     A
C403   H407    1.083   .     S
C404   C412    1.380   .     A
C404   H408    1.083   .     S
C404   C419    1.399   .     A
C409   C417    1.400   .     A
C409   H413    1.083   .     S
C410   H414    1.084   .     S
C410   C418    1.398   .     A
C411   C418    1.398   .     A
C411   H415    1.084   .     S
C412   C417    1.400   .     A
C412   H416    1.083   .     S
C419   C978    1.444   1_554 S
C420   C977    1.444   .     S
N423   O424    1.301   .     A
N423   O425    1.301   .     A
N426   O428    1.301   .     A
N426   O427    1.301   .     A
N429   O430    1.301   .     A
N429   O431    1.301   .     A
N432   O434    1.301   .     A
N432   O433    1.301   .     A
O435   Zn449   1.976   .     S
O435   C441    1.281   .     A
O436   Zn450   1.976   .     S
O436   C442    1.280   .     A
O437   Zn449   1.990   .     S
O437   C442    1.275   .     A
O438   Zn450   1.990   .     S
O438   C441    1.275   .     A
N439   C458    1.366   .     A
N439   Zn449   2.010   .     S
N439   C456    1.367   .     A
N440   C457    1.366   .     A
N440   Zn450   2.010   .     S
N440   C455    1.367   .     A
C441   C484    1.407   .     S
C442   C483    1.407   .     S
O443   Zn449   2.001   .     S
O443   C447    1.288   .     A
O444   Zn450   2.001   .     S
O444   C448    1.287   .     A
O445   Zn449   2.001   .     S
O445   C448    1.287   .     A
O446   Zn450   2.001   .     S
O446   C447    1.288   .     A
C447   C479    1.439   .     S
C448   C480    1.435   .     S
H451   C455    1.082   .     S
H452   C456    1.082   .     S
H453   C457    1.082   .     S
H454   C458    1.082   .     S
C456   C85     1.417   1_565 S
C458   C83     1.417   1_565 S
C459   N485    1.438   .     S
C459   C484    1.402   .     A
C460   C483    1.402   .     A
C460   N488    1.438   .     S
C460   C524    1.386   .     S
C461   N491    1.437   .     S
C461   C483    1.402   .     A
C461   C521    1.386   .     S
C462   N494    1.438   .     S
C462   C484    1.402   .     A
C463   H467    1.083   .     S
C463   C481    1.399   .     A
C463   C471    1.380   .     A
C464   C482    1.400   .     A
C464   H468    1.083   .     S
C464   C472    1.381   .     A
C465   C473    1.380   .     A
C465   C482    1.399   .     A
C465   H469    1.083   .     S
C466   C474    1.380   .     A
C466   H470    1.083   .     S
C466   C481    1.399   .     A
C471   C479    1.400   .     A
C471   H475    1.083   .     S
C472   H476    1.084   .     S
C472   C480    1.398   .     A
C473   C480    1.398   .     A
C473   H477    1.084   .     S
C474   C479    1.400   .     A
C474   H478    1.083   .     S
C481   C1040   1.444   1_554 S
C482   C1039   1.444   .     S
N485   O486    1.301   .     A
N485   O487    1.301   .     A
N488   O490    1.301   .     A
N488   O489    1.301   .     A
N491   O492    1.301   .     A
N491   O493    1.301   .     A
N494   O496    1.301   .     A
N494   O495    1.301   .     A
O497   Zn511   1.976   .     S
O497   C503    1.281   .     A
O498   Zn512   1.976   .     S
O498   C504    1.280   .     A
O499   Zn511   1.990   .     S
O499   C504    1.275   .     A
O500   Zn512   1.990   .     S
O500   C503    1.275   .     A
N501   C520    1.366   .     A
N501   Zn511   2.010   .     S
N501   C518    1.367   .     A
N502   C519    1.366   .     A
N502   Zn512   2.010   .     S
N502   C517    1.367   .     A
C503   C546    1.407   .     S
C504   C545    1.407   .     S
O505   Zn511   2.001   .     S
O505   C509    1.288   .     A
O506   Zn512   2.001   .     S
O506   C510    1.287   .     A
O507   Zn511   2.001   .     S
O507   C510    1.287   .     A
O508   Zn512   2.001   .     S
O508   C509    1.288   .     A
C509   C541    1.439   .     S
C510   C542    1.435   .     S
H513   C517    1.082   .     S
H514   C518    1.082   .     S
H515   C519    1.082   .     S
H516   C520    1.082   .     S
C518   C147    1.417   1_565 S
C520   C145    1.417   1_565 S
C521   N547    1.438   .     S
C521   C546    1.402   .     A
C522   C545    1.402   .     A
C522   N550    1.438   .     S
C522   C400    1.386   1_655 S
C523   N553    1.437   .     S
C523   C545    1.402   .     A
C523   C397    1.386   1_655 S
C524   N556    1.438   .     S
C524   C546    1.402   .     A
C525   H529    1.083   .     S
C525   C543    1.399   .     A
C525   C533    1.380   .     A
C526   C544    1.400   .     A
C526   H530    1.083   .     S
C526   C534    1.381   .     A
C527   C535    1.380   .     A
C527   C544    1.399   .     A
C527   H531    1.083   .     S
C528   C536    1.380   .     A
C528   H532    1.083   .     S
C528   C543    1.399   .     A
C533   C541    1.400   .     A
C533   H537    1.083   .     S
C534   H538    1.084   .     S
C534   C542    1.398   .     A
C535   C542    1.398   .     A
C535   H539    1.084   .     S
C536   C541    1.400   .     A
C536   H540    1.083   .     S
C543   C1102   1.444   1_554 S
C544   C1101   1.444   .     S
N547   O548    1.301   .     A
N547   O549    1.301   .     A
N550   O552    1.301   .     A
N550   O551    1.301   .     A
N553   O554    1.301   .     A
N553   O555    1.301   .     A
N556   O558    1.301   .     A
N556   O557    1.301   .     A
O559   Zn573   1.976   .     S
O559   C565    1.281   .     A
O560   Zn574   1.976   .     S
O560   C566    1.280   .     A
O561   Zn573   1.990   .     S
O561   C566    1.275   .     A
O562   Zn574   1.990   .     S
O562   C565    1.275   .     A
N563   C582    1.366   .     A
N563   Zn573   2.010   .     S
N563   C580    1.367   .     A
N564   C581    1.366   .     A
N564   Zn574   2.010   .     S
N564   C579    1.367   .     A
C565   C608    1.407   .     S
C566   C607    1.407   .     S
O567   Zn573   2.001   .     S
O567   C571    1.288   .     A
O568   Zn574   2.001   .     S
O568   C572    1.287   .     A
O569   Zn573   2.001   .     S
O569   C572    1.287   .     A
O570   Zn574   2.001   .     S
O570   C571    1.288   .     A
C571   C603    1.439   .     S
C572   C604    1.435   .     S
H575   C579    1.082   .     S
H576   C580    1.082   .     S
H577   C581    1.082   .     S
H578   C582    1.082   .     S
C579   C954    1.417   1_545 S
C580   C767    1.417   .     S
C581   C952    1.417   1_545 S
C582   C765    1.417   .     S
C583   N609    1.438   .     S
C583   C608    1.402   .     A
C583   C709    1.386   1_455 S
C584   C607    1.402   .     A
C584   N612    1.438   .     S
C584   C648    1.386   .     S
C585   N615    1.437   .     S
C585   C607    1.402   .     A
C585   C645    1.386   .     S
C586   N618    1.438   .     S
C586   C608    1.402   .     A
C586   C708    1.386   1_455 S
C587   H591    1.083   .     S
C587   C605    1.399   .     A
C587   C595    1.380   .     A
C588   C606    1.400   .     A
C588   H592    1.083   .     S
C588   C596    1.381   .     A
C589   C597    1.380   .     A
C589   C606    1.399   .     A
C589   H593    1.083   .     S
C590   C598    1.380   .     A
C590   H594    1.083   .     S
C590   C605    1.399   .     A
C595   C603    1.400   .     A
C595   H599    1.083   .     S
C596   H600    1.084   .     S
C596   C604    1.398   .     A
C597   C604    1.398   .     A
C597   H601    1.084   .     S
C598   C603    1.400   .     A
C598   H602    1.083   .     S
C606   C47     1.444   1_556 S
N609   O610    1.301   .     A
N609   O611    1.301   .     A
N612   O614    1.301   .     A
N612   O613    1.301   .     A
N615   O616    1.301   .     A
N615   O617    1.301   .     A
N618   O620    1.301   .     A
N618   O619    1.301   .     A
O621   Zn635   1.976   .     S
O621   C627    1.281   .     A
O622   Zn636   1.976   .     S
O622   C628    1.280   .     A
O623   Zn635   1.990   .     S
O623   C628    1.275   .     A
O624   Zn636   1.990   .     S
O624   C627    1.275   .     A
N625   C644    1.366   .     A
N625   Zn635   2.010   .     S
N625   C642    1.367   .     A
N626   C643    1.366   .     A
N626   Zn636   2.010   .     S
N626   C641    1.367   .     A
C627   C670    1.407   .     S
C628   C669    1.407   .     S
O629   Zn635   2.001   .     S
O629   C633    1.288   .     A
O630   Zn636   2.001   .     S
O630   C634    1.287   .     A
O631   Zn635   2.001   .     S
O631   C634    1.287   .     A
O632   Zn636   2.001   .     S
O632   C633    1.288   .     A
C633   C665    1.439   .     S
C634   C666    1.435   .     S
H637   C641    1.082   .     S
H638   C642    1.082   .     S
H639   C643    1.082   .     S
H640   C644    1.082   .     S
C641   C1016   1.417   1_545 S
C642   C829    1.417   .     S
C643   C1014   1.417   1_545 S
C644   C827    1.417   .     S
C645   N671    1.438   .     S
C645   C670    1.402   .     A
C646   C669    1.402   .     A
C646   N674    1.438   .     S
C646   C710    1.386   .     S
C647   N677    1.437   .     S
C647   C669    1.402   .     A
C647   C707    1.386   .     S
C648   N680    1.438   .     S
C648   C670    1.402   .     A
C649   H653    1.083   .     S
C649   C667    1.399   .     A
C649   C657    1.380   .     A
C650   C668    1.400   .     A
C650   H654    1.083   .     S
C650   C658    1.381   .     A
C651   C659    1.380   .     A
C651   C668    1.399   .     A
C651   H655    1.083   .     S
C652   C660    1.380   .     A
C652   H656    1.083   .     S
C652   C667    1.399   .     A
C657   C665    1.400   .     A
C657   H661    1.083   .     S
C658   H662    1.084   .     S
C658   C666    1.398   .     A
C659   C666    1.398   .     A
C659   H663    1.084   .     S
C660   C665    1.400   .     A
C660   H664    1.083   .     S
C668   C109    1.444   1_556 S
N671   O672    1.301   .     A
N671   O673    1.301   .     A
N674   O676    1.301   .     A
N674   O675    1.301   .     A
N677   O678    1.301   .     A
N677   O679    1.301   .     A
N680   O682    1.301   .     A
N680   O681    1.301   .     A
O683   Zn697   1.976   .     S
O683   C689    1.281   .     A
O684   Zn698   1.976   .     S
O684   C690    1.280   .     A
O685   Zn697   1.990   .     S
O685   C690    1.275   .     A
O686   Zn698   1.990   .     S
O686   C689    1.275   .     A
N687   C706    1.366   .     A
N687   Zn697   2.010   .     S
N687   C704    1.367   .     A
N688   C705    1.366   .     A
N688   Zn698   2.010   .     S
N688   C703    1.367   .     A
C689   C732    1.407   .     S
C690   C731    1.407   .     S
O691   Zn697   2.001   .     S
O691   C695    1.288   .     A
O692   Zn698   2.001   .     S
O692   C696    1.287   .     A
O693   Zn697   2.001   .     S
O693   C696    1.287   .     A
O694   Zn698   2.001   .     S
O694   C695    1.288   .     A
C695   C727    1.439   .     S
C696   C728    1.435   .     S
H699   C703    1.082   .     S
H700   C704    1.082   .     S
H701   C705    1.082   .     S
H702   C706    1.082   .     S
C703   C1078   1.417   1_545 S
C704   C891    1.417   .     S
C705   C1076   1.417   1_545 S
C706   C889    1.417   .     S
C707   N733    1.438   .     S
C707   C732    1.402   .     A
C708   C731    1.402   .     A
C708   N736    1.438   .     S
C708   C586    1.386   1_655 S
C709   N739    1.437   .     S
C709   C731    1.402   .     A
C709   C583    1.386   1_655 S
C710   N742    1.438   .     S
C710   C732    1.402   .     A
C711   H715    1.083   .     S
C711   C729    1.399   .     A
C711   C719    1.380   .     A
C712   C730    1.400   .     A
C712   H716    1.083   .     S
C712   C720    1.381   .     A
C713   C721    1.380   .     A
C713   C730    1.399   .     A
C713   H717    1.083   .     S
C714   C722    1.380   .     A
C714   H718    1.083   .     S
C714   C729    1.399   .     A
C719   C727    1.400   .     A
C719   H723    1.083   .     S
C720   H724    1.084   .     S
C720   C728    1.398   .     A
C721   C728    1.398   .     A
C721   H725    1.084   .     S
C722   C727    1.400   .     A
C722   H726    1.083   .     S
C730   C171    1.444   1_556 S
N733   O734    1.301   .     A
N733   O735    1.301   .     A
N736   O738    1.301   .     A
N736   O737    1.301   .     A
N739   O740    1.301   .     A
N739   O741    1.301   .     A
N742   O744    1.301   .     A
N742   O743    1.301   .     A
O745   Zn759   1.976   .     S
O745   C751    1.281   .     A
O746   Zn760   1.976   .     S
O746   C752    1.280   .     A
O747   Zn759   1.990   .     S
O747   C752    1.275   .     A
O748   Zn760   1.990   .     S
O748   C751    1.275   .     A
N749   C768    1.366   .     A
N749   Zn759   2.010   .     S
N749   C766    1.367   .     A
N750   C767    1.366   .     A
N750   Zn760   2.010   .     S
N750   C765    1.367   .     A
C751   C794    1.407   .     S
C752   C793    1.407   .     S
O753   Zn759   2.001   .     S
O753   C757    1.288   .     A
O754   Zn760   2.001   .     S
O754   C758    1.287   .     A
O755   Zn759   2.001   .     S
O755   C758    1.287   .     A
O756   Zn760   2.001   .     S
O756   C757    1.288   .     A
C757   C789    1.439   .     S
C758   C790    1.435   .     S
H761   C765    1.082   .     S
H762   C766    1.082   .     S
H763   C767    1.082   .     S
H764   C768    1.082   .     S
C766   C953    1.417   .     S
C768   C951    1.417   .     S
C769   N795    1.438   .     S
C769   C794    1.402   .     A
C769   C895    1.386   1_455 S
C770   C793    1.402   .     A
C770   N798    1.438   .     S
C770   C834    1.386   .     S
C771   N801    1.437   .     S
C771   C793    1.402   .     A
C771   C831    1.386   .     S
C772   N804    1.438   .     S
C772   C794    1.402   .     A
C772   C894    1.386   1_455 S
C773   H777    1.083   .     S
C773   C791    1.399   .     A
C773   C781    1.380   .     A
C774   C792    1.400   .     A
C774   H778    1.083   .     S
C774   C782    1.381   .     A
C775   C783    1.380   .     A
C775   C792    1.399   .     A
C775   H779    1.083   .     S
C776   C784    1.380   .     A
C776   H780    1.083   .     S
C776   C791    1.399   .     A
C781   C789    1.400   .     A
C781   H785    1.083   .     S
C782   H786    1.084   .     S
C782   C790    1.398   .     A
C783   C790    1.398   .     A
C783   H787    1.084   .     S
C784   C789    1.400   .     A
C784   H788    1.083   .     S
C792   C233    1.444   1_556 S
N795   O796    1.301   .     A
N795   O797    1.301   .     A
N798   O800    1.301   .     A
N798   O799    1.301   .     A
N801   O802    1.301   .     A
N801   O803    1.301   .     A
N804   O806    1.301   .     A
N804   O805    1.301   .     A
O807   Zn821   1.976   .     S
O807   C813    1.281   .     A
O808   Zn822   1.976   .     S
O808   C814    1.280   .     A
O809   Zn821   1.990   .     S
O809   C814    1.275   .     A
O810   Zn822   1.990   .     S
O810   C813    1.275   .     A
N811   C830    1.366   .     A
N811   Zn821   2.010   .     S
N811   C828    1.367   .     A
N812   C829    1.366   .     A
N812   Zn822   2.010   .     S
N812   C827    1.367   .     A
C813   C856    1.407   .     S
C814   C855    1.407   .     S
O815   Zn821   2.001   .     S
O815   C819    1.288   .     A
O816   Zn822   2.001   .     S
O816   C820    1.287   .     A
O817   Zn821   2.001   .     S
O817   C820    1.287   .     A
O818   Zn822   2.001   .     S
O818   C819    1.288   .     A
C819   C851    1.439   .     S
C820   C852    1.435   .     S
H823   C827    1.082   .     S
H824   C828    1.082   .     S
H825   C829    1.082   .     S
H826   C830    1.082   .     S
C828   C1015   1.417   .     S
C830   C1013   1.417   .     S
C831   N857    1.438   .     S
C831   C856    1.402   .     A
C832   C855    1.402   .     A
C832   N860    1.438   .     S
C832   C896    1.386   .     S
C833   N863    1.437   .     S
C833   C855    1.402   .     A
C833   C893    1.386   .     S
C834   N866    1.438   .     S
C834   C856    1.402   .     A
C835   H839    1.083   .     S
C835   C853    1.399   .     A
C835   C843    1.380   .     A
C836   C854    1.400   .     A
C836   H840    1.083   .     S
C836   C844    1.381   .     A
C837   C845    1.380   .     A
C837   C854    1.399   .     A
C837   H841    1.083   .     S
C838   C846    1.380   .     A
C838   H842    1.083   .     S
C838   C853    1.399   .     A
C843   C851    1.400   .     A
C843   H847    1.083   .     S
C844   H848    1.084   .     S
C844   C852    1.398   .     A
C845   C852    1.398   .     A
C845   H849    1.084   .     S
C846   C851    1.400   .     A
C846   H850    1.083   .     S
C854   C295    1.444   1_556 S
N857   O858    1.301   .     A
N857   O859    1.301   .     A
N860   O862    1.301   .     A
N860   O861    1.301   .     A
N863   O864    1.301   .     A
N863   O865    1.301   .     A
N866   O868    1.301   .     A
N866   O867    1.301   .     A
O869   Zn883   1.976   .     S
O869   C875    1.281   .     A
O870   Zn884   1.976   .     S
O870   C876    1.280   .     A
O871   Zn883   1.990   .     S
O871   C876    1.275   .     A
O872   Zn884   1.990   .     S
O872   C875    1.275   .     A
N873   C892    1.366   .     A
N873   Zn883   2.010   .     S
N873   C890    1.367   .     A
N874   C891    1.366   .     A
N874   Zn884   2.010   .     S
N874   C889    1.367   .     A
C875   C918    1.407   .     S
C876   C917    1.407   .     S
O877   Zn883   2.001   .     S
O877   C881    1.288   .     A
O878   Zn884   2.001   .     S
O878   C882    1.287   .     A
O879   Zn883   2.001   .     S
O879   C882    1.287   .     A
O880   Zn884   2.001   .     S
O880   C881    1.288   .     A
C881   C913    1.439   .     S
C882   C914    1.435   .     S
H885   C889    1.082   .     S
H886   C890    1.082   .     S
H887   C891    1.082   .     S
H888   C892    1.082   .     S
C890   C1077   1.417   .     S
C892   C1075   1.417   .     S
C893   N919    1.438   .     S
C893   C918    1.402   .     A
C894   C917    1.402   .     A
C894   N922    1.438   .     S
C894   C772    1.386   1_655 S
C895   N925    1.437   .     S
C895   C917    1.402   .     A
C895   C769    1.386   1_655 S
C896   N928    1.438   .     S
C896   C918    1.402   .     A
C897   H901    1.083   .     S
C897   C915    1.399   .     A
C897   C905    1.380   .     A
C898   C916    1.400   .     A
C898   H902    1.083   .     S
C898   C906    1.381   .     A
C899   C907    1.380   .     A
C899   C916    1.399   .     A
C899   H903    1.083   .     S
C900   C908    1.380   .     A
C900   H904    1.083   .     S
C900   C915    1.399   .     A
C905   C913    1.400   .     A
C905   H909    1.083   .     S
C906   H910    1.084   .     S
C906   C914    1.398   .     A
C907   C914    1.398   .     A
C907   H911    1.084   .     S
C908   C913    1.400   .     A
C908   H912    1.083   .     S
C916   C357    1.444   1_556 S
N919   O920    1.301   .     A
N919   O921    1.301   .     A
N922   O924    1.301   .     A
N922   O923    1.301   .     A
N925   O926    1.301   .     A
N925   O927    1.301   .     A
N928   O930    1.301   .     A
N928   O929    1.301   .     A
O931   Zn945   1.976   .     S
O931   C937    1.281   .     A
O932   Zn946   1.976   .     S
O932   C938    1.280   .     A
O933   Zn945   1.990   .     S
O933   C938    1.275   .     A
O934   Zn946   1.990   .     S
O934   C937    1.275   .     A
N935   C954    1.366   .     A
N935   Zn945   2.010   .     S
N935   C952    1.367   .     A
N936   C953    1.366   .     A
N936   Zn946   2.010   .     S
N936   C951    1.367   .     A
C937   C980    1.407   .     S
C938   C979    1.407   .     S
O939   Zn945   2.001   .     S
O939   C943    1.288   .     A
O940   Zn946   2.001   .     S
O940   C944    1.287   .     A
O941   Zn945   2.001   .     S
O941   C944    1.287   .     A
O942   Zn946   2.001   .     S
O942   C943    1.288   .     A
C943   C975    1.439   .     S
C944   C976    1.435   .     S
H947   C951    1.082   .     S
H948   C952    1.082   .     S
H949   C953    1.082   .     S
H950   C954    1.082   .     S
C952   C581    1.417   1_565 S
C954   C579    1.417   1_565 S
C955   N981    1.438   .     S
C955   C980    1.402   .     A
C955   C1081   1.386   1_455 S
C956   C979    1.402   .     A
C956   N984    1.438   .     S
C956   C1020   1.386   .     S
C957   N987    1.437   .     S
C957   C979    1.402   .     A
C957   C1017   1.386   .     S
C958   N990    1.438   .     S
C958   C980    1.402   .     A
C958   C1080   1.386   1_455 S
C959   H963    1.083   .     S
C959   C977    1.399   .     A
C959   C967    1.380   .     A
C960   C978    1.400   .     A
C960   H964    1.083   .     S
C960   C968    1.381   .     A
C961   C969    1.380   .     A
C961   C978    1.399   .     A
C961   H965    1.083   .     S
C962   C970    1.380   .     A
C962   H966    1.083   .     S
C962   C977    1.399   .     A
C967   C975    1.400   .     A
C967   H971    1.083   .     S
C968   H972    1.084   .     S
C968   C976    1.398   .     A
C969   C976    1.398   .     A
C969   H973    1.084   .     S
C970   C975    1.400   .     A
C970   H974    1.083   .     S
C978   C419    1.444   1_556 S
N981   O982    1.301   .     A
N981   O983    1.301   .     A
N984   O986    1.301   .     A
N984   O985    1.301   .     A
N987   O988    1.301   .     A
N987   O989    1.301   .     A
N990   O992    1.301   .     A
N990   O991    1.301   .     A
O993   Zn1007  1.976   .     S
O993   C999    1.281   .     A
O994   Zn1008  1.976   .     S
O994   C1000   1.280   .     A
O995   Zn1007  1.990   .     S
O995   C1000   1.275   .     A
O996   Zn1008  1.990   .     S
O996   C999    1.275   .     A
N997   C1016   1.366   .     A
N997   Zn1007  2.010   .     S
N997   C1014   1.367   .     A
N998   C1015   1.366   .     A
N998   Zn1008  2.010   .     S
N998   C1013   1.367   .     A
C999   C1042   1.407   .     S
C1000  C1041   1.407   .     S
O1001  Zn1007  2.001   .     S
O1001  C1005   1.288   .     A
O1002  Zn1008  2.001   .     S
O1002  C1006   1.287   .     A
O1003  Zn1007  2.001   .     S
O1003  C1006   1.287   .     A
O1004  Zn1008  2.001   .     S
O1004  C1005   1.288   .     A
C1005  C1037   1.439   .     S
C1006  C1038   1.435   .     S
H1009  C1013   1.082   .     S
H1010  C1014   1.082   .     S
H1011  C1015   1.082   .     S
H1012  C1016   1.082   .     S
C1014  C643    1.417   1_565 S
C1016  C641    1.417   1_565 S
C1017  N1043   1.438   .     S
C1017  C1042   1.402   .     A
C1018  C1041   1.402   .     A
C1018  N1046   1.438   .     S
C1018  C1082   1.386   .     S
C1019  N1049   1.437   .     S
C1019  C1041   1.402   .     A
C1019  C1079   1.386   .     S
C1020  N1052   1.438   .     S
C1020  C1042   1.402   .     A
C1021  H1025   1.083   .     S
C1021  C1039   1.399   .     A
C1021  C1029   1.380   .     A
C1022  C1040   1.400   .     A
C1022  H1026   1.083   .     S
C1022  C1030   1.381   .     A
C1023  C1031   1.380   .     A
C1023  C1040   1.399   .     A
C1023  H1027   1.083   .     S
C1024  C1032   1.380   .     A
C1024  H1028   1.083   .     S
C1024  C1039   1.399   .     A
C1029  C1037   1.400   .     A
C1029  H1033   1.083   .     S
C1030  H1034   1.084   .     S
C1030  C1038   1.398   .     A
C1031  C1038   1.398   .     A
C1031  H1035   1.084   .     S
C1032  C1037   1.400   .     A
C1032  H1036   1.083   .     S
C1040  C481    1.444   1_556 S
N1043  O1044   1.301   .     A
N1043  O1045   1.301   .     A
N1046  O1048   1.301   .     A
N1046  O1047   1.301   .     A
N1049  O1050   1.301   .     A
N1049  O1051   1.301   .     A
N1052  O1054   1.301   .     A
N1052  O1053   1.301   .     A
O1055  Zn1069  1.976   .     S
O1055  C1061   1.281   .     A
O1056  Zn1070  1.976   .     S
O1056  C1062   1.280   .     A
O1057  Zn1069  1.990   .     S
O1057  C1062   1.275   .     A
O1058  Zn1070  1.990   .     S
O1058  C1061   1.275   .     A
N1059  C1078   1.366   .     A
N1059  Zn1069  2.010   .     S
N1059  C1076   1.367   .     A
N1060  C1077   1.366   .     A
N1060  Zn1070  2.010   .     S
N1060  C1075   1.367   .     A
C1061  C1104   1.407   .     S
C1062  C1103   1.407   .     S
O1063  Zn1069  2.001   .     S
O1063  C1067   1.288   .     A
O1064  Zn1070  2.001   .     S
O1064  C1068   1.287   .     A
O1065  Zn1069  2.001   .     S
O1065  C1068   1.287   .     A
O1066  Zn1070  2.001   .     S
O1066  C1067   1.288   .     A
C1067  C1099   1.439   .     S
C1068  C1100   1.435   .     S
H1071  C1075   1.082   .     S
H1072  C1076   1.082   .     S
H1073  C1077   1.082   .     S
H1074  C1078   1.082   .     S
C1076  C705    1.417   1_565 S
C1078  C703    1.417   1_565 S
C1079  N1105   1.438   .     S
C1079  C1104   1.402   .     A
C1080  C1103   1.402   .     A
C1080  N1108   1.438   .     S
C1080  C958    1.386   1_655 S
C1081  N1111   1.437   .     S
C1081  C1103   1.402   .     A
C1081  C955    1.386   1_655 S
C1082  N1114   1.438   .     S
C1082  C1104   1.402   .     A
C1083  H1087   1.083   .     S
C1083  C1101   1.399   .     A
C1083  C1091   1.380   .     A
C1084  C1102   1.400   .     A
C1084  H1088   1.083   .     S
C1084  C1092   1.381   .     A
C1085  C1093   1.380   .     A
C1085  C1102   1.399   .     A
C1085  H1089   1.083   .     S
C1086  C1094   1.380   .     A
C1086  H1090   1.083   .     S
C1086  C1101   1.399   .     A
C1091  C1099   1.400   .     A
C1091  H1095   1.083   .     S
C1092  H1096   1.084   .     S
C1092  C1100   1.398   .     A
C1093  C1100   1.398   .     A
C1093  H1097   1.084   .     S
C1094  C1099   1.400   .     A
C1094  H1098   1.083   .     S
C1102  C543    1.444   1_556 S
N1105  O1106   1.301   .     A
N1105  O1107   1.301   .     A
N1108  O1110   1.301   .     A
N1108  O1109   1.301   .     A
N1111  O1112   1.301   .     A
N1111  O1113   1.301   .     A
N1114  O1116   1.301   .     A
N1114  O1115   1.301   .     A
