data_str_m3_o1_o10_pcu_sym.205
_audit_creation_date              2020-01-03
_audit_creation_method            'Materials Studio'
_symmetry_space_group_name_H-M    'P1'
_symmetry_Int_Tables_number       1
_symmetry_cell_setting            triclinic
loop_
_symmetry_equiv_pos_as_xyz
  x,y,z
_cell_length_a                    25.8298
_cell_length_b                    32.1711
_cell_length_c                    29.6775
_cell_angle_alpha                 91.0368
_cell_angle_beta                  97.9182
_cell_angle_gamma                 92.0329
loop_
_atom_site_label
_atom_site_type_symbol
_atom_site_fract_x
_atom_site_fract_y
_atom_site_fract_z
_atom_site_U_iso_or_equiv
_atom_site_adp_type
_atom_site_occupancy
C1     C     0.16503   0.08667   0.16596   0.00000  Uiso   1.00
C2     C     0.16830   0.24666   0.16737   0.00000  Uiso   1.00
C3     C     0.06735   0.16550   0.15505   0.00000  Uiso   1.00
C4     C     0.26598   0.16782   0.17829   0.00000  Uiso   1.00
C5     C     0.01276   0.15975   0.14980   0.00000  Uiso   1.00
C6     C     0.32057   0.17353   0.18354   0.00000  Uiso   1.00
C7     C     0.14003   0.01854   0.12803   0.00000  Uiso   1.00
C8     C     0.19328   0.31479   0.20531   0.00000  Uiso   1.00
C9     C     0.14175   0.30939   0.12991   0.00000  Uiso   1.00
C10    C     0.19157   0.02394   0.20343   0.00000  Uiso   1.00
C11    C     0.16813   0.29083   0.16807   0.00000  Uiso   1.00
C12    C     0.16519   0.04251   0.16527   0.00000  Uiso   1.00
C13    C     0.20269   0.19058   0.02812   0.00000  Uiso   1.00
C14    C     0.13064   0.14275   0.30521   0.00000  Uiso   1.00
C15    C     0.20297   0.18981   0.31385   0.00000  Uiso   1.00
C16    C     0.13036   0.14353   0.01949   0.00000  Uiso   1.00
H17    H     0.12166   0.29073   0.10159   0.00000  Uiso   1.00
H18    H     0.21166   0.04261   0.23175   0.00000  Uiso   1.00
H19    H     0.23254   0.20758   0.29942   0.00000  Uiso   1.00
H20    H     0.10080   0.12574   0.03392   0.00000  Uiso   1.00
N21    N     0.16665   0.16666   0.28573   0.00000  Uiso   1.00
N22    N     0.16668   0.16668   0.04760   0.00000  Uiso   1.00
O23    O     0.16666   0.10558   0.20487   0.00000  Uiso   1.00
O24    O     0.16667   0.22775   0.12846   0.00000  Uiso   1.00
O25    O     0.16666   0.10559   0.12843   0.00000  Uiso   1.00
O26    O     0.16667   0.22774   0.20490   0.00000  Uiso   1.00
O27    O     0.09058   0.16666   0.19595   0.00000  Uiso   1.00
O28    O     0.24275   0.16667   0.13739   0.00000  Uiso   1.00
O29    O     0.09058   0.16667   0.11950   0.00000  Uiso   1.00
O30    O     0.24275   0.16666   0.21383   0.00000  Uiso   1.00
Zn31   Zn    0.16667   0.16666   0.21771   0.00000  Uiso   1.00
Zn32   Zn    0.16667   0.16667   0.11563   0.00000  Uiso   1.00
O33    O     0.32151   0.13922   0.11059   0.00000  Uiso   1.00
C34    C     0.31641   0.09635   0.11939   0.00000  Uiso   1.00
H35    H     0.29430   0.09076   0.14854   0.00000  Uiso   1.00
H36    H     0.02222   0.08275   0.12710   0.00000  Uiso   1.00
C37    C     0.28641   0.07407   0.07763   0.00000  Uiso   1.00
H38    H     0.30749   0.07860   0.04779   0.00000  Uiso   1.00
H39    H     0.28253   0.04025   0.08397   0.00000  Uiso   1.00
H40    H     0.24672   0.08664   0.07003   0.00000  Uiso   1.00
O41    O     0.01184   0.19405   0.22275   0.00000  Uiso   1.00
C42    C     0.01676   0.23694   0.21401   0.00000  Uiso   1.00
H43    H     0.31088   0.25046   0.20650   0.00000  Uiso   1.00
H44    H     0.03867   0.24263   0.18475   0.00000  Uiso   1.00
C45    C     0.04692   0.25918   0.25572   0.00000  Uiso   1.00
H46    H     0.08665   0.24666   0.26315   0.00000  Uiso   1.00
H47    H     0.05069   0.29300   0.24942   0.00000  Uiso   1.00
H48    H     0.02602   0.25457   0.28564   0.00000  Uiso   1.00
I49    I     0.09614   0.04139   0.06858   0.00000  Uiso   1.00
I50    I     0.23712   0.29196   0.26480   0.00000  Uiso   1.00
I51    I     0.25821   0.23233   0.06589   0.00000  Uiso   1.00
I52    I     0.07514   0.10100   0.26745   0.00000  Uiso   1.00
C53    C     0.49836   0.08667   0.16596   0.00000  Uiso   1.00
C54    C     0.50163   0.24666   0.16737   0.00000  Uiso   1.00
C55    C     0.40068   0.16550   0.15505   0.00000  Uiso   1.00
C56    C     0.59932   0.16782   0.17829   0.00000  Uiso   1.00
C57    C     0.34610   0.15975   0.14980   0.00000  Uiso   1.00
C58    C     0.65390   0.17353   0.18354   0.00000  Uiso   1.00
C59    C     0.47336   0.01854   0.12803   0.00000  Uiso   1.00
C60    C     0.52661   0.31479   0.20531   0.00000  Uiso   1.00
C61    C     0.47509   0.30939   0.12991   0.00000  Uiso   1.00
C62    C     0.52490   0.02394   0.20343   0.00000  Uiso   1.00
C63    C     0.50146   0.29083   0.16807   0.00000  Uiso   1.00
C64    C     0.49853   0.04251   0.16527   0.00000  Uiso   1.00
C65    C     0.53602   0.19058   0.02812   0.00000  Uiso   1.00
C66    C     0.46398   0.14275   0.30521   0.00000  Uiso   1.00
C67    C     0.53631   0.18981   0.31385   0.00000  Uiso   1.00
C68    C     0.46369   0.14353   0.01949   0.00000  Uiso   1.00
H69    H     0.45499   0.29073   0.10159   0.00000  Uiso   1.00
H70    H     0.54500   0.04261   0.23175   0.00000  Uiso   1.00
H71    H     0.56587   0.20758   0.29942   0.00000  Uiso   1.00
H72    H     0.43413   0.12574   0.03392   0.00000  Uiso   1.00
N73    N     0.49999   0.16666   0.28573   0.00000  Uiso   1.00
N74    N     0.50001   0.16668   0.04760   0.00000  Uiso   1.00
O75    O     0.50000   0.10558   0.20487   0.00000  Uiso   1.00
O76    O     0.50000   0.22775   0.12846   0.00000  Uiso   1.00
O77    O     0.50000   0.10559   0.12843   0.00000  Uiso   1.00
O78    O     0.50000   0.22774   0.20490   0.00000  Uiso   1.00
O79    O     0.42392   0.16666   0.19595   0.00000  Uiso   1.00
O80    O     0.57608   0.16667   0.13739   0.00000  Uiso   1.00
O81    O     0.42392   0.16667   0.11950   0.00000  Uiso   1.00
O82    O     0.57608   0.16666   0.21383   0.00000  Uiso   1.00
Zn83   Zn    0.50000   0.16666   0.21771   0.00000  Uiso   1.00
Zn84   Zn    0.50000   0.16667   0.11563   0.00000  Uiso   1.00
O85    O     0.65484   0.13922   0.11059   0.00000  Uiso   1.00
C86    C     0.64975   0.09635   0.11939   0.00000  Uiso   1.00
H87    H     0.62764   0.09076   0.14854   0.00000  Uiso   1.00
H88    H     0.35556   0.08275   0.12710   0.00000  Uiso   1.00
C89    C     0.61974   0.07407   0.07763   0.00000  Uiso   1.00
H90    H     0.64082   0.07860   0.04779   0.00000  Uiso   1.00
H91    H     0.61586   0.04025   0.08397   0.00000  Uiso   1.00
H92    H     0.58005   0.08664   0.07003   0.00000  Uiso   1.00
O93    O     0.34517   0.19405   0.22275   0.00000  Uiso   1.00
C94    C     0.35009   0.23694   0.21401   0.00000  Uiso   1.00
H95    H     0.64422   0.25046   0.20650   0.00000  Uiso   1.00
H96    H     0.37200   0.24263   0.18475   0.00000  Uiso   1.00
C97    C     0.38025   0.25918   0.25572   0.00000  Uiso   1.00
H98    H     0.41999   0.24666   0.26315   0.00000  Uiso   1.00
H99    H     0.38402   0.29300   0.24942   0.00000  Uiso   1.00
H100   H     0.35935   0.25457   0.28564   0.00000  Uiso   1.00
I101   I     0.42947   0.04139   0.06858   0.00000  Uiso   1.00
I102   I     0.57045   0.29196   0.26480   0.00000  Uiso   1.00
I103   I     0.59154   0.23233   0.06589   0.00000  Uiso   1.00
I104   I     0.40847   0.10100   0.26745   0.00000  Uiso   1.00
C105   C     0.83170   0.08667   0.16596   0.00000  Uiso   1.00
C106   C     0.83497   0.24666   0.16737   0.00000  Uiso   1.00
C107   C     0.73402   0.16550   0.15505   0.00000  Uiso   1.00
C108   C     0.93265   0.16782   0.17829   0.00000  Uiso   1.00
C109   C     0.67943   0.15975   0.14980   0.00000  Uiso   1.00
C110   C     0.98724   0.17353   0.18354   0.00000  Uiso   1.00
C111   C     0.80670   0.01854   0.12803   0.00000  Uiso   1.00
C112   C     0.85995   0.31479   0.20531   0.00000  Uiso   1.00
C113   C     0.80842   0.30939   0.12991   0.00000  Uiso   1.00
C114   C     0.85823   0.02394   0.20343   0.00000  Uiso   1.00
C115   C     0.83480   0.29083   0.16807   0.00000  Uiso   1.00
C116   C     0.83186   0.04251   0.16527   0.00000  Uiso   1.00
C117   C     0.86936   0.19058   0.02812   0.00000  Uiso   1.00
C118   C     0.79731   0.14275   0.30521   0.00000  Uiso   1.00
C119   C     0.86964   0.18981   0.31385   0.00000  Uiso   1.00
C120   C     0.79703   0.14353   0.01949   0.00000  Uiso   1.00
H121   H     0.78832   0.29073   0.10159   0.00000  Uiso   1.00
H122   H     0.87833   0.04261   0.23175   0.00000  Uiso   1.00
H123   H     0.89921   0.20758   0.29942   0.00000  Uiso   1.00
H124   H     0.76747   0.12574   0.03392   0.00000  Uiso   1.00
N125   N     0.83332   0.16666   0.28573   0.00000  Uiso   1.00
N126   N     0.83335   0.16668   0.04760   0.00000  Uiso   1.00
O127   O     0.83333   0.10558   0.20487   0.00000  Uiso   1.00
O128   O     0.83334   0.22775   0.12846   0.00000  Uiso   1.00
O129   O     0.83333   0.10559   0.12843   0.00000  Uiso   1.00
O130   O     0.83334   0.22774   0.20490   0.00000  Uiso   1.00
O131   O     0.75725   0.16666   0.19595   0.00000  Uiso   1.00
O132   O     0.90942   0.16667   0.13739   0.00000  Uiso   1.00
O133   O     0.75725   0.16667   0.11950   0.00000  Uiso   1.00
O134   O     0.90942   0.16666   0.21383   0.00000  Uiso   1.00
Zn135  Zn    0.83333   0.16666   0.21771   0.00000  Uiso   1.00
Zn136  Zn    0.83333   0.16667   0.11563   0.00000  Uiso   1.00
O137   O     0.98817   0.13922   0.11059   0.00000  Uiso   1.00
C138   C     0.98308   0.09635   0.11939   0.00000  Uiso   1.00
H139   H     0.96097   0.09076   0.14854   0.00000  Uiso   1.00
H140   H     0.68889   0.08275   0.12710   0.00000  Uiso   1.00
C141   C     0.95308   0.07407   0.07763   0.00000  Uiso   1.00
H142   H     0.97416   0.07860   0.04779   0.00000  Uiso   1.00
H143   H     0.94920   0.04025   0.08397   0.00000  Uiso   1.00
H144   H     0.91339   0.08664   0.07003   0.00000  Uiso   1.00
O145   O     0.67851   0.19405   0.22275   0.00000  Uiso   1.00
C146   C     0.68343   0.23694   0.21401   0.00000  Uiso   1.00
H147   H     0.97755   0.25046   0.20650   0.00000  Uiso   1.00
H148   H     0.70534   0.24263   0.18475   0.00000  Uiso   1.00
C149   C     0.71358   0.25918   0.25572   0.00000  Uiso   1.00
H150   H     0.75332   0.24666   0.26315   0.00000  Uiso   1.00
H151   H     0.71735   0.29300   0.24942   0.00000  Uiso   1.00
H152   H     0.69268   0.25457   0.28564   0.00000  Uiso   1.00
I153   I     0.76281   0.04139   0.06858   0.00000  Uiso   1.00
I154   I     0.90379   0.29196   0.26480   0.00000  Uiso   1.00
I155   I     0.92487   0.23233   0.06589   0.00000  Uiso   1.00
I156   I     0.74181   0.10100   0.26745   0.00000  Uiso   1.00
C157   C     0.16503   0.42000   0.16596   0.00000  Uiso   1.00
C158   C     0.16830   0.58000   0.16737   0.00000  Uiso   1.00
C159   C     0.06735   0.49883   0.15505   0.00000  Uiso   1.00
C160   C     0.26598   0.50116   0.17829   0.00000  Uiso   1.00
C161   C     0.01276   0.49308   0.14980   0.00000  Uiso   1.00
C162   C     0.32057   0.50686   0.18354   0.00000  Uiso   1.00
C163   C     0.14003   0.35188   0.12803   0.00000  Uiso   1.00
C164   C     0.19328   0.64813   0.20531   0.00000  Uiso   1.00
C165   C     0.14175   0.64273   0.12991   0.00000  Uiso   1.00
C166   C     0.19157   0.35728   0.20343   0.00000  Uiso   1.00
C167   C     0.16813   0.62416   0.16807   0.00000  Uiso   1.00
C168   C     0.16519   0.37584   0.16527   0.00000  Uiso   1.00
C169   C     0.20269   0.52391   0.02812   0.00000  Uiso   1.00
C170   C     0.13064   0.47609   0.30521   0.00000  Uiso   1.00
C171   C     0.20297   0.52314   0.31385   0.00000  Uiso   1.00
C172   C     0.13036   0.47686   0.01949   0.00000  Uiso   1.00
H173   H     0.12166   0.62406   0.10159   0.00000  Uiso   1.00
H174   H     0.21166   0.37594   0.23175   0.00000  Uiso   1.00
H175   H     0.23254   0.54092   0.29942   0.00000  Uiso   1.00
H176   H     0.10080   0.45908   0.03392   0.00000  Uiso   1.00
N177   N     0.16665   0.49999   0.28573   0.00000  Uiso   1.00
N178   N     0.16668   0.50001   0.04760   0.00000  Uiso   1.00
O179   O     0.16666   0.43892   0.20487   0.00000  Uiso   1.00
O180   O     0.16667   0.56108   0.12846   0.00000  Uiso   1.00
O181   O     0.16666   0.43893   0.12843   0.00000  Uiso   1.00
O182   O     0.16667   0.56107   0.20490   0.00000  Uiso   1.00
O183   O     0.09058   0.50000   0.19595   0.00000  Uiso   1.00
O184   O     0.24275   0.50000   0.13739   0.00000  Uiso   1.00
O185   O     0.09058   0.50000   0.11950   0.00000  Uiso   1.00
O186   O     0.24275   0.50000   0.21383   0.00000  Uiso   1.00
Zn187  Zn    0.16667   0.49999   0.21771   0.00000  Uiso   1.00
Zn188  Zn    0.16667   0.50001   0.11563   0.00000  Uiso   1.00
O189   O     0.32151   0.47255   0.11059   0.00000  Uiso   1.00
C190   C     0.31641   0.42968   0.11939   0.00000  Uiso   1.00
H191   H     0.29430   0.42409   0.14854   0.00000  Uiso   1.00
H192   H     0.02222   0.41609   0.12710   0.00000  Uiso   1.00
C193   C     0.28641   0.40741   0.07763   0.00000  Uiso   1.00
H194   H     0.30749   0.41194   0.04779   0.00000  Uiso   1.00
H195   H     0.28253   0.37358   0.08397   0.00000  Uiso   1.00
H196   H     0.24672   0.41997   0.07003   0.00000  Uiso   1.00
O197   O     0.01184   0.52738   0.22275   0.00000  Uiso   1.00
C198   C     0.01676   0.57027   0.21401   0.00000  Uiso   1.00
H199   H     0.31088   0.58379   0.20650   0.00000  Uiso   1.00
H200   H     0.03867   0.57596   0.18475   0.00000  Uiso   1.00
C201   C     0.04692   0.59251   0.25572   0.00000  Uiso   1.00
H202   H     0.08665   0.57999   0.26315   0.00000  Uiso   1.00
H203   H     0.05069   0.62634   0.24942   0.00000  Uiso   1.00
H204   H     0.02602   0.58790   0.28564   0.00000  Uiso   1.00
I205   I     0.09614   0.37472   0.06858   0.00000  Uiso   1.00
I206   I     0.23712   0.62529   0.26480   0.00000  Uiso   1.00
I207   I     0.25821   0.56566   0.06589   0.00000  Uiso   1.00
I208   I     0.07514   0.43433   0.26745   0.00000  Uiso   1.00
C209   C     0.49836   0.42000   0.16596   0.00000  Uiso   1.00
C210   C     0.50163   0.58000   0.16737   0.00000  Uiso   1.00
C211   C     0.40068   0.49883   0.15505   0.00000  Uiso   1.00
C212   C     0.59932   0.50116   0.17829   0.00000  Uiso   1.00
C213   C     0.34610   0.49308   0.14980   0.00000  Uiso   1.00
C214   C     0.65390   0.50686   0.18354   0.00000  Uiso   1.00
C215   C     0.47336   0.35188   0.12803   0.00000  Uiso   1.00
C216   C     0.52661   0.64813   0.20531   0.00000  Uiso   1.00
C217   C     0.47509   0.64273   0.12991   0.00000  Uiso   1.00
C218   C     0.52490   0.35728   0.20343   0.00000  Uiso   1.00
C219   C     0.50146   0.62416   0.16807   0.00000  Uiso   1.00
C220   C     0.49853   0.37584   0.16527   0.00000  Uiso   1.00
C221   C     0.53602   0.52391   0.02812   0.00000  Uiso   1.00
C222   C     0.46398   0.47609   0.30521   0.00000  Uiso   1.00
C223   C     0.53631   0.52314   0.31385   0.00000  Uiso   1.00
C224   C     0.46369   0.47686   0.01949   0.00000  Uiso   1.00
H225   H     0.45499   0.62406   0.10159   0.00000  Uiso   1.00
H226   H     0.54500   0.37594   0.23175   0.00000  Uiso   1.00
H227   H     0.56587   0.54092   0.29942   0.00000  Uiso   1.00
H228   H     0.43413   0.45908   0.03392   0.00000  Uiso   1.00
N229   N     0.49999   0.49999   0.28573   0.00000  Uiso   1.00
N230   N     0.50001   0.50001   0.04760   0.00000  Uiso   1.00
O231   O     0.50000   0.43892   0.20487   0.00000  Uiso   1.00
O232   O     0.50000   0.56108   0.12846   0.00000  Uiso   1.00
O233   O     0.50000   0.43893   0.12843   0.00000  Uiso   1.00
O234   O     0.50000   0.56107   0.20490   0.00000  Uiso   1.00
O235   O     0.42392   0.50000   0.19595   0.00000  Uiso   1.00
O236   O     0.57608   0.50000   0.13739   0.00000  Uiso   1.00
O237   O     0.42392   0.50000   0.11950   0.00000  Uiso   1.00
O238   O     0.57608   0.50000   0.21383   0.00000  Uiso   1.00
Zn239  Zn    0.50000   0.49999   0.21771   0.00000  Uiso   1.00
Zn240  Zn    0.50000   0.50001   0.11563   0.00000  Uiso   1.00
O241   O     0.65484   0.47255   0.11059   0.00000  Uiso   1.00
C242   C     0.64975   0.42968   0.11939   0.00000  Uiso   1.00
H243   H     0.62764   0.42409   0.14854   0.00000  Uiso   1.00
H244   H     0.35556   0.41609   0.12710   0.00000  Uiso   1.00
C245   C     0.61974   0.40741   0.07763   0.00000  Uiso   1.00
H246   H     0.64082   0.41194   0.04779   0.00000  Uiso   1.00
H247   H     0.61586   0.37358   0.08397   0.00000  Uiso   1.00
H248   H     0.58005   0.41997   0.07003   0.00000  Uiso   1.00
O249   O     0.34517   0.52738   0.22275   0.00000  Uiso   1.00
C250   C     0.35009   0.57027   0.21401   0.00000  Uiso   1.00
H251   H     0.64422   0.58379   0.20650   0.00000  Uiso   1.00
H252   H     0.37200   0.57596   0.18475   0.00000  Uiso   1.00
C253   C     0.38025   0.59251   0.25572   0.00000  Uiso   1.00
H254   H     0.41999   0.57999   0.26315   0.00000  Uiso   1.00
H255   H     0.38402   0.62634   0.24942   0.00000  Uiso   1.00
H256   H     0.35935   0.58790   0.28564   0.00000  Uiso   1.00
I257   I     0.42947   0.37472   0.06858   0.00000  Uiso   1.00
I258   I     0.57045   0.62529   0.26480   0.00000  Uiso   1.00
I259   I     0.59154   0.56566   0.06589   0.00000  Uiso   1.00
I260   I     0.40847   0.43433   0.26745   0.00000  Uiso   1.00
C261   C     0.83170   0.42000   0.16596   0.00000  Uiso   1.00
C262   C     0.83497   0.58000   0.16737   0.00000  Uiso   1.00
C263   C     0.73402   0.49883   0.15505   0.00000  Uiso   1.00
C264   C     0.93265   0.50116   0.17829   0.00000  Uiso   1.00
C265   C     0.67943   0.49308   0.14980   0.00000  Uiso   1.00
C266   C     0.98724   0.50686   0.18354   0.00000  Uiso   1.00
C267   C     0.80670   0.35188   0.12803   0.00000  Uiso   1.00
C268   C     0.85995   0.64813   0.20531   0.00000  Uiso   1.00
C269   C     0.80842   0.64273   0.12991   0.00000  Uiso   1.00
C270   C     0.85823   0.35728   0.20343   0.00000  Uiso   1.00
C271   C     0.83480   0.62416   0.16807   0.00000  Uiso   1.00
C272   C     0.83186   0.37584   0.16527   0.00000  Uiso   1.00
C273   C     0.86936   0.52391   0.02812   0.00000  Uiso   1.00
C274   C     0.79731   0.47609   0.30521   0.00000  Uiso   1.00
C275   C     0.86964   0.52314   0.31385   0.00000  Uiso   1.00
C276   C     0.79703   0.47686   0.01949   0.00000  Uiso   1.00
H277   H     0.78832   0.62406   0.10159   0.00000  Uiso   1.00
H278   H     0.87833   0.37594   0.23175   0.00000  Uiso   1.00
H279   H     0.89921   0.54092   0.29942   0.00000  Uiso   1.00
H280   H     0.76747   0.45908   0.03392   0.00000  Uiso   1.00
N281   N     0.83332   0.49999   0.28573   0.00000  Uiso   1.00
N282   N     0.83335   0.50001   0.04760   0.00000  Uiso   1.00
O283   O     0.83333   0.43892   0.20487   0.00000  Uiso   1.00
O284   O     0.83334   0.56108   0.12846   0.00000  Uiso   1.00
O285   O     0.83333   0.43893   0.12843   0.00000  Uiso   1.00
O286   O     0.83334   0.56107   0.20490   0.00000  Uiso   1.00
O287   O     0.75725   0.50000   0.19595   0.00000  Uiso   1.00
O288   O     0.90942   0.50000   0.13739   0.00000  Uiso   1.00
O289   O     0.75725   0.50000   0.11950   0.00000  Uiso   1.00
O290   O     0.90942   0.50000   0.21383   0.00000  Uiso   1.00
Zn291  Zn    0.83333   0.49999   0.21771   0.00000  Uiso   1.00
Zn292  Zn    0.83333   0.50001   0.11563   0.00000  Uiso   1.00
O293   O     0.98817   0.47255   0.11059   0.00000  Uiso   1.00
C294   C     0.98308   0.42968   0.11939   0.00000  Uiso   1.00
H295   H     0.96097   0.42409   0.14854   0.00000  Uiso   1.00
H296   H     0.68889   0.41609   0.12710   0.00000  Uiso   1.00
C297   C     0.95308   0.40741   0.07763   0.00000  Uiso   1.00
H298   H     0.97416   0.41194   0.04779   0.00000  Uiso   1.00
H299   H     0.94920   0.37358   0.08397   0.00000  Uiso   1.00
H300   H     0.91339   0.41997   0.07003   0.00000  Uiso   1.00
O301   O     0.67851   0.52738   0.22275   0.00000  Uiso   1.00
C302   C     0.68343   0.57027   0.21401   0.00000  Uiso   1.00
H303   H     0.97755   0.58379   0.20650   0.00000  Uiso   1.00
H304   H     0.70534   0.57596   0.18475   0.00000  Uiso   1.00
C305   C     0.71358   0.59251   0.25572   0.00000  Uiso   1.00
H306   H     0.75332   0.57999   0.26315   0.00000  Uiso   1.00
H307   H     0.71735   0.62634   0.24942   0.00000  Uiso   1.00
H308   H     0.69268   0.58790   0.28564   0.00000  Uiso   1.00
I309   I     0.76281   0.37472   0.06858   0.00000  Uiso   1.00
I310   I     0.90379   0.62529   0.26480   0.00000  Uiso   1.00
I311   I     0.92487   0.56566   0.06589   0.00000  Uiso   1.00
I312   I     0.74181   0.43433   0.26745   0.00000  Uiso   1.00
C313   C     0.16503   0.75334   0.16596   0.00000  Uiso   1.00
C314   C     0.16830   0.91333   0.16737   0.00000  Uiso   1.00
C315   C     0.06735   0.83216   0.15505   0.00000  Uiso   1.00
C316   C     0.26598   0.83449   0.17829   0.00000  Uiso   1.00
C317   C     0.01276   0.82642   0.14980   0.00000  Uiso   1.00
C318   C     0.32057   0.84019   0.18354   0.00000  Uiso   1.00
C319   C     0.14003   0.68521   0.12803   0.00000  Uiso   1.00
C320   C     0.19328   0.98146   0.20531   0.00000  Uiso   1.00
C321   C     0.14175   0.97606   0.12991   0.00000  Uiso   1.00
C322   C     0.19157   0.69061   0.20343   0.00000  Uiso   1.00
C323   C     0.16813   0.95749   0.16807   0.00000  Uiso   1.00
C324   C     0.16519   0.70918   0.16527   0.00000  Uiso   1.00
C325   C     0.20269   0.85725   0.02812   0.00000  Uiso   1.00
C326   C     0.13064   0.80942   0.30521   0.00000  Uiso   1.00
C327   C     0.20297   0.85647   0.31385   0.00000  Uiso   1.00
C328   C     0.13036   0.81019   0.01949   0.00000  Uiso   1.00
H329   H     0.12166   0.95739   0.10159   0.00000  Uiso   1.00
H330   H     0.21166   0.70928   0.23175   0.00000  Uiso   1.00
H331   H     0.23254   0.87425   0.29942   0.00000  Uiso   1.00
H332   H     0.10080   0.79241   0.03392   0.00000  Uiso   1.00
N333   N     0.16665   0.83332   0.28573   0.00000  Uiso   1.00
N334   N     0.16668   0.83334   0.04760   0.00000  Uiso   1.00
O335   O     0.16666   0.77225   0.20487   0.00000  Uiso   1.00
O336   O     0.16667   0.89442   0.12846   0.00000  Uiso   1.00
O337   O     0.16666   0.77226   0.12843   0.00000  Uiso   1.00
O338   O     0.16667   0.89441   0.20490   0.00000  Uiso   1.00
O339   O     0.09058   0.83333   0.19595   0.00000  Uiso   1.00
O340   O     0.24275   0.83334   0.13739   0.00000  Uiso   1.00
O341   O     0.09058   0.83334   0.11950   0.00000  Uiso   1.00
O342   O     0.24275   0.83333   0.21383   0.00000  Uiso   1.00
Zn343  Zn    0.16667   0.83333   0.21771   0.00000  Uiso   1.00
Zn344  Zn    0.16667   0.83334   0.11563   0.00000  Uiso   1.00
O345   O     0.32151   0.80588   0.11059   0.00000  Uiso   1.00
C346   C     0.31641   0.76301   0.11939   0.00000  Uiso   1.00
H347   H     0.29430   0.75742   0.14854   0.00000  Uiso   1.00
H348   H     0.02222   0.74942   0.12710   0.00000  Uiso   1.00
C349   C     0.28641   0.74074   0.07763   0.00000  Uiso   1.00
H350   H     0.30749   0.74527   0.04779   0.00000  Uiso   1.00
H351   H     0.28253   0.70692   0.08397   0.00000  Uiso   1.00
H352   H     0.24672   0.75331   0.07003   0.00000  Uiso   1.00
O353   O     0.01184   0.86071   0.22275   0.00000  Uiso   1.00
C354   C     0.01676   0.90360   0.21401   0.00000  Uiso   1.00
H355   H     0.31088   0.91713   0.20650   0.00000  Uiso   1.00
H356   H     0.03867   0.90929   0.18475   0.00000  Uiso   1.00
C357   C     0.04692   0.92584   0.25572   0.00000  Uiso   1.00
H358   H     0.08665   0.91333   0.26315   0.00000  Uiso   1.00
H359   H     0.05069   0.95967   0.24942   0.00000  Uiso   1.00
H360   H     0.02602   0.92123   0.28564   0.00000  Uiso   1.00
I361   I     0.09614   0.70805   0.06858   0.00000  Uiso   1.00
I362   I     0.23712   0.95863   0.26480   0.00000  Uiso   1.00
I363   I     0.25821   0.89899   0.06589   0.00000  Uiso   1.00
I364   I     0.07514   0.76766   0.26745   0.00000  Uiso   1.00
C365   C     0.49836   0.75334   0.16596   0.00000  Uiso   1.00
C366   C     0.50163   0.91333   0.16737   0.00000  Uiso   1.00
C367   C     0.40068   0.83216   0.15505   0.00000  Uiso   1.00
C368   C     0.59932   0.83449   0.17829   0.00000  Uiso   1.00
C369   C     0.34610   0.82642   0.14980   0.00000  Uiso   1.00
C370   C     0.65390   0.84019   0.18354   0.00000  Uiso   1.00
C371   C     0.47336   0.68521   0.12803   0.00000  Uiso   1.00
C372   C     0.52661   0.98146   0.20531   0.00000  Uiso   1.00
C373   C     0.47509   0.97606   0.12991   0.00000  Uiso   1.00
C374   C     0.52490   0.69061   0.20343   0.00000  Uiso   1.00
C375   C     0.50146   0.95749   0.16807   0.00000  Uiso   1.00
C376   C     0.49853   0.70918   0.16527   0.00000  Uiso   1.00
C377   C     0.53602   0.85725   0.02812   0.00000  Uiso   1.00
C378   C     0.46398   0.80942   0.30521   0.00000  Uiso   1.00
C379   C     0.53631   0.85647   0.31385   0.00000  Uiso   1.00
C380   C     0.46369   0.81019   0.01949   0.00000  Uiso   1.00
H381   H     0.45499   0.95739   0.10159   0.00000  Uiso   1.00
H382   H     0.54500   0.70928   0.23175   0.00000  Uiso   1.00
H383   H     0.56587   0.87425   0.29942   0.00000  Uiso   1.00
H384   H     0.43413   0.79241   0.03392   0.00000  Uiso   1.00
N385   N     0.49999   0.83332   0.28573   0.00000  Uiso   1.00
N386   N     0.50001   0.83334   0.04760   0.00000  Uiso   1.00
O387   O     0.50000   0.77225   0.20487   0.00000  Uiso   1.00
O388   O     0.50000   0.89442   0.12846   0.00000  Uiso   1.00
O389   O     0.50000   0.77226   0.12843   0.00000  Uiso   1.00
O390   O     0.50000   0.89441   0.20490   0.00000  Uiso   1.00
O391   O     0.42392   0.83333   0.19595   0.00000  Uiso   1.00
O392   O     0.57608   0.83334   0.13739   0.00000  Uiso   1.00
O393   O     0.42392   0.83334   0.11950   0.00000  Uiso   1.00
O394   O     0.57608   0.83333   0.21383   0.00000  Uiso   1.00
Zn395  Zn    0.50000   0.83333   0.21771   0.00000  Uiso   1.00
Zn396  Zn    0.50000   0.83334   0.11563   0.00000  Uiso   1.00
O397   O     0.65484   0.80588   0.11059   0.00000  Uiso   1.00
C398   C     0.64975   0.76301   0.11939   0.00000  Uiso   1.00
H399   H     0.62764   0.75742   0.14854   0.00000  Uiso   1.00
H400   H     0.35556   0.74942   0.12710   0.00000  Uiso   1.00
C401   C     0.61974   0.74074   0.07763   0.00000  Uiso   1.00
H402   H     0.64082   0.74527   0.04779   0.00000  Uiso   1.00
H403   H     0.61586   0.70692   0.08397   0.00000  Uiso   1.00
H404   H     0.58005   0.75331   0.07003   0.00000  Uiso   1.00
O405   O     0.34517   0.86071   0.22275   0.00000  Uiso   1.00
C406   C     0.35009   0.90360   0.21401   0.00000  Uiso   1.00
H407   H     0.64422   0.91713   0.20650   0.00000  Uiso   1.00
H408   H     0.37200   0.90929   0.18475   0.00000  Uiso   1.00
C409   C     0.38025   0.92584   0.25572   0.00000  Uiso   1.00
H410   H     0.41999   0.91333   0.26315   0.00000  Uiso   1.00
H411   H     0.38402   0.95967   0.24942   0.00000  Uiso   1.00
H412   H     0.35935   0.92123   0.28564   0.00000  Uiso   1.00
I413   I     0.42947   0.70805   0.06858   0.00000  Uiso   1.00
I414   I     0.57045   0.95863   0.26480   0.00000  Uiso   1.00
I415   I     0.59154   0.89899   0.06589   0.00000  Uiso   1.00
I416   I     0.40847   0.76766   0.26745   0.00000  Uiso   1.00
C417   C     0.83170   0.75334   0.16596   0.00000  Uiso   1.00
C418   C     0.83497   0.91333   0.16737   0.00000  Uiso   1.00
C419   C     0.73402   0.83216   0.15505   0.00000  Uiso   1.00
C420   C     0.93265   0.83449   0.17829   0.00000  Uiso   1.00
C421   C     0.67943   0.82642   0.14980   0.00000  Uiso   1.00
C422   C     0.98724   0.84019   0.18354   0.00000  Uiso   1.00
C423   C     0.80670   0.68521   0.12803   0.00000  Uiso   1.00
C424   C     0.85995   0.98146   0.20531   0.00000  Uiso   1.00
C425   C     0.80842   0.97606   0.12991   0.00000  Uiso   1.00
C426   C     0.85823   0.69061   0.20343   0.00000  Uiso   1.00
C427   C     0.83480   0.95749   0.16807   0.00000  Uiso   1.00
C428   C     0.83186   0.70918   0.16527   0.00000  Uiso   1.00
C429   C     0.86936   0.85725   0.02812   0.00000  Uiso   1.00
C430   C     0.79731   0.80942   0.30521   0.00000  Uiso   1.00
C431   C     0.86964   0.85647   0.31385   0.00000  Uiso   1.00
C432   C     0.79703   0.81019   0.01949   0.00000  Uiso   1.00
H433   H     0.78832   0.95739   0.10159   0.00000  Uiso   1.00
H434   H     0.87833   0.70928   0.23175   0.00000  Uiso   1.00
H435   H     0.89921   0.87425   0.29942   0.00000  Uiso   1.00
H436   H     0.76747   0.79241   0.03392   0.00000  Uiso   1.00
N437   N     0.83332   0.83332   0.28573   0.00000  Uiso   1.00
N438   N     0.83335   0.83334   0.04760   0.00000  Uiso   1.00
O439   O     0.83333   0.77225   0.20487   0.00000  Uiso   1.00
O440   O     0.83334   0.89442   0.12846   0.00000  Uiso   1.00
O441   O     0.83333   0.77226   0.12843   0.00000  Uiso   1.00
O442   O     0.83334   0.89441   0.20490   0.00000  Uiso   1.00
O443   O     0.75725   0.83333   0.19595   0.00000  Uiso   1.00
O444   O     0.90942   0.83334   0.13739   0.00000  Uiso   1.00
O445   O     0.75725   0.83334   0.11950   0.00000  Uiso   1.00
O446   O     0.90942   0.83333   0.21383   0.00000  Uiso   1.00
Zn447  Zn    0.83333   0.83333   0.21771   0.00000  Uiso   1.00
Zn448  Zn    0.83333   0.83334   0.11563   0.00000  Uiso   1.00
O449   O     0.98817   0.80588   0.11059   0.00000  Uiso   1.00
C450   C     0.98308   0.76301   0.11939   0.00000  Uiso   1.00
H451   H     0.96097   0.75742   0.14854   0.00000  Uiso   1.00
H452   H     0.68889   0.74942   0.12710   0.00000  Uiso   1.00
C453   C     0.95308   0.74074   0.07763   0.00000  Uiso   1.00
H454   H     0.97416   0.74527   0.04779   0.00000  Uiso   1.00
H455   H     0.94920   0.70692   0.08397   0.00000  Uiso   1.00
H456   H     0.91339   0.75331   0.07003   0.00000  Uiso   1.00
O457   O     0.67851   0.86071   0.22275   0.00000  Uiso   1.00
C458   C     0.68343   0.90360   0.21401   0.00000  Uiso   1.00
H459   H     0.97755   0.91713   0.20650   0.00000  Uiso   1.00
H460   H     0.70534   0.90929   0.18475   0.00000  Uiso   1.00
C461   C     0.71358   0.92584   0.25572   0.00000  Uiso   1.00
H462   H     0.75332   0.91333   0.26315   0.00000  Uiso   1.00
H463   H     0.71735   0.95967   0.24942   0.00000  Uiso   1.00
H464   H     0.69268   0.92123   0.28564   0.00000  Uiso   1.00
I465   I     0.76281   0.70805   0.06858   0.00000  Uiso   1.00
I466   I     0.90379   0.95863   0.26480   0.00000  Uiso   1.00
I467   I     0.92487   0.89899   0.06589   0.00000  Uiso   1.00
I468   I     0.74181   0.76766   0.26745   0.00000  Uiso   1.00
C469   C     0.16503   0.08667   0.49930   0.00000  Uiso   1.00
C470   C     0.16830   0.24666   0.50071   0.00000  Uiso   1.00
C471   C     0.06735   0.16550   0.48838   0.00000  Uiso   1.00
C472   C     0.26598   0.16782   0.51162   0.00000  Uiso   1.00
C473   C     0.01276   0.15975   0.48313   0.00000  Uiso   1.00
C474   C     0.32057   0.17353   0.51688   0.00000  Uiso   1.00
C475   C     0.14003   0.01854   0.46136   0.00000  Uiso   1.00
C476   C     0.19328   0.31479   0.53865   0.00000  Uiso   1.00
C477   C     0.14175   0.30939   0.46325   0.00000  Uiso   1.00
C478   C     0.19157   0.02394   0.53676   0.00000  Uiso   1.00
C479   C     0.16813   0.29083   0.50140   0.00000  Uiso   1.00
C480   C     0.16519   0.04251   0.49860   0.00000  Uiso   1.00
C481   C     0.20269   0.19058   0.36146   0.00000  Uiso   1.00
C482   C     0.13064   0.14275   0.63854   0.00000  Uiso   1.00
C483   C     0.20297   0.18981   0.64718   0.00000  Uiso   1.00
C484   C     0.13036   0.14353   0.35282   0.00000  Uiso   1.00
H485   H     0.12166   0.29073   0.43493   0.00000  Uiso   1.00
H486   H     0.21166   0.04261   0.56508   0.00000  Uiso   1.00
H487   H     0.23254   0.20758   0.63275   0.00000  Uiso   1.00
H488   H     0.10080   0.12574   0.36725   0.00000  Uiso   1.00
N489   N     0.16665   0.16666   0.61907   0.00000  Uiso   1.00
N490   N     0.16668   0.16668   0.38093   0.00000  Uiso   1.00
O491   O     0.16666   0.10558   0.53821   0.00000  Uiso   1.00
O492   O     0.16667   0.22775   0.46179   0.00000  Uiso   1.00
O493   O     0.16666   0.10559   0.46176   0.00000  Uiso   1.00
O494   O     0.16667   0.22774   0.53824   0.00000  Uiso   1.00
O495   O     0.09058   0.16666   0.52928   0.00000  Uiso   1.00
O496   O     0.24275   0.16667   0.47072   0.00000  Uiso   1.00
O497   O     0.09058   0.16667   0.45284   0.00000  Uiso   1.00
O498   O     0.24275   0.16666   0.54716   0.00000  Uiso   1.00
Zn499  Zn    0.16667   0.16666   0.55104   0.00000  Uiso   1.00
Zn500  Zn    0.16667   0.16667   0.44896   0.00000  Uiso   1.00
O501   O     0.32151   0.13922   0.44392   0.00000  Uiso   1.00
C502   C     0.31641   0.09635   0.45273   0.00000  Uiso   1.00
H503   H     0.29430   0.09076   0.48188   0.00000  Uiso   1.00
H504   H     0.02222   0.08275   0.46044   0.00000  Uiso   1.00
C505   C     0.28641   0.07407   0.41096   0.00000  Uiso   1.00
H506   H     0.30749   0.07860   0.38112   0.00000  Uiso   1.00
H507   H     0.28253   0.04025   0.41730   0.00000  Uiso   1.00
H508   H     0.24672   0.08664   0.40336   0.00000  Uiso   1.00
O509   O     0.01184   0.19405   0.55608   0.00000  Uiso   1.00
C510   C     0.01676   0.23694   0.54734   0.00000  Uiso   1.00
H511   H     0.31088   0.25046   0.53983   0.00000  Uiso   1.00
H512   H     0.03867   0.24263   0.51808   0.00000  Uiso   1.00
C513   C     0.04692   0.25918   0.58905   0.00000  Uiso   1.00
H514   H     0.08665   0.24666   0.59648   0.00000  Uiso   1.00
H515   H     0.05069   0.29300   0.58275   0.00000  Uiso   1.00
H516   H     0.02602   0.25457   0.61897   0.00000  Uiso   1.00
I517   I     0.09614   0.04139   0.40192   0.00000  Uiso   1.00
I518   I     0.23712   0.29196   0.59813   0.00000  Uiso   1.00
I519   I     0.25821   0.23233   0.39922   0.00000  Uiso   1.00
I520   I     0.07514   0.10100   0.60078   0.00000  Uiso   1.00
C521   C     0.49836   0.08667   0.49930   0.00000  Uiso   1.00
C522   C     0.50163   0.24666   0.50071   0.00000  Uiso   1.00
C523   C     0.40068   0.16550   0.48838   0.00000  Uiso   1.00
C524   C     0.59932   0.16782   0.51162   0.00000  Uiso   1.00
C525   C     0.34610   0.15975   0.48313   0.00000  Uiso   1.00
C526   C     0.65390   0.17353   0.51688   0.00000  Uiso   1.00
C527   C     0.47336   0.01854   0.46136   0.00000  Uiso   1.00
C528   C     0.52661   0.31479   0.53865   0.00000  Uiso   1.00
C529   C     0.47509   0.30939   0.46325   0.00000  Uiso   1.00
C530   C     0.52490   0.02394   0.53676   0.00000  Uiso   1.00
C531   C     0.50146   0.29083   0.50140   0.00000  Uiso   1.00
C532   C     0.49853   0.04251   0.49860   0.00000  Uiso   1.00
C533   C     0.53602   0.19058   0.36146   0.00000  Uiso   1.00
C534   C     0.46398   0.14275   0.63854   0.00000  Uiso   1.00
C535   C     0.53631   0.18981   0.64718   0.00000  Uiso   1.00
C536   C     0.46369   0.14353   0.35282   0.00000  Uiso   1.00
H537   H     0.45499   0.29073   0.43493   0.00000  Uiso   1.00
H538   H     0.54500   0.04261   0.56508   0.00000  Uiso   1.00
H539   H     0.56587   0.20758   0.63275   0.00000  Uiso   1.00
H540   H     0.43413   0.12574   0.36725   0.00000  Uiso   1.00
N541   N     0.49999   0.16666   0.61907   0.00000  Uiso   1.00
N542   N     0.50001   0.16668   0.38093   0.00000  Uiso   1.00
O543   O     0.50000   0.10558   0.53821   0.00000  Uiso   1.00
O544   O     0.50000   0.22775   0.46179   0.00000  Uiso   1.00
O545   O     0.50000   0.10559   0.46176   0.00000  Uiso   1.00
O546   O     0.50000   0.22774   0.53824   0.00000  Uiso   1.00
O547   O     0.42392   0.16666   0.52928   0.00000  Uiso   1.00
O548   O     0.57608   0.16667   0.47072   0.00000  Uiso   1.00
O549   O     0.42392   0.16667   0.45284   0.00000  Uiso   1.00
O550   O     0.57608   0.16666   0.54716   0.00000  Uiso   1.00
Zn551  Zn    0.50000   0.16666   0.55104   0.00000  Uiso   1.00
Zn552  Zn    0.50000   0.16667   0.44896   0.00000  Uiso   1.00
O553   O     0.65484   0.13922   0.44392   0.00000  Uiso   1.00
C554   C     0.64975   0.09635   0.45273   0.00000  Uiso   1.00
H555   H     0.62764   0.09076   0.48188   0.00000  Uiso   1.00
H556   H     0.35556   0.08275   0.46044   0.00000  Uiso   1.00
C557   C     0.61974   0.07407   0.41096   0.00000  Uiso   1.00
H558   H     0.64082   0.07860   0.38112   0.00000  Uiso   1.00
H559   H     0.61586   0.04025   0.41730   0.00000  Uiso   1.00
H560   H     0.58005   0.08664   0.40336   0.00000  Uiso   1.00
O561   O     0.34517   0.19405   0.55608   0.00000  Uiso   1.00
C562   C     0.35009   0.23694   0.54734   0.00000  Uiso   1.00
H563   H     0.64422   0.25046   0.53983   0.00000  Uiso   1.00
H564   H     0.37200   0.24263   0.51808   0.00000  Uiso   1.00
C565   C     0.38025   0.25918   0.58905   0.00000  Uiso   1.00
H566   H     0.41999   0.24666   0.59648   0.00000  Uiso   1.00
H567   H     0.38402   0.29300   0.58275   0.00000  Uiso   1.00
H568   H     0.35935   0.25457   0.61897   0.00000  Uiso   1.00
I569   I     0.42947   0.04139   0.40192   0.00000  Uiso   1.00
I570   I     0.57045   0.29196   0.59813   0.00000  Uiso   1.00
I571   I     0.59154   0.23233   0.39922   0.00000  Uiso   1.00
I572   I     0.40847   0.10100   0.60078   0.00000  Uiso   1.00
C573   C     0.83170   0.08667   0.49930   0.00000  Uiso   1.00
C574   C     0.83497   0.24666   0.50071   0.00000  Uiso   1.00
C575   C     0.73402   0.16550   0.48838   0.00000  Uiso   1.00
C576   C     0.93265   0.16782   0.51162   0.00000  Uiso   1.00
C577   C     0.67943   0.15975   0.48313   0.00000  Uiso   1.00
C578   C     0.98724   0.17353   0.51688   0.00000  Uiso   1.00
C579   C     0.80670   0.01854   0.46136   0.00000  Uiso   1.00
C580   C     0.85995   0.31479   0.53865   0.00000  Uiso   1.00
C581   C     0.80842   0.30939   0.46325   0.00000  Uiso   1.00
C582   C     0.85823   0.02394   0.53676   0.00000  Uiso   1.00
C583   C     0.83480   0.29083   0.50140   0.00000  Uiso   1.00
C584   C     0.83186   0.04251   0.49860   0.00000  Uiso   1.00
C585   C     0.86936   0.19058   0.36146   0.00000  Uiso   1.00
C586   C     0.79731   0.14275   0.63854   0.00000  Uiso   1.00
C587   C     0.86964   0.18981   0.64718   0.00000  Uiso   1.00
C588   C     0.79703   0.14353   0.35282   0.00000  Uiso   1.00
H589   H     0.78832   0.29073   0.43493   0.00000  Uiso   1.00
H590   H     0.87833   0.04261   0.56508   0.00000  Uiso   1.00
H591   H     0.89921   0.20758   0.63275   0.00000  Uiso   1.00
H592   H     0.76747   0.12574   0.36725   0.00000  Uiso   1.00
N593   N     0.83332   0.16666   0.61907   0.00000  Uiso   1.00
N594   N     0.83335   0.16668   0.38093   0.00000  Uiso   1.00
O595   O     0.83333   0.10558   0.53821   0.00000  Uiso   1.00
O596   O     0.83334   0.22775   0.46179   0.00000  Uiso   1.00
O597   O     0.83333   0.10559   0.46176   0.00000  Uiso   1.00
O598   O     0.83334   0.22774   0.53824   0.00000  Uiso   1.00
O599   O     0.75725   0.16666   0.52928   0.00000  Uiso   1.00
O600   O     0.90942   0.16667   0.47072   0.00000  Uiso   1.00
O601   O     0.75725   0.16667   0.45284   0.00000  Uiso   1.00
O602   O     0.90942   0.16666   0.54716   0.00000  Uiso   1.00
Zn603  Zn    0.83333   0.16666   0.55104   0.00000  Uiso   1.00
Zn604  Zn    0.83333   0.16667   0.44896   0.00000  Uiso   1.00
O605   O     0.98817   0.13922   0.44392   0.00000  Uiso   1.00
C606   C     0.98308   0.09635   0.45273   0.00000  Uiso   1.00
H607   H     0.96097   0.09076   0.48188   0.00000  Uiso   1.00
H608   H     0.68889   0.08275   0.46044   0.00000  Uiso   1.00
C609   C     0.95308   0.07407   0.41096   0.00000  Uiso   1.00
H610   H     0.97416   0.07860   0.38112   0.00000  Uiso   1.00
H611   H     0.94920   0.04025   0.41730   0.00000  Uiso   1.00
H612   H     0.91339   0.08664   0.40336   0.00000  Uiso   1.00
O613   O     0.67851   0.19405   0.55608   0.00000  Uiso   1.00
C614   C     0.68343   0.23694   0.54734   0.00000  Uiso   1.00
H615   H     0.97755   0.25046   0.53983   0.00000  Uiso   1.00
H616   H     0.70534   0.24263   0.51808   0.00000  Uiso   1.00
C617   C     0.71358   0.25918   0.58905   0.00000  Uiso   1.00
H618   H     0.75332   0.24666   0.59648   0.00000  Uiso   1.00
H619   H     0.71735   0.29300   0.58275   0.00000  Uiso   1.00
H620   H     0.69268   0.25457   0.61897   0.00000  Uiso   1.00
I621   I     0.76281   0.04139   0.40192   0.00000  Uiso   1.00
I622   I     0.90379   0.29196   0.59813   0.00000  Uiso   1.00
I623   I     0.92487   0.23233   0.39922   0.00000  Uiso   1.00
I624   I     0.74181   0.10100   0.60078   0.00000  Uiso   1.00
C625   C     0.16503   0.42000   0.49930   0.00000  Uiso   1.00
C626   C     0.16830   0.58000   0.50071   0.00000  Uiso   1.00
C627   C     0.06735   0.49883   0.48838   0.00000  Uiso   1.00
C628   C     0.26598   0.50116   0.51162   0.00000  Uiso   1.00
C629   C     0.01276   0.49308   0.48313   0.00000  Uiso   1.00
C630   C     0.32057   0.50686   0.51688   0.00000  Uiso   1.00
C631   C     0.14003   0.35188   0.46136   0.00000  Uiso   1.00
C632   C     0.19328   0.64813   0.53865   0.00000  Uiso   1.00
C633   C     0.14175   0.64273   0.46325   0.00000  Uiso   1.00
C634   C     0.19157   0.35728   0.53676   0.00000  Uiso   1.00
C635   C     0.16813   0.62416   0.50140   0.00000  Uiso   1.00
C636   C     0.16519   0.37584   0.49860   0.00000  Uiso   1.00
C637   C     0.20269   0.52391   0.36146   0.00000  Uiso   1.00
C638   C     0.13064   0.47609   0.63854   0.00000  Uiso   1.00
C639   C     0.20297   0.52314   0.64718   0.00000  Uiso   1.00
C640   C     0.13036   0.47686   0.35282   0.00000  Uiso   1.00
H641   H     0.12166   0.62406   0.43493   0.00000  Uiso   1.00
H642   H     0.21166   0.37594   0.56508   0.00000  Uiso   1.00
H643   H     0.23254   0.54092   0.63275   0.00000  Uiso   1.00
H644   H     0.10080   0.45908   0.36725   0.00000  Uiso   1.00
N645   N     0.16665   0.49999   0.61907   0.00000  Uiso   1.00
N646   N     0.16668   0.50001   0.38093   0.00000  Uiso   1.00
O647   O     0.16666   0.43892   0.53821   0.00000  Uiso   1.00
O648   O     0.16667   0.56108   0.46179   0.00000  Uiso   1.00
O649   O     0.16666   0.43893   0.46176   0.00000  Uiso   1.00
O650   O     0.16667   0.56107   0.53824   0.00000  Uiso   1.00
O651   O     0.09058   0.50000   0.52928   0.00000  Uiso   1.00
O652   O     0.24275   0.50000   0.47072   0.00000  Uiso   1.00
O653   O     0.09058   0.50000   0.45284   0.00000  Uiso   1.00
O654   O     0.24275   0.50000   0.54716   0.00000  Uiso   1.00
Zn655  Zn    0.16667   0.49999   0.55104   0.00000  Uiso   1.00
Zn656  Zn    0.16667   0.50001   0.44896   0.00000  Uiso   1.00
O657   O     0.32151   0.47255   0.44392   0.00000  Uiso   1.00
C658   C     0.31641   0.42968   0.45273   0.00000  Uiso   1.00
H659   H     0.29430   0.42409   0.48188   0.00000  Uiso   1.00
H660   H     0.02222   0.41609   0.46044   0.00000  Uiso   1.00
C661   C     0.28641   0.40741   0.41096   0.00000  Uiso   1.00
H662   H     0.30749   0.41194   0.38112   0.00000  Uiso   1.00
H663   H     0.28253   0.37358   0.41730   0.00000  Uiso   1.00
H664   H     0.24672   0.41997   0.40336   0.00000  Uiso   1.00
O665   O     0.01184   0.52738   0.55608   0.00000  Uiso   1.00
C666   C     0.01676   0.57027   0.54734   0.00000  Uiso   1.00
H667   H     0.31088   0.58379   0.53983   0.00000  Uiso   1.00
H668   H     0.03867   0.57596   0.51808   0.00000  Uiso   1.00
C669   C     0.04692   0.59251   0.58905   0.00000  Uiso   1.00
H670   H     0.08665   0.57999   0.59648   0.00000  Uiso   1.00
H671   H     0.05069   0.62634   0.58275   0.00000  Uiso   1.00
H672   H     0.02602   0.58790   0.61897   0.00000  Uiso   1.00
I673   I     0.09614   0.37472   0.40192   0.00000  Uiso   1.00
I674   I     0.23712   0.62529   0.59813   0.00000  Uiso   1.00
I675   I     0.25821   0.56566   0.39922   0.00000  Uiso   1.00
I676   I     0.07514   0.43433   0.60078   0.00000  Uiso   1.00
C677   C     0.49836   0.42000   0.49930   0.00000  Uiso   1.00
C678   C     0.50163   0.58000   0.50071   0.00000  Uiso   1.00
C679   C     0.40068   0.49883   0.48838   0.00000  Uiso   1.00
C680   C     0.59932   0.50116   0.51162   0.00000  Uiso   1.00
C681   C     0.34610   0.49308   0.48313   0.00000  Uiso   1.00
C682   C     0.65390   0.50686   0.51688   0.00000  Uiso   1.00
C683   C     0.47336   0.35188   0.46136   0.00000  Uiso   1.00
C684   C     0.52661   0.64813   0.53865   0.00000  Uiso   1.00
C685   C     0.47509   0.64273   0.46325   0.00000  Uiso   1.00
C686   C     0.52490   0.35728   0.53676   0.00000  Uiso   1.00
C687   C     0.50146   0.62416   0.50140   0.00000  Uiso   1.00
C688   C     0.49853   0.37584   0.49860   0.00000  Uiso   1.00
C689   C     0.53602   0.52391   0.36146   0.00000  Uiso   1.00
C690   C     0.46398   0.47609   0.63854   0.00000  Uiso   1.00
C691   C     0.53631   0.52314   0.64718   0.00000  Uiso   1.00
C692   C     0.46369   0.47686   0.35282   0.00000  Uiso   1.00
H693   H     0.45499   0.62406   0.43493   0.00000  Uiso   1.00
H694   H     0.54500   0.37594   0.56508   0.00000  Uiso   1.00
H695   H     0.56587   0.54092   0.63275   0.00000  Uiso   1.00
H696   H     0.43413   0.45908   0.36725   0.00000  Uiso   1.00
N697   N     0.49999   0.49999   0.61907   0.00000  Uiso   1.00
N698   N     0.50001   0.50001   0.38093   0.00000  Uiso   1.00
O699   O     0.50000   0.43892   0.53821   0.00000  Uiso   1.00
O700   O     0.50000   0.56108   0.46179   0.00000  Uiso   1.00
O701   O     0.50000   0.43893   0.46176   0.00000  Uiso   1.00
O702   O     0.50000   0.56107   0.53824   0.00000  Uiso   1.00
O703   O     0.42392   0.50000   0.52928   0.00000  Uiso   1.00
O704   O     0.57608   0.50000   0.47072   0.00000  Uiso   1.00
O705   O     0.42392   0.50000   0.45284   0.00000  Uiso   1.00
O706   O     0.57608   0.50000   0.54716   0.00000  Uiso   1.00
Zn707  Zn    0.50000   0.49999   0.55104   0.00000  Uiso   1.00
Zn708  Zn    0.50000   0.50001   0.44896   0.00000  Uiso   1.00
O709   O     0.65484   0.47255   0.44392   0.00000  Uiso   1.00
C710   C     0.64975   0.42968   0.45273   0.00000  Uiso   1.00
H711   H     0.62764   0.42409   0.48188   0.00000  Uiso   1.00
H712   H     0.35556   0.41609   0.46044   0.00000  Uiso   1.00
C713   C     0.61974   0.40741   0.41096   0.00000  Uiso   1.00
H714   H     0.64082   0.41194   0.38112   0.00000  Uiso   1.00
H715   H     0.61586   0.37358   0.41730   0.00000  Uiso   1.00
H716   H     0.58005   0.41997   0.40336   0.00000  Uiso   1.00
O717   O     0.34517   0.52738   0.55608   0.00000  Uiso   1.00
C718   C     0.35009   0.57027   0.54734   0.00000  Uiso   1.00
H719   H     0.64422   0.58379   0.53983   0.00000  Uiso   1.00
H720   H     0.37200   0.57596   0.51808   0.00000  Uiso   1.00
C721   C     0.38025   0.59251   0.58905   0.00000  Uiso   1.00
H722   H     0.41999   0.57999   0.59648   0.00000  Uiso   1.00
H723   H     0.38402   0.62634   0.58275   0.00000  Uiso   1.00
H724   H     0.35935   0.58790   0.61897   0.00000  Uiso   1.00
I725   I     0.42947   0.37472   0.40192   0.00000  Uiso   1.00
I726   I     0.57045   0.62529   0.59813   0.00000  Uiso   1.00
I727   I     0.59154   0.56566   0.39922   0.00000  Uiso   1.00
I728   I     0.40847   0.43433   0.60078   0.00000  Uiso   1.00
C729   C     0.83170   0.42000   0.49930   0.00000  Uiso   1.00
C730   C     0.83497   0.58000   0.50071   0.00000  Uiso   1.00
C731   C     0.73402   0.49883   0.48838   0.00000  Uiso   1.00
C732   C     0.93265   0.50116   0.51162   0.00000  Uiso   1.00
C733   C     0.67943   0.49308   0.48313   0.00000  Uiso   1.00
C734   C     0.98724   0.50686   0.51688   0.00000  Uiso   1.00
C735   C     0.80670   0.35188   0.46136   0.00000  Uiso   1.00
C736   C     0.85995   0.64813   0.53865   0.00000  Uiso   1.00
C737   C     0.80842   0.64273   0.46325   0.00000  Uiso   1.00
C738   C     0.85823   0.35728   0.53676   0.00000  Uiso   1.00
C739   C     0.83480   0.62416   0.50140   0.00000  Uiso   1.00
C740   C     0.83186   0.37584   0.49860   0.00000  Uiso   1.00
C741   C     0.86936   0.52391   0.36146   0.00000  Uiso   1.00
C742   C     0.79731   0.47609   0.63854   0.00000  Uiso   1.00
C743   C     0.86964   0.52314   0.64718   0.00000  Uiso   1.00
C744   C     0.79703   0.47686   0.35282   0.00000  Uiso   1.00
H745   H     0.78832   0.62406   0.43493   0.00000  Uiso   1.00
H746   H     0.87833   0.37594   0.56508   0.00000  Uiso   1.00
H747   H     0.89921   0.54092   0.63275   0.00000  Uiso   1.00
H748   H     0.76747   0.45908   0.36725   0.00000  Uiso   1.00
N749   N     0.83332   0.49999   0.61907   0.00000  Uiso   1.00
N750   N     0.83335   0.50001   0.38093   0.00000  Uiso   1.00
O751   O     0.83333   0.43892   0.53821   0.00000  Uiso   1.00
O752   O     0.83334   0.56108   0.46179   0.00000  Uiso   1.00
O753   O     0.83333   0.43893   0.46176   0.00000  Uiso   1.00
O754   O     0.83334   0.56107   0.53824   0.00000  Uiso   1.00
O755   O     0.75725   0.50000   0.52928   0.00000  Uiso   1.00
O756   O     0.90942   0.50000   0.47072   0.00000  Uiso   1.00
O757   O     0.75725   0.50000   0.45284   0.00000  Uiso   1.00
O758   O     0.90942   0.50000   0.54716   0.00000  Uiso   1.00
Zn759  Zn    0.83333   0.49999   0.55104   0.00000  Uiso   1.00
Zn760  Zn    0.83333   0.50001   0.44896   0.00000  Uiso   1.00
O761   O     0.98817   0.47255   0.44392   0.00000  Uiso   1.00
C762   C     0.98308   0.42968   0.45273   0.00000  Uiso   1.00
H763   H     0.96097   0.42409   0.48188   0.00000  Uiso   1.00
H764   H     0.68889   0.41609   0.46044   0.00000  Uiso   1.00
C765   C     0.95308   0.40741   0.41096   0.00000  Uiso   1.00
H766   H     0.97416   0.41194   0.38112   0.00000  Uiso   1.00
H767   H     0.94920   0.37358   0.41730   0.00000  Uiso   1.00
H768   H     0.91339   0.41997   0.40336   0.00000  Uiso   1.00
O769   O     0.67851   0.52738   0.55608   0.00000  Uiso   1.00
C770   C     0.68343   0.57027   0.54734   0.00000  Uiso   1.00
H771   H     0.97755   0.58379   0.53983   0.00000  Uiso   1.00
H772   H     0.70534   0.57596   0.51808   0.00000  Uiso   1.00
C773   C     0.71358   0.59251   0.58905   0.00000  Uiso   1.00
H774   H     0.75332   0.57999   0.59648   0.00000  Uiso   1.00
H775   H     0.71735   0.62634   0.58275   0.00000  Uiso   1.00
H776   H     0.69268   0.58790   0.61897   0.00000  Uiso   1.00
I777   I     0.76281   0.37472   0.40192   0.00000  Uiso   1.00
I778   I     0.90379   0.62529   0.59813   0.00000  Uiso   1.00
I779   I     0.92487   0.56566   0.39922   0.00000  Uiso   1.00
I780   I     0.74181   0.43433   0.60078   0.00000  Uiso   1.00
C781   C     0.16503   0.75334   0.49930   0.00000  Uiso   1.00
C782   C     0.16830   0.91333   0.50071   0.00000  Uiso   1.00
C783   C     0.06735   0.83216   0.48838   0.00000  Uiso   1.00
C784   C     0.26598   0.83449   0.51162   0.00000  Uiso   1.00
C785   C     0.01276   0.82642   0.48313   0.00000  Uiso   1.00
C786   C     0.32057   0.84019   0.51688   0.00000  Uiso   1.00
C787   C     0.14003   0.68521   0.46136   0.00000  Uiso   1.00
C788   C     0.19328   0.98146   0.53865   0.00000  Uiso   1.00
C789   C     0.14175   0.97606   0.46325   0.00000  Uiso   1.00
C790   C     0.19157   0.69061   0.53676   0.00000  Uiso   1.00
C791   C     0.16813   0.95749   0.50140   0.00000  Uiso   1.00
C792   C     0.16519   0.70918   0.49860   0.00000  Uiso   1.00
C793   C     0.20269   0.85725   0.36146   0.00000  Uiso   1.00
C794   C     0.13064   0.80942   0.63854   0.00000  Uiso   1.00
C795   C     0.20297   0.85647   0.64718   0.00000  Uiso   1.00
C796   C     0.13036   0.81019   0.35282   0.00000  Uiso   1.00
H797   H     0.12166   0.95739   0.43493   0.00000  Uiso   1.00
H798   H     0.21166   0.70928   0.56508   0.00000  Uiso   1.00
H799   H     0.23254   0.87425   0.63275   0.00000  Uiso   1.00
H800   H     0.10080   0.79241   0.36725   0.00000  Uiso   1.00
N801   N     0.16665   0.83332   0.61907   0.00000  Uiso   1.00
N802   N     0.16668   0.83334   0.38093   0.00000  Uiso   1.00
O803   O     0.16666   0.77225   0.53821   0.00000  Uiso   1.00
O804   O     0.16667   0.89442   0.46179   0.00000  Uiso   1.00
O805   O     0.16666   0.77226   0.46176   0.00000  Uiso   1.00
O806   O     0.16667   0.89441   0.53824   0.00000  Uiso   1.00
O807   O     0.09058   0.83333   0.52928   0.00000  Uiso   1.00
O808   O     0.24275   0.83334   0.47072   0.00000  Uiso   1.00
O809   O     0.09058   0.83334   0.45284   0.00000  Uiso   1.00
O810   O     0.24275   0.83333   0.54716   0.00000  Uiso   1.00
Zn811  Zn    0.16667   0.83333   0.55104   0.00000  Uiso   1.00
Zn812  Zn    0.16667   0.83334   0.44896   0.00000  Uiso   1.00
O813   O     0.32151   0.80588   0.44392   0.00000  Uiso   1.00
C814   C     0.31641   0.76301   0.45273   0.00000  Uiso   1.00
H815   H     0.29430   0.75742   0.48188   0.00000  Uiso   1.00
H816   H     0.02222   0.74942   0.46044   0.00000  Uiso   1.00
C817   C     0.28641   0.74074   0.41096   0.00000  Uiso   1.00
H818   H     0.30749   0.74527   0.38112   0.00000  Uiso   1.00
H819   H     0.28253   0.70692   0.41730   0.00000  Uiso   1.00
H820   H     0.24672   0.75331   0.40336   0.00000  Uiso   1.00
O821   O     0.01184   0.86071   0.55608   0.00000  Uiso   1.00
C822   C     0.01676   0.90360   0.54734   0.00000  Uiso   1.00
H823   H     0.31088   0.91713   0.53983   0.00000  Uiso   1.00
H824   H     0.03867   0.90929   0.51808   0.00000  Uiso   1.00
C825   C     0.04692   0.92584   0.58905   0.00000  Uiso   1.00
H826   H     0.08665   0.91333   0.59648   0.00000  Uiso   1.00
H827   H     0.05069   0.95967   0.58275   0.00000  Uiso   1.00
H828   H     0.02602   0.92123   0.61897   0.00000  Uiso   1.00
I829   I     0.09614   0.70805   0.40192   0.00000  Uiso   1.00
I830   I     0.23712   0.95863   0.59813   0.00000  Uiso   1.00
I831   I     0.25821   0.89899   0.39922   0.00000  Uiso   1.00
I832   I     0.07514   0.76766   0.60078   0.00000  Uiso   1.00
C833   C     0.49836   0.75334   0.49930   0.00000  Uiso   1.00
C834   C     0.50163   0.91333   0.50071   0.00000  Uiso   1.00
C835   C     0.40068   0.83216   0.48838   0.00000  Uiso   1.00
C836   C     0.59932   0.83449   0.51162   0.00000  Uiso   1.00
C837   C     0.34610   0.82642   0.48313   0.00000  Uiso   1.00
C838   C     0.65390   0.84019   0.51688   0.00000  Uiso   1.00
C839   C     0.47336   0.68521   0.46136   0.00000  Uiso   1.00
C840   C     0.52661   0.98146   0.53865   0.00000  Uiso   1.00
C841   C     0.47509   0.97606   0.46325   0.00000  Uiso   1.00
C842   C     0.52490   0.69061   0.53676   0.00000  Uiso   1.00
C843   C     0.50146   0.95749   0.50140   0.00000  Uiso   1.00
C844   C     0.49853   0.70918   0.49860   0.00000  Uiso   1.00
C845   C     0.53602   0.85725   0.36146   0.00000  Uiso   1.00
C846   C     0.46398   0.80942   0.63854   0.00000  Uiso   1.00
C847   C     0.53631   0.85647   0.64718   0.00000  Uiso   1.00
C848   C     0.46369   0.81019   0.35282   0.00000  Uiso   1.00
H849   H     0.45499   0.95739   0.43493   0.00000  Uiso   1.00
H850   H     0.54500   0.70928   0.56508   0.00000  Uiso   1.00
H851   H     0.56587   0.87425   0.63275   0.00000  Uiso   1.00
H852   H     0.43413   0.79241   0.36725   0.00000  Uiso   1.00
N853   N     0.49999   0.83332   0.61907   0.00000  Uiso   1.00
N854   N     0.50001   0.83334   0.38093   0.00000  Uiso   1.00
O855   O     0.50000   0.77225   0.53821   0.00000  Uiso   1.00
O856   O     0.50000   0.89442   0.46179   0.00000  Uiso   1.00
O857   O     0.50000   0.77226   0.46176   0.00000  Uiso   1.00
O858   O     0.50000   0.89441   0.53824   0.00000  Uiso   1.00
O859   O     0.42392   0.83333   0.52928   0.00000  Uiso   1.00
O860   O     0.57608   0.83334   0.47072   0.00000  Uiso   1.00
O861   O     0.42392   0.83334   0.45284   0.00000  Uiso   1.00
O862   O     0.57608   0.83333   0.54716   0.00000  Uiso   1.00
Zn863  Zn    0.50000   0.83333   0.55104   0.00000  Uiso   1.00
Zn864  Zn    0.50000   0.83334   0.44896   0.00000  Uiso   1.00
O865   O     0.65484   0.80588   0.44392   0.00000  Uiso   1.00
C866   C     0.64975   0.76301   0.45273   0.00000  Uiso   1.00
H867   H     0.62764   0.75742   0.48188   0.00000  Uiso   1.00
H868   H     0.35556   0.74942   0.46044   0.00000  Uiso   1.00
C869   C     0.61974   0.74074   0.41096   0.00000  Uiso   1.00
H870   H     0.64082   0.74527   0.38112   0.00000  Uiso   1.00
H871   H     0.61586   0.70692   0.41730   0.00000  Uiso   1.00
H872   H     0.58005   0.75331   0.40336   0.00000  Uiso   1.00
O873   O     0.34517   0.86071   0.55608   0.00000  Uiso   1.00
C874   C     0.35009   0.90360   0.54734   0.00000  Uiso   1.00
H875   H     0.64422   0.91713   0.53983   0.00000  Uiso   1.00
H876   H     0.37200   0.90929   0.51808   0.00000  Uiso   1.00
C877   C     0.38025   0.92584   0.58905   0.00000  Uiso   1.00
H878   H     0.41999   0.91333   0.59648   0.00000  Uiso   1.00
H879   H     0.38402   0.95967   0.58275   0.00000  Uiso   1.00
H880   H     0.35935   0.92123   0.61897   0.00000  Uiso   1.00
I881   I     0.42947   0.70805   0.40192   0.00000  Uiso   1.00
I882   I     0.57045   0.95863   0.59813   0.00000  Uiso   1.00
I883   I     0.59154   0.89899   0.39922   0.00000  Uiso   1.00
I884   I     0.40847   0.76766   0.60078   0.00000  Uiso   1.00
C885   C     0.83170   0.75334   0.49930   0.00000  Uiso   1.00
C886   C     0.83497   0.91333   0.50071   0.00000  Uiso   1.00
C887   C     0.73402   0.83216   0.48838   0.00000  Uiso   1.00
C888   C     0.93265   0.83449   0.51162   0.00000  Uiso   1.00
C889   C     0.67943   0.82642   0.48313   0.00000  Uiso   1.00
C890   C     0.98724   0.84019   0.51688   0.00000  Uiso   1.00
C891   C     0.80670   0.68521   0.46136   0.00000  Uiso   1.00
C892   C     0.85995   0.98146   0.53865   0.00000  Uiso   1.00
C893   C     0.80842   0.97606   0.46325   0.00000  Uiso   1.00
C894   C     0.85823   0.69061   0.53676   0.00000  Uiso   1.00
C895   C     0.83480   0.95749   0.50140   0.00000  Uiso   1.00
C896   C     0.83186   0.70918   0.49860   0.00000  Uiso   1.00
C897   C     0.86936   0.85725   0.36146   0.00000  Uiso   1.00
C898   C     0.79731   0.80942   0.63854   0.00000  Uiso   1.00
C899   C     0.86964   0.85647   0.64718   0.00000  Uiso   1.00
C900   C     0.79703   0.81019   0.35282   0.00000  Uiso   1.00
H901   H     0.78832   0.95739   0.43493   0.00000  Uiso   1.00
H902   H     0.87833   0.70928   0.56508   0.00000  Uiso   1.00
H903   H     0.89921   0.87425   0.63275   0.00000  Uiso   1.00
H904   H     0.76747   0.79241   0.36725   0.00000  Uiso   1.00
N905   N     0.83332   0.83332   0.61907   0.00000  Uiso   1.00
N906   N     0.83335   0.83334   0.38093   0.00000  Uiso   1.00
O907   O     0.83333   0.77225   0.53821   0.00000  Uiso   1.00
O908   O     0.83334   0.89442   0.46179   0.00000  Uiso   1.00
O909   O     0.83333   0.77226   0.46176   0.00000  Uiso   1.00
O910   O     0.83334   0.89441   0.53824   0.00000  Uiso   1.00
O911   O     0.75725   0.83333   0.52928   0.00000  Uiso   1.00
O912   O     0.90942   0.83334   0.47072   0.00000  Uiso   1.00
O913   O     0.75725   0.83334   0.45284   0.00000  Uiso   1.00
O914   O     0.90942   0.83333   0.54716   0.00000  Uiso   1.00
Zn915  Zn    0.83333   0.83333   0.55104   0.00000  Uiso   1.00
Zn916  Zn    0.83333   0.83334   0.44896   0.00000  Uiso   1.00
O917   O     0.98817   0.80588   0.44392   0.00000  Uiso   1.00
C918   C     0.98308   0.76301   0.45273   0.00000  Uiso   1.00
H919   H     0.96097   0.75742   0.48188   0.00000  Uiso   1.00
H920   H     0.68889   0.74942   0.46044   0.00000  Uiso   1.00
C921   C     0.95308   0.74074   0.41096   0.00000  Uiso   1.00
H922   H     0.97416   0.74527   0.38112   0.00000  Uiso   1.00
H923   H     0.94920   0.70692   0.41730   0.00000  Uiso   1.00
H924   H     0.91339   0.75331   0.40336   0.00000  Uiso   1.00
O925   O     0.67851   0.86071   0.55608   0.00000  Uiso   1.00
C926   C     0.68343   0.90360   0.54734   0.00000  Uiso   1.00
H927   H     0.97755   0.91713   0.53983   0.00000  Uiso   1.00
H928   H     0.70534   0.90929   0.51808   0.00000  Uiso   1.00
C929   C     0.71358   0.92584   0.58905   0.00000  Uiso   1.00
H930   H     0.75332   0.91333   0.59648   0.00000  Uiso   1.00
H931   H     0.71735   0.95967   0.58275   0.00000  Uiso   1.00
H932   H     0.69268   0.92123   0.61897   0.00000  Uiso   1.00
I933   I     0.76281   0.70805   0.40192   0.00000  Uiso   1.00
I934   I     0.90379   0.95863   0.59813   0.00000  Uiso   1.00
I935   I     0.92487   0.89899   0.39922   0.00000  Uiso   1.00
I936   I     0.74181   0.76766   0.60078   0.00000  Uiso   1.00
C937   C     0.16503   0.08667   0.83263   0.00000  Uiso   1.00
C938   C     0.16830   0.24666   0.83404   0.00000  Uiso   1.00
C939   C     0.06735   0.16550   0.82172   0.00000  Uiso   1.00
C940   C     0.26598   0.16782   0.84495   0.00000  Uiso   1.00
C941   C     0.01276   0.15975   0.81647   0.00000  Uiso   1.00
C942   C     0.32057   0.17353   0.85021   0.00000  Uiso   1.00
C943   C     0.14003   0.01854   0.79470   0.00000  Uiso   1.00
C944   C     0.19328   0.31479   0.87198   0.00000  Uiso   1.00
C945   C     0.14175   0.30939   0.79658   0.00000  Uiso   1.00
C946   C     0.19157   0.02394   0.87009   0.00000  Uiso   1.00
C947   C     0.16813   0.29083   0.83474   0.00000  Uiso   1.00
C948   C     0.16519   0.04251   0.83193   0.00000  Uiso   1.00
C949   C     0.20269   0.19058   0.69479   0.00000  Uiso   1.00
C950   C     0.13064   0.14275   0.97188   0.00000  Uiso   1.00
C951   C     0.20297   0.18981   0.98052   0.00000  Uiso   1.00
C952   C     0.13036   0.14353   0.68615   0.00000  Uiso   1.00
H953   H     0.12166   0.29073   0.76826   0.00000  Uiso   1.00
H954   H     0.21166   0.04261   0.89841   0.00000  Uiso   1.00
H955   H     0.23254   0.20758   0.96609   0.00000  Uiso   1.00
H956   H     0.10080   0.12574   0.70058   0.00000  Uiso   1.00
N957   N     0.16665   0.16666   0.95240   0.00000  Uiso   1.00
N958   N     0.16668   0.16668   0.71427   0.00000  Uiso   1.00
O959   O     0.16666   0.10558   0.87154   0.00000  Uiso   1.00
O960   O     0.16667   0.22775   0.79513   0.00000  Uiso   1.00
O961   O     0.16666   0.10559   0.79510   0.00000  Uiso   1.00
O962   O     0.16667   0.22774   0.87157   0.00000  Uiso   1.00
O963   O     0.09058   0.16666   0.86261   0.00000  Uiso   1.00
O964   O     0.24275   0.16667   0.80405   0.00000  Uiso   1.00
O965   O     0.09058   0.16667   0.78617   0.00000  Uiso   1.00
O966   O     0.24275   0.16666   0.88050   0.00000  Uiso   1.00
Zn967  Zn    0.16667   0.16666   0.88437   0.00000  Uiso   1.00
Zn968  Zn    0.16667   0.16667   0.78229   0.00000  Uiso   1.00
O969   O     0.32151   0.13922   0.77726   0.00000  Uiso   1.00
C970   C     0.31641   0.09635   0.78606   0.00000  Uiso   1.00
H971   H     0.29430   0.09076   0.81521   0.00000  Uiso   1.00
H972   H     0.02222   0.08275   0.79377   0.00000  Uiso   1.00
C973   C     0.28641   0.07407   0.74430   0.00000  Uiso   1.00
H974   H     0.30749   0.07860   0.71445   0.00000  Uiso   1.00
H975   H     0.28253   0.04025   0.75064   0.00000  Uiso   1.00
H976   H     0.24672   0.08664   0.73670   0.00000  Uiso   1.00
O977   O     0.01184   0.19405   0.88942   0.00000  Uiso   1.00
C978   C     0.01676   0.23694   0.88067   0.00000  Uiso   1.00
H979   H     0.31088   0.25046   0.87317   0.00000  Uiso   1.00
H980   H     0.03867   0.24263   0.85142   0.00000  Uiso   1.00
C981   C     0.04692   0.25918   0.92238   0.00000  Uiso   1.00
H982   H     0.08665   0.24666   0.92981   0.00000  Uiso   1.00
H983   H     0.05069   0.29300   0.91609   0.00000  Uiso   1.00
H984   H     0.02602   0.25457   0.95231   0.00000  Uiso   1.00
I985   I     0.09614   0.04139   0.73525   0.00000  Uiso   1.00
I986   I     0.23712   0.29196   0.93147   0.00000  Uiso   1.00
I987   I     0.25821   0.23233   0.73255   0.00000  Uiso   1.00
I988   I     0.07514   0.10100   0.93412   0.00000  Uiso   1.00
C989   C     0.49836   0.08667   0.83263   0.00000  Uiso   1.00
C990   C     0.50163   0.24666   0.83404   0.00000  Uiso   1.00
C991   C     0.40068   0.16550   0.82172   0.00000  Uiso   1.00
C992   C     0.59932   0.16782   0.84495   0.00000  Uiso   1.00
C993   C     0.34610   0.15975   0.81647   0.00000  Uiso   1.00
C994   C     0.65390   0.17353   0.85021   0.00000  Uiso   1.00
C995   C     0.47336   0.01854   0.79470   0.00000  Uiso   1.00
C996   C     0.52661   0.31479   0.87198   0.00000  Uiso   1.00
C997   C     0.47509   0.30939   0.79658   0.00000  Uiso   1.00
C998   C     0.52490   0.02394   0.87009   0.00000  Uiso   1.00
C999   C     0.50146   0.29083   0.83474   0.00000  Uiso   1.00
C1000  C     0.49853   0.04251   0.83193   0.00000  Uiso   1.00
C1001  C     0.53602   0.19058   0.69479   0.00000  Uiso   1.00
C1002  C     0.46398   0.14275   0.97188   0.00000  Uiso   1.00
C1003  C     0.53631   0.18981   0.98052   0.00000  Uiso   1.00
C1004  C     0.46369   0.14353   0.68615   0.00000  Uiso   1.00
H1005  H     0.45499   0.29073   0.76826   0.00000  Uiso   1.00
H1006  H     0.54500   0.04261   0.89841   0.00000  Uiso   1.00
H1007  H     0.56587   0.20758   0.96609   0.00000  Uiso   1.00
H1008  H     0.43413   0.12574   0.70058   0.00000  Uiso   1.00
N1009  N     0.49999   0.16666   0.95240   0.00000  Uiso   1.00
N1010  N     0.50001   0.16668   0.71427   0.00000  Uiso   1.00
O1011  O     0.50000   0.10558   0.87154   0.00000  Uiso   1.00
O1012  O     0.50000   0.22775   0.79513   0.00000  Uiso   1.00
O1013  O     0.50000   0.10559   0.79510   0.00000  Uiso   1.00
O1014  O     0.50000   0.22774   0.87157   0.00000  Uiso   1.00
O1015  O     0.42392   0.16666   0.86261   0.00000  Uiso   1.00
O1016  O     0.57608   0.16667   0.80405   0.00000  Uiso   1.00
O1017  O     0.42392   0.16667   0.78617   0.00000  Uiso   1.00
O1018  O     0.57608   0.16666   0.88050   0.00000  Uiso   1.00
Zn1019 Zn    0.50000   0.16666   0.88437   0.00000  Uiso   1.00
Zn1020 Zn    0.50000   0.16667   0.78229   0.00000  Uiso   1.00
O1021  O     0.65484   0.13922   0.77726   0.00000  Uiso   1.00
C1022  C     0.64975   0.09635   0.78606   0.00000  Uiso   1.00
H1023  H     0.62764   0.09076   0.81521   0.00000  Uiso   1.00
H1024  H     0.35556   0.08275   0.79377   0.00000  Uiso   1.00
C1025  C     0.61974   0.07407   0.74430   0.00000  Uiso   1.00
H1026  H     0.64082   0.07860   0.71445   0.00000  Uiso   1.00
H1027  H     0.61586   0.04025   0.75064   0.00000  Uiso   1.00
H1028  H     0.58005   0.08664   0.73670   0.00000  Uiso   1.00
O1029  O     0.34517   0.19405   0.88942   0.00000  Uiso   1.00
C1030  C     0.35009   0.23694   0.88067   0.00000  Uiso   1.00
H1031  H     0.64422   0.25046   0.87317   0.00000  Uiso   1.00
H1032  H     0.37200   0.24263   0.85142   0.00000  Uiso   1.00
C1033  C     0.38025   0.25918   0.92238   0.00000  Uiso   1.00
H1034  H     0.41999   0.24666   0.92981   0.00000  Uiso   1.00
H1035  H     0.38402   0.29300   0.91609   0.00000  Uiso   1.00
H1036  H     0.35935   0.25457   0.95231   0.00000  Uiso   1.00
I1037  I     0.42947   0.04139   0.73525   0.00000  Uiso   1.00
I1038  I     0.57045   0.29196   0.93147   0.00000  Uiso   1.00
I1039  I     0.59154   0.23233   0.73255   0.00000  Uiso   1.00
I1040  I     0.40847   0.10100   0.93412   0.00000  Uiso   1.00
C1041  C     0.83170   0.08667   0.83263   0.00000  Uiso   1.00
C1042  C     0.83497   0.24666   0.83404   0.00000  Uiso   1.00
C1043  C     0.73402   0.16550   0.82172   0.00000  Uiso   1.00
C1044  C     0.93265   0.16782   0.84495   0.00000  Uiso   1.00
C1045  C     0.67943   0.15975   0.81647   0.00000  Uiso   1.00
C1046  C     0.98724   0.17353   0.85021   0.00000  Uiso   1.00
C1047  C     0.80670   0.01854   0.79470   0.00000  Uiso   1.00
C1048  C     0.85995   0.31479   0.87198   0.00000  Uiso   1.00
C1049  C     0.80842   0.30939   0.79658   0.00000  Uiso   1.00
C1050  C     0.85823   0.02394   0.87009   0.00000  Uiso   1.00
C1051  C     0.83480   0.29083   0.83474   0.00000  Uiso   1.00
C1052  C     0.83186   0.04251   0.83193   0.00000  Uiso   1.00
C1053  C     0.86936   0.19058   0.69479   0.00000  Uiso   1.00
C1054  C     0.79731   0.14275   0.97188   0.00000  Uiso   1.00
C1055  C     0.86964   0.18981   0.98052   0.00000  Uiso   1.00
C1056  C     0.79703   0.14353   0.68615   0.00000  Uiso   1.00
H1057  H     0.78832   0.29073   0.76826   0.00000  Uiso   1.00
H1058  H     0.87833   0.04261   0.89841   0.00000  Uiso   1.00
H1059  H     0.89921   0.20758   0.96609   0.00000  Uiso   1.00
H1060  H     0.76747   0.12574   0.70058   0.00000  Uiso   1.00
N1061  N     0.83332   0.16666   0.95240   0.00000  Uiso   1.00
N1062  N     0.83335   0.16668   0.71427   0.00000  Uiso   1.00
O1063  O     0.83333   0.10558   0.87154   0.00000  Uiso   1.00
O1064  O     0.83334   0.22775   0.79513   0.00000  Uiso   1.00
O1065  O     0.83333   0.10559   0.79510   0.00000  Uiso   1.00
O1066  O     0.83334   0.22774   0.87157   0.00000  Uiso   1.00
O1067  O     0.75725   0.16666   0.86261   0.00000  Uiso   1.00
O1068  O     0.90942   0.16667   0.80405   0.00000  Uiso   1.00
O1069  O     0.75725   0.16667   0.78617   0.00000  Uiso   1.00
O1070  O     0.90942   0.16666   0.88050   0.00000  Uiso   1.00
Zn1071 Zn    0.83333   0.16666   0.88437   0.00000  Uiso   1.00
Zn1072 Zn    0.83333   0.16667   0.78229   0.00000  Uiso   1.00
O1073  O     0.98817   0.13922   0.77726   0.00000  Uiso   1.00
C1074  C     0.98308   0.09635   0.78606   0.00000  Uiso   1.00
H1075  H     0.96097   0.09076   0.81521   0.00000  Uiso   1.00
H1076  H     0.68889   0.08275   0.79377   0.00000  Uiso   1.00
C1077  C     0.95308   0.07407   0.74430   0.00000  Uiso   1.00
H1078  H     0.97416   0.07860   0.71445   0.00000  Uiso   1.00
H1079  H     0.94920   0.04025   0.75064   0.00000  Uiso   1.00
H1080  H     0.91339   0.08664   0.73670   0.00000  Uiso   1.00
O1081  O     0.67851   0.19405   0.88942   0.00000  Uiso   1.00
C1082  C     0.68343   0.23694   0.88067   0.00000  Uiso   1.00
H1083  H     0.97755   0.25046   0.87317   0.00000  Uiso   1.00
H1084  H     0.70534   0.24263   0.85142   0.00000  Uiso   1.00
C1085  C     0.71358   0.25918   0.92238   0.00000  Uiso   1.00
H1086  H     0.75332   0.24666   0.92981   0.00000  Uiso   1.00
H1087  H     0.71735   0.29300   0.91609   0.00000  Uiso   1.00
H1088  H     0.69268   0.25457   0.95231   0.00000  Uiso   1.00
I1089  I     0.76281   0.04139   0.73525   0.00000  Uiso   1.00
I1090  I     0.90379   0.29196   0.93147   0.00000  Uiso   1.00
I1091  I     0.92487   0.23233   0.73255   0.00000  Uiso   1.00
I1092  I     0.74181   0.10100   0.93412   0.00000  Uiso   1.00
C1093  C     0.16503   0.42000   0.83263   0.00000  Uiso   1.00
C1094  C     0.16830   0.58000   0.83404   0.00000  Uiso   1.00
C1095  C     0.06735   0.49883   0.82172   0.00000  Uiso   1.00
C1096  C     0.26598   0.50116   0.84495   0.00000  Uiso   1.00
C1097  C     0.01276   0.49308   0.81647   0.00000  Uiso   1.00
C1098  C     0.32057   0.50686   0.85021   0.00000  Uiso   1.00
C1099  C     0.14003   0.35188   0.79470   0.00000  Uiso   1.00
C1100  C     0.19328   0.64813   0.87198   0.00000  Uiso   1.00
C1101  C     0.14175   0.64273   0.79658   0.00000  Uiso   1.00
C1102  C     0.19157   0.35728   0.87009   0.00000  Uiso   1.00
C1103  C     0.16813   0.62416   0.83474   0.00000  Uiso   1.00
C1104  C     0.16519   0.37584   0.83193   0.00000  Uiso   1.00
C1105  C     0.20269   0.52391   0.69479   0.00000  Uiso   1.00
C1106  C     0.13064   0.47609   0.97188   0.00000  Uiso   1.00
C1107  C     0.20297   0.52314   0.98052   0.00000  Uiso   1.00
C1108  C     0.13036   0.47686   0.68615   0.00000  Uiso   1.00
H1109  H     0.12166   0.62406   0.76826   0.00000  Uiso   1.00
H1110  H     0.21166   0.37594   0.89841   0.00000  Uiso   1.00
H1111  H     0.23254   0.54092   0.96609   0.00000  Uiso   1.00
H1112  H     0.10080   0.45908   0.70058   0.00000  Uiso   1.00
N1113  N     0.16665   0.49999   0.95240   0.00000  Uiso   1.00
N1114  N     0.16668   0.50001   0.71427   0.00000  Uiso   1.00
O1115  O     0.16666   0.43892   0.87154   0.00000  Uiso   1.00
O1116  O     0.16667   0.56108   0.79513   0.00000  Uiso   1.00
O1117  O     0.16666   0.43893   0.79510   0.00000  Uiso   1.00
O1118  O     0.16667   0.56107   0.87157   0.00000  Uiso   1.00
O1119  O     0.09058   0.50000   0.86261   0.00000  Uiso   1.00
O1120  O     0.24275   0.50000   0.80405   0.00000  Uiso   1.00
O1121  O     0.09058   0.50000   0.78617   0.00000  Uiso   1.00
O1122  O     0.24275   0.50000   0.88050   0.00000  Uiso   1.00
Zn1123 Zn    0.16667   0.49999   0.88437   0.00000  Uiso   1.00
Zn1124 Zn    0.16667   0.50001   0.78229   0.00000  Uiso   1.00
O1125  O     0.32151   0.47255   0.77726   0.00000  Uiso   1.00
C1126  C     0.31641   0.42968   0.78606   0.00000  Uiso   1.00
H1127  H     0.29430   0.42409   0.81521   0.00000  Uiso   1.00
H1128  H     0.02222   0.41609   0.79377   0.00000  Uiso   1.00
C1129  C     0.28641   0.40741   0.74430   0.00000  Uiso   1.00
H1130  H     0.30749   0.41194   0.71445   0.00000  Uiso   1.00
H1131  H     0.28253   0.37358   0.75064   0.00000  Uiso   1.00
H1132  H     0.24672   0.41997   0.73670   0.00000  Uiso   1.00
O1133  O     0.01184   0.52738   0.88942   0.00000  Uiso   1.00
C1134  C     0.01676   0.57027   0.88067   0.00000  Uiso   1.00
H1135  H     0.31088   0.58379   0.87317   0.00000  Uiso   1.00
H1136  H     0.03867   0.57596   0.85142   0.00000  Uiso   1.00
C1137  C     0.04692   0.59251   0.92238   0.00000  Uiso   1.00
H1138  H     0.08665   0.57999   0.92981   0.00000  Uiso   1.00
H1139  H     0.05069   0.62634   0.91609   0.00000  Uiso   1.00
H1140  H     0.02602   0.58790   0.95231   0.00000  Uiso   1.00
I1141  I     0.09614   0.37472   0.73525   0.00000  Uiso   1.00
I1142  I     0.23712   0.62529   0.93147   0.00000  Uiso   1.00
I1143  I     0.25821   0.56566   0.73255   0.00000  Uiso   1.00
I1144  I     0.07514   0.43433   0.93412   0.00000  Uiso   1.00
C1145  C     0.49836   0.42000   0.83263   0.00000  Uiso   1.00
C1146  C     0.50163   0.58000   0.83404   0.00000  Uiso   1.00
C1147  C     0.40068   0.49883   0.82172   0.00000  Uiso   1.00
C1148  C     0.59932   0.50116   0.84495   0.00000  Uiso   1.00
C1149  C     0.34610   0.49308   0.81647   0.00000  Uiso   1.00
C1150  C     0.65390   0.50686   0.85021   0.00000  Uiso   1.00
C1151  C     0.47336   0.35188   0.79470   0.00000  Uiso   1.00
C1152  C     0.52661   0.64813   0.87198   0.00000  Uiso   1.00
C1153  C     0.47509   0.64273   0.79658   0.00000  Uiso   1.00
C1154  C     0.52490   0.35728   0.87009   0.00000  Uiso   1.00
C1155  C     0.50146   0.62416   0.83474   0.00000  Uiso   1.00
C1156  C     0.49853   0.37584   0.83193   0.00000  Uiso   1.00
C1157  C     0.53602   0.52391   0.69479   0.00000  Uiso   1.00
C1158  C     0.46398   0.47609   0.97188   0.00000  Uiso   1.00
C1159  C     0.53631   0.52314   0.98052   0.00000  Uiso   1.00
C1160  C     0.46369   0.47686   0.68615   0.00000  Uiso   1.00
H1161  H     0.45499   0.62406   0.76826   0.00000  Uiso   1.00
H1162  H     0.54500   0.37594   0.89841   0.00000  Uiso   1.00
H1163  H     0.56587   0.54092   0.96609   0.00000  Uiso   1.00
H1164  H     0.43413   0.45908   0.70058   0.00000  Uiso   1.00
N1165  N     0.49999   0.49999   0.95240   0.00000  Uiso   1.00
N1166  N     0.50001   0.50001   0.71427   0.00000  Uiso   1.00
O1167  O     0.50000   0.43892   0.87154   0.00000  Uiso   1.00
O1168  O     0.50000   0.56108   0.79513   0.00000  Uiso   1.00
O1169  O     0.50000   0.43893   0.79510   0.00000  Uiso   1.00
O1170  O     0.50000   0.56107   0.87157   0.00000  Uiso   1.00
O1171  O     0.42392   0.50000   0.86261   0.00000  Uiso   1.00
O1172  O     0.57608   0.50000   0.80405   0.00000  Uiso   1.00
O1173  O     0.42392   0.50000   0.78617   0.00000  Uiso   1.00
O1174  O     0.57608   0.50000   0.88050   0.00000  Uiso   1.00
Zn1175 Zn    0.50000   0.49999   0.88437   0.00000  Uiso   1.00
Zn1176 Zn    0.50000   0.50001   0.78229   0.00000  Uiso   1.00
O1177  O     0.65484   0.47255   0.77726   0.00000  Uiso   1.00
C1178  C     0.64975   0.42968   0.78606   0.00000  Uiso   1.00
H1179  H     0.62764   0.42409   0.81521   0.00000  Uiso   1.00
H1180  H     0.35556   0.41609   0.79377   0.00000  Uiso   1.00
C1181  C     0.61974   0.40741   0.74430   0.00000  Uiso   1.00
H1182  H     0.64082   0.41194   0.71445   0.00000  Uiso   1.00
H1183  H     0.61586   0.37358   0.75064   0.00000  Uiso   1.00
H1184  H     0.58005   0.41997   0.73670   0.00000  Uiso   1.00
O1185  O     0.34517   0.52738   0.88942   0.00000  Uiso   1.00
C1186  C     0.35009   0.57027   0.88067   0.00000  Uiso   1.00
H1187  H     0.64422   0.58379   0.87317   0.00000  Uiso   1.00
H1188  H     0.37200   0.57596   0.85142   0.00000  Uiso   1.00
C1189  C     0.38025   0.59251   0.92238   0.00000  Uiso   1.00
H1190  H     0.41999   0.57999   0.92981   0.00000  Uiso   1.00
H1191  H     0.38402   0.62634   0.91609   0.00000  Uiso   1.00
H1192  H     0.35935   0.58790   0.95231   0.00000  Uiso   1.00
I1193  I     0.42947   0.37472   0.73525   0.00000  Uiso   1.00
I1194  I     0.57045   0.62529   0.93147   0.00000  Uiso   1.00
I1195  I     0.59154   0.56566   0.73255   0.00000  Uiso   1.00
I1196  I     0.40847   0.43433   0.93412   0.00000  Uiso   1.00
C1197  C     0.83170   0.42000   0.83263   0.00000  Uiso   1.00
C1198  C     0.83497   0.58000   0.83404   0.00000  Uiso   1.00
C1199  C     0.73402   0.49883   0.82172   0.00000  Uiso   1.00
C1200  C     0.93265   0.50116   0.84495   0.00000  Uiso   1.00
C1201  C     0.67943   0.49308   0.81647   0.00000  Uiso   1.00
C1202  C     0.98724   0.50686   0.85021   0.00000  Uiso   1.00
C1203  C     0.80670   0.35188   0.79470   0.00000  Uiso   1.00
C1204  C     0.85995   0.64813   0.87198   0.00000  Uiso   1.00
C1205  C     0.80842   0.64273   0.79658   0.00000  Uiso   1.00
C1206  C     0.85823   0.35728   0.87009   0.00000  Uiso   1.00
C1207  C     0.83480   0.62416   0.83474   0.00000  Uiso   1.00
C1208  C     0.83186   0.37584   0.83193   0.00000  Uiso   1.00
C1209  C     0.86936   0.52391   0.69479   0.00000  Uiso   1.00
C1210  C     0.79731   0.47609   0.97188   0.00000  Uiso   1.00
C1211  C     0.86964   0.52314   0.98052   0.00000  Uiso   1.00
C1212  C     0.79703   0.47686   0.68615   0.00000  Uiso   1.00
H1213  H     0.78832   0.62406   0.76826   0.00000  Uiso   1.00
H1214  H     0.87833   0.37594   0.89841   0.00000  Uiso   1.00
H1215  H     0.89921   0.54092   0.96609   0.00000  Uiso   1.00
H1216  H     0.76747   0.45908   0.70058   0.00000  Uiso   1.00
N1217  N     0.83332   0.49999   0.95240   0.00000  Uiso   1.00
N1218  N     0.83335   0.50001   0.71427   0.00000  Uiso   1.00
O1219  O     0.83333   0.43892   0.87154   0.00000  Uiso   1.00
O1220  O     0.83334   0.56108   0.79513   0.00000  Uiso   1.00
O1221  O     0.83333   0.43893   0.79510   0.00000  Uiso   1.00
O1222  O     0.83334   0.56107   0.87157   0.00000  Uiso   1.00
O1223  O     0.75725   0.50000   0.86261   0.00000  Uiso   1.00
O1224  O     0.90942   0.50000   0.80405   0.00000  Uiso   1.00
O1225  O     0.75725   0.50000   0.78617   0.00000  Uiso   1.00
O1226  O     0.90942   0.50000   0.88050   0.00000  Uiso   1.00
Zn1227 Zn    0.83333   0.49999   0.88437   0.00000  Uiso   1.00
Zn1228 Zn    0.83333   0.50001   0.78229   0.00000  Uiso   1.00
O1229  O     0.98817   0.47255   0.77726   0.00000  Uiso   1.00
C1230  C     0.98308   0.42968   0.78606   0.00000  Uiso   1.00
H1231  H     0.96097   0.42409   0.81521   0.00000  Uiso   1.00
H1232  H     0.68889   0.41609   0.79377   0.00000  Uiso   1.00
C1233  C     0.95308   0.40741   0.74430   0.00000  Uiso   1.00
H1234  H     0.97416   0.41194   0.71445   0.00000  Uiso   1.00
H1235  H     0.94920   0.37358   0.75064   0.00000  Uiso   1.00
H1236  H     0.91339   0.41997   0.73670   0.00000  Uiso   1.00
O1237  O     0.67851   0.52738   0.88942   0.00000  Uiso   1.00
C1238  C     0.68343   0.57027   0.88067   0.00000  Uiso   1.00
H1239  H     0.97755   0.58379   0.87317   0.00000  Uiso   1.00
H1240  H     0.70534   0.57596   0.85142   0.00000  Uiso   1.00
C1241  C     0.71358   0.59251   0.92238   0.00000  Uiso   1.00
H1242  H     0.75332   0.57999   0.92981   0.00000  Uiso   1.00
H1243  H     0.71735   0.62634   0.91609   0.00000  Uiso   1.00
H1244  H     0.69268   0.58790   0.95231   0.00000  Uiso   1.00
I1245  I     0.76281   0.37472   0.73525   0.00000  Uiso   1.00
I1246  I     0.90379   0.62529   0.93147   0.00000  Uiso   1.00
I1247  I     0.92487   0.56566   0.73255   0.00000  Uiso   1.00
I1248  I     0.74181   0.43433   0.93412   0.00000  Uiso   1.00
C1249  C     0.16503   0.75334   0.83263   0.00000  Uiso   1.00
C1250  C     0.16830   0.91333   0.83404   0.00000  Uiso   1.00
C1251  C     0.06735   0.83216   0.82172   0.00000  Uiso   1.00
C1252  C     0.26598   0.83449   0.84495   0.00000  Uiso   1.00
C1253  C     0.01276   0.82642   0.81647   0.00000  Uiso   1.00
C1254  C     0.32057   0.84019   0.85021   0.00000  Uiso   1.00
C1255  C     0.14003   0.68521   0.79470   0.00000  Uiso   1.00
C1256  C     0.19328   0.98146   0.87198   0.00000  Uiso   1.00
C1257  C     0.14175   0.97606   0.79658   0.00000  Uiso   1.00
C1258  C     0.19157   0.69061   0.87009   0.00000  Uiso   1.00
C1259  C     0.16813   0.95749   0.83474   0.00000  Uiso   1.00
C1260  C     0.16519   0.70918   0.83193   0.00000  Uiso   1.00
C1261  C     0.20269   0.85725   0.69479   0.00000  Uiso   1.00
C1262  C     0.13064   0.80942   0.97188   0.00000  Uiso   1.00
C1263  C     0.20297   0.85647   0.98052   0.00000  Uiso   1.00
C1264  C     0.13036   0.81019   0.68615   0.00000  Uiso   1.00
H1265  H     0.12166   0.95739   0.76826   0.00000  Uiso   1.00
H1266  H     0.21166   0.70928   0.89841   0.00000  Uiso   1.00
H1267  H     0.23254   0.87425   0.96609   0.00000  Uiso   1.00
H1268  H     0.10080   0.79241   0.70058   0.00000  Uiso   1.00
N1269  N     0.16665   0.83332   0.95240   0.00000  Uiso   1.00
N1270  N     0.16668   0.83334   0.71427   0.00000  Uiso   1.00
O1271  O     0.16666   0.77225   0.87154   0.00000  Uiso   1.00
O1272  O     0.16667   0.89442   0.79513   0.00000  Uiso   1.00
O1273  O     0.16666   0.77226   0.79510   0.00000  Uiso   1.00
O1274  O     0.16667   0.89441   0.87157   0.00000  Uiso   1.00
O1275  O     0.09058   0.83333   0.86261   0.00000  Uiso   1.00
O1276  O     0.24275   0.83334   0.80405   0.00000  Uiso   1.00
O1277  O     0.09058   0.83334   0.78617   0.00000  Uiso   1.00
O1278  O     0.24275   0.83333   0.88050   0.00000  Uiso   1.00
Zn1279 Zn    0.16667   0.83333   0.88437   0.00000  Uiso   1.00
Zn1280 Zn    0.16667   0.83334   0.78229   0.00000  Uiso   1.00
O1281  O     0.32151   0.80588   0.77726   0.00000  Uiso   1.00
C1282  C     0.31641   0.76301   0.78606   0.00000  Uiso   1.00
H1283  H     0.29430   0.75742   0.81521   0.00000  Uiso   1.00
H1284  H     0.02222   0.74942   0.79377   0.00000  Uiso   1.00
C1285  C     0.28641   0.74074   0.74430   0.00000  Uiso   1.00
H1286  H     0.30749   0.74527   0.71445   0.00000  Uiso   1.00
H1287  H     0.28253   0.70692   0.75064   0.00000  Uiso   1.00
H1288  H     0.24672   0.75331   0.73670   0.00000  Uiso   1.00
O1289  O     0.01184   0.86071   0.88942   0.00000  Uiso   1.00
C1290  C     0.01676   0.90360   0.88067   0.00000  Uiso   1.00
H1291  H     0.31088   0.91713   0.87317   0.00000  Uiso   1.00
H1292  H     0.03867   0.90929   0.85142   0.00000  Uiso   1.00
C1293  C     0.04692   0.92584   0.92238   0.00000  Uiso   1.00
H1294  H     0.08665   0.91333   0.92981   0.00000  Uiso   1.00
H1295  H     0.05069   0.95967   0.91609   0.00000  Uiso   1.00
H1296  H     0.02602   0.92123   0.95231   0.00000  Uiso   1.00
I1297  I     0.09614   0.70805   0.73525   0.00000  Uiso   1.00
I1298  I     0.23712   0.95863   0.93147   0.00000  Uiso   1.00
I1299  I     0.25821   0.89899   0.73255   0.00000  Uiso   1.00
I1300  I     0.07514   0.76766   0.93412   0.00000  Uiso   1.00
C1301  C     0.49836   0.75334   0.83263   0.00000  Uiso   1.00
C1302  C     0.50163   0.91333   0.83404   0.00000  Uiso   1.00
C1303  C     0.40068   0.83216   0.82172   0.00000  Uiso   1.00
C1304  C     0.59932   0.83449   0.84495   0.00000  Uiso   1.00
C1305  C     0.34610   0.82642   0.81647   0.00000  Uiso   1.00
C1306  C     0.65390   0.84019   0.85021   0.00000  Uiso   1.00
C1307  C     0.47336   0.68521   0.79470   0.00000  Uiso   1.00
C1308  C     0.52661   0.98146   0.87198   0.00000  Uiso   1.00
C1309  C     0.47509   0.97606   0.79658   0.00000  Uiso   1.00
C1310  C     0.52490   0.69061   0.87009   0.00000  Uiso   1.00
C1311  C     0.50146   0.95749   0.83474   0.00000  Uiso   1.00
C1312  C     0.49853   0.70918   0.83193   0.00000  Uiso   1.00
C1313  C     0.53602   0.85725   0.69479   0.00000  Uiso   1.00
C1314  C     0.46398   0.80942   0.97188   0.00000  Uiso   1.00
C1315  C     0.53631   0.85647   0.98052   0.00000  Uiso   1.00
C1316  C     0.46369   0.81019   0.68615   0.00000  Uiso   1.00
H1317  H     0.45499   0.95739   0.76826   0.00000  Uiso   1.00
H1318  H     0.54500   0.70928   0.89841   0.00000  Uiso   1.00
H1319  H     0.56587   0.87425   0.96609   0.00000  Uiso   1.00
H1320  H     0.43413   0.79241   0.70058   0.00000  Uiso   1.00
N1321  N     0.49999   0.83332   0.95240   0.00000  Uiso   1.00
N1322  N     0.50001   0.83334   0.71427   0.00000  Uiso   1.00
O1323  O     0.50000   0.77225   0.87154   0.00000  Uiso   1.00
O1324  O     0.50000   0.89442   0.79513   0.00000  Uiso   1.00
O1325  O     0.50000   0.77226   0.79510   0.00000  Uiso   1.00
O1326  O     0.50000   0.89441   0.87157   0.00000  Uiso   1.00
O1327  O     0.42392   0.83333   0.86261   0.00000  Uiso   1.00
O1328  O     0.57608   0.83334   0.80405   0.00000  Uiso   1.00
O1329  O     0.42392   0.83334   0.78617   0.00000  Uiso   1.00
O1330  O     0.57608   0.83333   0.88050   0.00000  Uiso   1.00
Zn1331 Zn    0.50000   0.83333   0.88437   0.00000  Uiso   1.00
Zn1332 Zn    0.50000   0.83334   0.78229   0.00000  Uiso   1.00
O1333  O     0.65484   0.80588   0.77726   0.00000  Uiso   1.00
C1334  C     0.64975   0.76301   0.78606   0.00000  Uiso   1.00
H1335  H     0.62764   0.75742   0.81521   0.00000  Uiso   1.00
H1336  H     0.35556   0.74942   0.79377   0.00000  Uiso   1.00
C1337  C     0.61974   0.74074   0.74430   0.00000  Uiso   1.00
H1338  H     0.64082   0.74527   0.71445   0.00000  Uiso   1.00
H1339  H     0.61586   0.70692   0.75064   0.00000  Uiso   1.00
H1340  H     0.58005   0.75331   0.73670   0.00000  Uiso   1.00
O1341  O     0.34517   0.86071   0.88942   0.00000  Uiso   1.00
C1342  C     0.35009   0.90360   0.88067   0.00000  Uiso   1.00
H1343  H     0.64422   0.91713   0.87317   0.00000  Uiso   1.00
H1344  H     0.37200   0.90929   0.85142   0.00000  Uiso   1.00
C1345  C     0.38025   0.92584   0.92238   0.00000  Uiso   1.00
H1346  H     0.41999   0.91333   0.92981   0.00000  Uiso   1.00
H1347  H     0.38402   0.95967   0.91609   0.00000  Uiso   1.00
H1348  H     0.35935   0.92123   0.95231   0.00000  Uiso   1.00
I1349  I     0.42947   0.70805   0.73525   0.00000  Uiso   1.00
I1350  I     0.57045   0.95863   0.93147   0.00000  Uiso   1.00
I1351  I     0.59154   0.89899   0.73255   0.00000  Uiso   1.00
I1352  I     0.40847   0.76766   0.93412   0.00000  Uiso   1.00
C1353  C     0.83170   0.75334   0.83263   0.00000  Uiso   1.00
C1354  C     0.83497   0.91333   0.83404   0.00000  Uiso   1.00
C1355  C     0.73402   0.83216   0.82172   0.00000  Uiso   1.00
C1356  C     0.93265   0.83449   0.84495   0.00000  Uiso   1.00
C1357  C     0.67943   0.82642   0.81647   0.00000  Uiso   1.00
C1358  C     0.98724   0.84019   0.85021   0.00000  Uiso   1.00
C1359  C     0.80670   0.68521   0.79470   0.00000  Uiso   1.00
C1360  C     0.85995   0.98146   0.87198   0.00000  Uiso   1.00
C1361  C     0.80842   0.97606   0.79658   0.00000  Uiso   1.00
C1362  C     0.85823   0.69061   0.87009   0.00000  Uiso   1.00
C1363  C     0.83480   0.95749   0.83474   0.00000  Uiso   1.00
C1364  C     0.83186   0.70918   0.83193   0.00000  Uiso   1.00
C1365  C     0.86936   0.85725   0.69479   0.00000  Uiso   1.00
C1366  C     0.79731   0.80942   0.97188   0.00000  Uiso   1.00
C1367  C     0.86964   0.85647   0.98052   0.00000  Uiso   1.00
C1368  C     0.79703   0.81019   0.68615   0.00000  Uiso   1.00
H1369  H     0.78832   0.95739   0.76826   0.00000  Uiso   1.00
H1370  H     0.87833   0.70928   0.89841   0.00000  Uiso   1.00
H1371  H     0.89921   0.87425   0.96609   0.00000  Uiso   1.00
H1372  H     0.76747   0.79241   0.70058   0.00000  Uiso   1.00
N1373  N     0.83332   0.83332   0.95240   0.00000  Uiso   1.00
N1374  N     0.83335   0.83334   0.71427   0.00000  Uiso   1.00
O1375  O     0.83333   0.77225   0.87154   0.00000  Uiso   1.00
O1376  O     0.83334   0.89442   0.79513   0.00000  Uiso   1.00
O1377  O     0.83333   0.77226   0.79510   0.00000  Uiso   1.00
O1378  O     0.83334   0.89441   0.87157   0.00000  Uiso   1.00
O1379  O     0.75725   0.83333   0.86261   0.00000  Uiso   1.00
O1380  O     0.90942   0.83334   0.80405   0.00000  Uiso   1.00
O1381  O     0.75725   0.83334   0.78617   0.00000  Uiso   1.00
O1382  O     0.90942   0.83333   0.88050   0.00000  Uiso   1.00
Zn1383 Zn    0.83333   0.83333   0.88437   0.00000  Uiso   1.00
Zn1384 Zn    0.83333   0.83334   0.78229   0.00000  Uiso   1.00
O1385  O     0.98817   0.80588   0.77726   0.00000  Uiso   1.00
C1386  C     0.98308   0.76301   0.78606   0.00000  Uiso   1.00
H1387  H     0.96097   0.75742   0.81521   0.00000  Uiso   1.00
H1388  H     0.68889   0.74942   0.79377   0.00000  Uiso   1.00
C1389  C     0.95308   0.74074   0.74430   0.00000  Uiso   1.00
H1390  H     0.97416   0.74527   0.71445   0.00000  Uiso   1.00
H1391  H     0.94920   0.70692   0.75064   0.00000  Uiso   1.00
H1392  H     0.91339   0.75331   0.73670   0.00000  Uiso   1.00
O1393  O     0.67851   0.86071   0.88942   0.00000  Uiso   1.00
C1394  C     0.68343   0.90360   0.88067   0.00000  Uiso   1.00
H1395  H     0.97755   0.91713   0.87317   0.00000  Uiso   1.00
H1396  H     0.70534   0.90929   0.85142   0.00000  Uiso   1.00
C1397  C     0.71358   0.92584   0.92238   0.00000  Uiso   1.00
H1398  H     0.75332   0.91333   0.92981   0.00000  Uiso   1.00
H1399  H     0.71735   0.95967   0.91609   0.00000  Uiso   1.00
H1400  H     0.69268   0.92123   0.95231   0.00000  Uiso   1.00
I1401  I     0.76281   0.70805   0.73525   0.00000  Uiso   1.00
I1402  I     0.90379   0.95863   0.93147   0.00000  Uiso   1.00
I1403  I     0.92487   0.89899   0.73255   0.00000  Uiso   1.00
I1404  I     0.74181   0.76766   0.93412   0.00000  Uiso   1.00
loop_
_geom_bond_atom_site_label_1
_geom_bond_atom_site_label_2
_geom_bond_distance
_geom_bond_site_symmetry_2
_ccdc_geom_bond_type
C1     O25     1.284   .     A
C1     C12     1.421   .     S
C1     O23     1.290   .     A
C2     O26     1.284   .     A
C2     C11     1.421   .     S
C2     O24     1.290   .     A
C3     O27     1.277   .     A
C3     O29     1.284   .     A
C3     C5      1.402   .     S
C4     O30     1.284   .     A
C4     C6      1.402   .     S
C4     O28     1.277   .     A
C5     C110    1.349   1_455 S
C5     O137    1.390   1_455 S
C6     C57     1.349   .     S
C6     O93     1.390   .     S
C7     C12     1.405   .     A
C7     I49     2.120   .     S
C7     C321    1.371   1_545 S
C8     C11     1.405   .     A
C8     I50     2.120   .     S
C8     C166    1.371   .     S
C9     C11     1.394   .     A
C9     H17     1.084   .     S
C9     C163    1.371   .     S
C10    H18     1.084   .     S
C10    C12     1.394   .     A
C10    C320    1.371   1_545 S
C13    N22     1.380   .     A
C13    I51     2.117   .     S
C13    C951    1.414   1_554 S
C14    N21     1.380   .     A
C14    I52     2.117   .     S
C14    C484    1.414   .     S
C15    N21     1.358   .     A
C15    H19     1.078   .     S
C15    C481    1.414   .     S
C16    H20     1.078   .     S
C16    N22     1.358   .     A
C16    C950    1.414   1_554 S
N21    Zn31    2.019   .     S
N22    Zn32    2.019   .     S
O23    Zn31    1.995   .     S
O24    Zn32    1.995   .     S
O25    Zn32    2.008   .     S
O26    Zn31    2.008   .     S
O27    Zn31    1.982   .     S
O28    Zn32    1.982   .     S
O29    Zn32    1.984   .     S
O30    Zn31    1.984   .     S
O33    C34     1.413   .     S
O33    C57     1.390   .     S
C34    C37     1.521   .     S
C34    H35     1.114   .     S
C34    H88     1.112   .     S
H36    C138    1.112   1_455 S
C37    H38     1.111   .     S
C37    H40     1.111   .     S
C37    H39     1.111   .     S
O41    C42     1.413   .     S
O41    C110    1.390   1_455 S
C42    H44     1.114   .     S
C42    C45     1.521   .     S
C42    H147    1.112   1_455 S
H43    C94     1.112   .     S
C45    H46     1.111   .     S
C45    H48     1.111   .     S
C45    H47     1.111   .     S
C53    O77     1.284   .     A
C53    C64     1.421   .     S
C53    O75     1.290   .     A
C54    O78     1.284   .     A
C54    C63     1.421   .     S
C54    O76     1.290   .     A
C55    O79     1.277   .     A
C55    O81     1.284   .     A
C55    C57     1.402   .     S
C56    O82     1.284   .     A
C56    C58     1.402   .     S
C56    O80     1.277   .     A
C58    C109    1.349   .     S
C58    O145    1.390   .     S
C59    C64     1.405   .     A
C59    I101    2.120   .     S
C59    C373    1.371   1_545 S
C60    C63     1.405   .     A
C60    I102    2.120   .     S
C60    C218    1.371   .     S
C61    C63     1.394   .     A
C61    H69     1.084   .     S
C61    C215    1.371   .     S
C62    H70     1.084   .     S
C62    C64     1.394   .     A
C62    C372    1.371   1_545 S
C65    N74     1.380   .     A
C65    I103    2.117   .     S
C65    C1003   1.414   1_554 S
C66    N73     1.380   .     A
C66    I104    2.117   .     S
C66    C536    1.414   .     S
C67    N73     1.358   .     A
C67    H71     1.078   .     S
C67    C533    1.414   .     S
C68    H72     1.078   .     S
C68    N74     1.358   .     A
C68    C1002   1.414   1_554 S
N73    Zn83    2.019   .     S
N74    Zn84    2.019   .     S
O75    Zn83    1.995   .     S
O76    Zn84    1.995   .     S
O77    Zn84    2.008   .     S
O78    Zn83    2.008   .     S
O79    Zn83    1.982   .     S
O80    Zn84    1.982   .     S
O81    Zn84    1.984   .     S
O82    Zn83    1.984   .     S
O85    C86     1.413   .     S
O85    C109    1.390   .     S
C86    C89     1.521   .     S
C86    H87     1.114   .     S
C86    H140    1.112   .     S
C89    H90     1.111   .     S
C89    H92     1.111   .     S
C89    H91     1.111   .     S
O93    C94     1.413   .     S
C94    H96     1.114   .     S
C94    C97     1.521   .     S
H95    C146    1.112   .     S
C97    H98     1.111   .     S
C97    H100    1.111   .     S
C97    H99     1.111   .     S
C105   O129    1.284   .     A
C105   C116    1.421   .     S
C105   O127    1.290   .     A
C106   O130    1.284   .     A
C106   C115    1.421   .     S
C106   O128    1.290   .     A
C107   O131    1.277   .     A
C107   O133    1.284   .     A
C107   C109    1.402   .     S
C108   O134    1.284   .     A
C108   C110    1.402   .     S
C108   O132    1.277   .     A
C110   C5      1.349   1_655 S
C110   O41     1.390   1_655 S
C111   C116    1.405   .     A
C111   I153    2.120   .     S
C111   C425    1.371   1_545 S
C112   C115    1.405   .     A
C112   I154    2.120   .     S
C112   C270    1.371   .     S
C113   C115    1.394   .     A
C113   H121    1.084   .     S
C113   C267    1.371   .     S
C114   H122    1.084   .     S
C114   C116    1.394   .     A
C114   C424    1.371   1_545 S
C117   N126    1.380   .     A
C117   I155    2.117   .     S
C117   C1055   1.414   1_554 S
C118   N125    1.380   .     A
C118   I156    2.117   .     S
C118   C588    1.414   .     S
C119   N125    1.358   .     A
C119   H123    1.078   .     S
C119   C585    1.414   .     S
C120   H124    1.078   .     S
C120   N126    1.358   .     A
C120   C1054   1.414   1_554 S
N125   Zn135   2.019   .     S
N126   Zn136   2.019   .     S
O127   Zn135   1.995   .     S
O128   Zn136   1.995   .     S
O129   Zn136   2.008   .     S
O130   Zn135   2.008   .     S
O131   Zn135   1.982   .     S
O132   Zn136   1.982   .     S
O133   Zn136   1.984   .     S
O134   Zn135   1.984   .     S
O137   C138    1.413   .     S
O137   C5      1.390   1_655 S
C138   C141    1.521   .     S
C138   H139    1.114   .     S
C138   H36     1.112   1_655 S
C141   H142    1.111   .     S
C141   H144    1.111   .     S
C141   H143    1.111   .     S
O145   C146    1.413   .     S
C146   H148    1.114   .     S
C146   C149    1.521   .     S
H147   C42     1.112   1_655 S
C149   H150    1.111   .     S
C149   H152    1.111   .     S
C149   H151    1.111   .     S
C157   O181    1.284   .     A
C157   C168    1.421   .     S
C157   O179    1.290   .     A
C158   O182    1.284   .     A
C158   C167    1.421   .     S
C158   O180    1.290   .     A
C159   O183    1.277   .     A
C159   O185    1.284   .     A
C159   C161    1.402   .     S
C160   O186    1.284   .     A
C160   C162    1.402   .     S
C160   O184    1.277   .     A
C161   C266    1.349   1_455 S
C161   O293    1.390   1_455 S
C162   C213    1.349   .     S
C162   O249    1.390   .     S
C163   C168    1.405   .     A
C163   I205    2.120   .     S
C164   C167    1.405   .     A
C164   I206    2.120   .     S
C164   C322    1.371   .     S
C165   C167    1.394   .     A
C165   H173    1.084   .     S
C165   C319    1.371   .     S
C166   H174    1.084   .     S
C166   C168    1.394   .     A
C169   N178    1.380   .     A
C169   I207    2.117   .     S
C169   C1107   1.414   1_554 S
C170   N177    1.380   .     A
C170   I208    2.117   .     S
C170   C640    1.414   .     S
C171   N177    1.358   .     A
C171   H175    1.078   .     S
C171   C637    1.414   .     S
C172   H176    1.078   .     S
C172   N178    1.358   .     A
C172   C1106   1.414   1_554 S
N177   Zn187   2.019   .     S
N178   Zn188   2.019   .     S
O179   Zn187   1.995   .     S
O180   Zn188   1.995   .     S
O181   Zn188   2.008   .     S
O182   Zn187   2.008   .     S
O183   Zn187   1.982   .     S
O184   Zn188   1.982   .     S
O185   Zn188   1.984   .     S
O186   Zn187   1.984   .     S
O189   C190    1.413   .     S
O189   C213    1.390   .     S
C190   C193    1.521   .     S
C190   H191    1.114   .     S
C190   H244    1.112   .     S
H192   C294    1.112   1_455 S
C193   H194    1.111   .     S
C193   H196    1.111   .     S
C193   H195    1.111   .     S
O197   C198    1.413   .     S
O197   C266    1.390   1_455 S
C198   H200    1.114   .     S
C198   C201    1.521   .     S
C198   H303    1.112   1_455 S
H199   C250    1.112   .     S
C201   H202    1.111   .     S
C201   H204    1.111   .     S
C201   H203    1.111   .     S
C209   O233    1.284   .     A
C209   C220    1.421   .     S
C209   O231    1.290   .     A
C210   O234    1.284   .     A
C210   C219    1.421   .     S
C210   O232    1.290   .     A
C211   O235    1.277   .     A
C211   O237    1.284   .     A
C211   C213    1.402   .     S
C212   O238    1.284   .     A
C212   C214    1.402   .     S
C212   O236    1.277   .     A
C214   C265    1.349   .     S
C214   O301    1.390   .     S
C215   C220    1.405   .     A
C215   I257    2.120   .     S
C216   C219    1.405   .     A
C216   I258    2.120   .     S
C216   C374    1.371   .     S
C217   C219    1.394   .     A
C217   H225    1.084   .     S
C217   C371    1.371   .     S
C218   H226    1.084   .     S
C218   C220    1.394   .     A
C221   N230    1.380   .     A
C221   I259    2.117   .     S
C221   C1159   1.414   1_554 S
C222   N229    1.380   .     A
C222   I260    2.117   .     S
C222   C692    1.414   .     S
C223   N229    1.358   .     A
C223   H227    1.078   .     S
C223   C689    1.414   .     S
C224   H228    1.078   .     S
C224   N230    1.358   .     A
C224   C1158   1.414   1_554 S
N229   Zn239   2.019   .     S
N230   Zn240   2.019   .     S
O231   Zn239   1.995   .     S
O232   Zn240   1.995   .     S
O233   Zn240   2.008   .     S
O234   Zn239   2.008   .     S
O235   Zn239   1.982   .     S
O236   Zn240   1.982   .     S
O237   Zn240   1.984   .     S
O238   Zn239   1.984   .     S
O241   C242    1.413   .     S
O241   C265    1.390   .     S
C242   C245    1.521   .     S
C242   H243    1.114   .     S
C242   H296    1.112   .     S
C245   H246    1.111   .     S
C245   H248    1.111   .     S
C245   H247    1.111   .     S
O249   C250    1.413   .     S
C250   H252    1.114   .     S
C250   C253    1.521   .     S
H251   C302    1.112   .     S
C253   H254    1.111   .     S
C253   H256    1.111   .     S
C253   H255    1.111   .     S
C261   O285    1.284   .     A
C261   C272    1.421   .     S
C261   O283    1.290   .     A
C262   O286    1.284   .     A
C262   C271    1.421   .     S
C262   O284    1.290   .     A
C263   O287    1.277   .     A
C263   O289    1.284   .     A
C263   C265    1.402   .     S
C264   O290    1.284   .     A
C264   C266    1.402   .     S
C264   O288    1.277   .     A
C266   C161    1.349   1_655 S
C266   O197    1.390   1_655 S
C267   C272    1.405   .     A
C267   I309    2.120   .     S
C268   C271    1.405   .     A
C268   I310    2.120   .     S
C268   C426    1.371   .     S
C269   C271    1.394   .     A
C269   H277    1.084   .     S
C269   C423    1.371   .     S
C270   H278    1.084   .     S
C270   C272    1.394   .     A
C273   N282    1.380   .     A
C273   I311    2.117   .     S
C273   C1211   1.414   1_554 S
C274   N281    1.380   .     A
C274   I312    2.117   .     S
C274   C744    1.414   .     S
C275   N281    1.358   .     A
C275   H279    1.078   .     S
C275   C741    1.414   .     S
C276   H280    1.078   .     S
C276   N282    1.358   .     A
C276   C1210   1.414   1_554 S
N281   Zn291   2.019   .     S
N282   Zn292   2.019   .     S
O283   Zn291   1.995   .     S
O284   Zn292   1.995   .     S
O285   Zn292   2.008   .     S
O286   Zn291   2.008   .     S
O287   Zn291   1.982   .     S
O288   Zn292   1.982   .     S
O289   Zn292   1.984   .     S
O290   Zn291   1.984   .     S
O293   C294    1.413   .     S
O293   C161    1.390   1_655 S
C294   C297    1.521   .     S
C294   H295    1.114   .     S
C294   H192    1.112   1_655 S
C297   H298    1.111   .     S
C297   H300    1.111   .     S
C297   H299    1.111   .     S
O301   C302    1.413   .     S
C302   H304    1.114   .     S
C302   C305    1.521   .     S
H303   C198    1.112   1_655 S
C305   H306    1.111   .     S
C305   H308    1.111   .     S
C305   H307    1.111   .     S
C313   O337    1.284   .     A
C313   C324    1.421   .     S
C313   O335    1.290   .     A
C314   O338    1.284   .     A
C314   C323    1.421   .     S
C314   O336    1.290   .     A
C315   O339    1.277   .     A
C315   O341    1.284   .     A
C315   C317    1.402   .     S
C316   O342    1.284   .     A
C316   C318    1.402   .     S
C316   O340    1.277   .     A
C317   C422    1.349   1_455 S
C317   O449    1.390   1_455 S
C318   C369    1.349   .     S
C318   O405    1.390   .     S
C319   C324    1.405   .     A
C319   I361    2.120   .     S
C320   C323    1.405   .     A
C320   I362    2.120   .     S
C320   C10     1.371   1_565 S
C321   C323    1.394   .     A
C321   H329    1.084   .     S
C321   C7      1.371   1_565 S
C322   H330    1.084   .     S
C322   C324    1.394   .     A
C325   N334    1.380   .     A
C325   I363    2.117   .     S
C325   C1263   1.414   1_554 S
C326   N333    1.380   .     A
C326   I364    2.117   .     S
C326   C796    1.414   .     S
C327   N333    1.358   .     A
C327   H331    1.078   .     S
C327   C793    1.414   .     S
C328   H332    1.078   .     S
C328   N334    1.358   .     A
C328   C1262   1.414   1_554 S
N333   Zn343   2.019   .     S
N334   Zn344   2.019   .     S
O335   Zn343   1.995   .     S
O336   Zn344   1.995   .     S
O337   Zn344   2.008   .     S
O338   Zn343   2.008   .     S
O339   Zn343   1.982   .     S
O340   Zn344   1.982   .     S
O341   Zn344   1.984   .     S
O342   Zn343   1.984   .     S
O345   C346    1.413   .     S
O345   C369    1.390   .     S
C346   C349    1.521   .     S
C346   H347    1.114   .     S
C346   H400    1.112   .     S
H348   C450    1.112   1_455 S
C349   H350    1.111   .     S
C349   H352    1.111   .     S
C349   H351    1.111   .     S
O353   C354    1.413   .     S
O353   C422    1.390   1_455 S
C354   H356    1.114   .     S
C354   C357    1.521   .     S
C354   H459    1.112   1_455 S
H355   C406    1.112   .     S
C357   H358    1.111   .     S
C357   H360    1.111   .     S
C357   H359    1.111   .     S
C365   O389    1.284   .     A
C365   C376    1.421   .     S
C365   O387    1.290   .     A
C366   O390    1.284   .     A
C366   C375    1.421   .     S
C366   O388    1.290   .     A
C367   O391    1.277   .     A
C367   O393    1.284   .     A
C367   C369    1.402   .     S
C368   O394    1.284   .     A
C368   C370    1.402   .     S
C368   O392    1.277   .     A
C370   C421    1.349   .     S
C370   O457    1.390   .     S
C371   C376    1.405   .     A
C371   I413    2.120   .     S
C372   C375    1.405   .     A
C372   I414    2.120   .     S
C372   C62     1.371   1_565 S
C373   C375    1.394   .     A
C373   H381    1.084   .     S
C373   C59     1.371   1_565 S
C374   H382    1.084   .     S
C374   C376    1.394   .     A
C377   N386    1.380   .     A
C377   I415    2.117   .     S
C377   C1315   1.414   1_554 S
C378   N385    1.380   .     A
C378   I416    2.117   .     S
C378   C848    1.414   .     S
C379   N385    1.358   .     A
C379   H383    1.078   .     S
C379   C845    1.414   .     S
C380   H384    1.078   .     S
C380   N386    1.358   .     A
C380   C1314   1.414   1_554 S
N385   Zn395   2.019   .     S
N386   Zn396   2.019   .     S
O387   Zn395   1.995   .     S
O388   Zn396   1.995   .     S
O389   Zn396   2.008   .     S
O390   Zn395   2.008   .     S
O391   Zn395   1.982   .     S
O392   Zn396   1.982   .     S
O393   Zn396   1.984   .     S
O394   Zn395   1.984   .     S
O397   C398    1.413   .     S
O397   C421    1.390   .     S
C398   C401    1.521   .     S
C398   H399    1.114   .     S
C398   H452    1.112   .     S
C401   H402    1.111   .     S
C401   H404    1.111   .     S
C401   H403    1.111   .     S
O405   C406    1.413   .     S
C406   H408    1.114   .     S
C406   C409    1.521   .     S
H407   C458    1.112   .     S
C409   H410    1.111   .     S
C409   H412    1.111   .     S
C409   H411    1.111   .     S
C417   O441    1.284   .     A
C417   C428    1.421   .     S
C417   O439    1.290   .     A
C418   O442    1.284   .     A
C418   C427    1.421   .     S
C418   O440    1.290   .     A
C419   O443    1.277   .     A
C419   O445    1.284   .     A
C419   C421    1.402   .     S
C420   O446    1.284   .     A
C420   C422    1.402   .     S
C420   O444    1.277   .     A
C422   C317    1.349   1_655 S
C422   O353    1.390   1_655 S
C423   C428    1.405   .     A
C423   I465    2.120   .     S
C424   C427    1.405   .     A
C424   I466    2.120   .     S
C424   C114    1.371   1_565 S
C425   C427    1.394   .     A
C425   H433    1.084   .     S
C425   C111    1.371   1_565 S
C426   H434    1.084   .     S
C426   C428    1.394   .     A
C429   N438    1.380   .     A
C429   I467    2.117   .     S
C429   C1367   1.414   1_554 S
C430   N437    1.380   .     A
C430   I468    2.117   .     S
C430   C900    1.414   .     S
C431   N437    1.358   .     A
C431   H435    1.078   .     S
C431   C897    1.414   .     S
C432   H436    1.078   .     S
C432   N438    1.358   .     A
C432   C1366   1.414   1_554 S
N437   Zn447   2.019   .     S
N438   Zn448   2.019   .     S
O439   Zn447   1.995   .     S
O440   Zn448   1.995   .     S
O441   Zn448   2.008   .     S
O442   Zn447   2.008   .     S
O443   Zn447   1.982   .     S
O444   Zn448   1.982   .     S
O445   Zn448   1.984   .     S
O446   Zn447   1.984   .     S
O449   C450    1.413   .     S
O449   C317    1.390   1_655 S
C450   C453    1.521   .     S
C450   H451    1.114   .     S
C450   H348    1.112   1_655 S
C453   H454    1.111   .     S
C453   H456    1.111   .     S
C453   H455    1.111   .     S
O457   C458    1.413   .     S
C458   H460    1.114   .     S
C458   C461    1.521   .     S
H459   C354    1.112   1_655 S
C461   H462    1.111   .     S
C461   H464    1.111   .     S
C461   H463    1.111   .     S
C469   O493    1.284   .     A
C469   C480    1.421   .     S
C469   O491    1.290   .     A
C470   O494    1.284   .     A
C470   C479    1.421   .     S
C470   O492    1.290   .     A
C471   O495    1.277   .     A
C471   O497    1.284   .     A
C471   C473    1.402   .     S
C472   O498    1.284   .     A
C472   C474    1.402   .     S
C472   O496    1.277   .     A
C473   C578    1.349   1_455 S
C473   O605    1.390   1_455 S
C474   C525    1.349   .     S
C474   O561    1.390   .     S
C475   C480    1.405   .     A
C475   I517    2.120   .     S
C475   C789    1.371   1_545 S
C476   C479    1.405   .     A
C476   I518    2.120   .     S
C476   C634    1.371   .     S
C477   C479    1.394   .     A
C477   H485    1.084   .     S
C477   C631    1.371   .     S
C478   H486    1.084   .     S
C478   C480    1.394   .     A
C478   C788    1.371   1_545 S
C481   N490    1.380   .     A
C481   I519    2.117   .     S
C482   N489    1.380   .     A
C482   I520    2.117   .     S
C482   C952    1.414   .     S
C483   N489    1.358   .     A
C483   H487    1.078   .     S
C483   C949    1.414   .     S
C484   H488    1.078   .     S
C484   N490    1.358   .     A
N489   Zn499   2.019   .     S
N490   Zn500   2.019   .     S
O491   Zn499   1.995   .     S
O492   Zn500   1.995   .     S
O493   Zn500   2.008   .     S
O494   Zn499   2.008   .     S
O495   Zn499   1.982   .     S
O496   Zn500   1.982   .     S
O497   Zn500   1.984   .     S
O498   Zn499   1.984   .     S
O501   C502    1.413   .     S
O501   C525    1.390   .     S
C502   C505    1.521   .     S
C502   H503    1.114   .     S
C502   H556    1.112   .     S
H504   C606    1.112   1_455 S
C505   H506    1.111   .     S
C505   H508    1.111   .     S
C505   H507    1.111   .     S
O509   C510    1.413   .     S
O509   C578    1.390   1_455 S
C510   H512    1.114   .     S
C510   C513    1.521   .     S
C510   H615    1.112   1_455 S
H511   C562    1.112   .     S
C513   H514    1.111   .     S
C513   H516    1.111   .     S
C513   H515    1.111   .     S
C521   O545    1.284   .     A
C521   C532    1.421   .     S
C521   O543    1.290   .     A
C522   O546    1.284   .     A
C522   C531    1.421   .     S
C522   O544    1.290   .     A
C523   O547    1.277   .     A
C523   O549    1.284   .     A
C523   C525    1.402   .     S
C524   O550    1.284   .     A
C524   C526    1.402   .     S
C524   O548    1.277   .     A
C526   C577    1.349   .     S
C526   O613    1.390   .     S
C527   C532    1.405   .     A
C527   I569    2.120   .     S
C527   C841    1.371   1_545 S
C528   C531    1.405   .     A
C528   I570    2.120   .     S
C528   C686    1.371   .     S
C529   C531    1.394   .     A
C529   H537    1.084   .     S
C529   C683    1.371   .     S
C530   H538    1.084   .     S
C530   C532    1.394   .     A
C530   C840    1.371   1_545 S
C533   N542    1.380   .     A
C533   I571    2.117   .     S
C534   N541    1.380   .     A
C534   I572    2.117   .     S
C534   C1004   1.414   .     S
C535   N541    1.358   .     A
C535   H539    1.078   .     S
C535   C1001   1.414   .     S
C536   H540    1.078   .     S
C536   N542    1.358   .     A
N541   Zn551   2.019   .     S
N542   Zn552   2.019   .     S
O543   Zn551   1.995   .     S
O544   Zn552   1.995   .     S
O545   Zn552   2.008   .     S
O546   Zn551   2.008   .     S
O547   Zn551   1.982   .     S
O548   Zn552   1.982   .     S
O549   Zn552   1.984   .     S
O550   Zn551   1.984   .     S
O553   C554    1.413   .     S
O553   C577    1.390   .     S
C554   C557    1.521   .     S
C554   H555    1.114   .     S
C554   H608    1.112   .     S
C557   H558    1.111   .     S
C557   H560    1.111   .     S
C557   H559    1.111   .     S
O561   C562    1.413   .     S
C562   H564    1.114   .     S
C562   C565    1.521   .     S
H563   C614    1.112   .     S
C565   H566    1.111   .     S
C565   H568    1.111   .     S
C565   H567    1.111   .     S
C573   O597    1.284   .     A
C573   C584    1.421   .     S
C573   O595    1.290   .     A
C574   O598    1.284   .     A
C574   C583    1.421   .     S
C574   O596    1.290   .     A
C575   O599    1.277   .     A
C575   O601    1.284   .     A
C575   C577    1.402   .     S
C576   O602    1.284   .     A
C576   C578    1.402   .     S
C576   O600    1.277   .     A
C578   C473    1.349   1_655 S
C578   O509    1.390   1_655 S
C579   C584    1.405   .     A
C579   I621    2.120   .     S
C579   C893    1.371   1_545 S
C580   C583    1.405   .     A
C580   I622    2.120   .     S
C580   C738    1.371   .     S
C581   C583    1.394   .     A
C581   H589    1.084   .     S
C581   C735    1.371   .     S
C582   H590    1.084   .     S
C582   C584    1.394   .     A
C582   C892    1.371   1_545 S
C585   N594    1.380   .     A
C585   I623    2.117   .     S
C586   N593    1.380   .     A
C586   I624    2.117   .     S
C586   C1056   1.414   .     S
C587   N593    1.358   .     A
C587   H591    1.078   .     S
C587   C1053   1.414   .     S
C588   H592    1.078   .     S
C588   N594    1.358   .     A
N593   Zn603   2.019   .     S
N594   Zn604   2.019   .     S
O595   Zn603   1.995   .     S
O596   Zn604   1.995   .     S
O597   Zn604   2.008   .     S
O598   Zn603   2.008   .     S
O599   Zn603   1.982   .     S
O600   Zn604   1.982   .     S
O601   Zn604   1.984   .     S
O602   Zn603   1.984   .     S
O605   C606    1.413   .     S
O605   C473    1.390   1_655 S
C606   C609    1.521   .     S
C606   H607    1.114   .     S
C606   H504    1.112   1_655 S
C609   H610    1.111   .     S
C609   H612    1.111   .     S
C609   H611    1.111   .     S
O613   C614    1.413   .     S
C614   H616    1.114   .     S
C614   C617    1.521   .     S
H615   C510    1.112   1_655 S
C617   H618    1.111   .     S
C617   H620    1.111   .     S
C617   H619    1.111   .     S
C625   O649    1.284   .     A
C625   C636    1.421   .     S
C625   O647    1.290   .     A
C626   O650    1.284   .     A
C626   C635    1.421   .     S
C626   O648    1.290   .     A
C627   O651    1.277   .     A
C627   O653    1.284   .     A
C627   C629    1.402   .     S
C628   O654    1.284   .     A
C628   C630    1.402   .     S
C628   O652    1.277   .     A
C629   C734    1.349   1_455 S
C629   O761    1.390   1_455 S
C630   C681    1.349   .     S
C630   O717    1.390   .     S
C631   C636    1.405   .     A
C631   I673    2.120   .     S
C632   C635    1.405   .     A
C632   I674    2.120   .     S
C632   C790    1.371   .     S
C633   C635    1.394   .     A
C633   H641    1.084   .     S
C633   C787    1.371   .     S
C634   H642    1.084   .     S
C634   C636    1.394   .     A
C637   N646    1.380   .     A
C637   I675    2.117   .     S
C638   N645    1.380   .     A
C638   I676    2.117   .     S
C638   C1108   1.414   .     S
C639   N645    1.358   .     A
C639   H643    1.078   .     S
C639   C1105   1.414   .     S
C640   H644    1.078   .     S
C640   N646    1.358   .     A
N645   Zn655   2.019   .     S
N646   Zn656   2.019   .     S
O647   Zn655   1.995   .     S
O648   Zn656   1.995   .     S
O649   Zn656   2.008   .     S
O650   Zn655   2.008   .     S
O651   Zn655   1.982   .     S
O652   Zn656   1.982   .     S
O653   Zn656   1.984   .     S
O654   Zn655   1.984   .     S
O657   C658    1.413   .     S
O657   C681    1.390   .     S
C658   C661    1.521   .     S
C658   H659    1.114   .     S
C658   H712    1.112   .     S
H660   C762    1.112   1_455 S
C661   H662    1.111   .     S
C661   H664    1.111   .     S
C661   H663    1.111   .     S
O665   C666    1.413   .     S
O665   C734    1.390   1_455 S
C666   H668    1.114   .     S
C666   C669    1.521   .     S
C666   H771    1.112   1_455 S
H667   C718    1.112   .     S
C669   H670    1.111   .     S
C669   H672    1.111   .     S
C669   H671    1.111   .     S
C677   O701    1.284   .     A
C677   C688    1.421   .     S
C677   O699    1.290   .     A
C678   O702    1.284   .     A
C678   C687    1.421   .     S
C678   O700    1.290   .     A
C679   O703    1.277   .     A
C679   O705    1.284   .     A
C679   C681    1.402   .     S
C680   O706    1.284   .     A
C680   C682    1.402   .     S
C680   O704    1.277   .     A
C682   C733    1.349   .     S
C682   O769    1.390   .     S
C683   C688    1.405   .     A
C683   I725    2.120   .     S
C684   C687    1.405   .     A
C684   I726    2.120   .     S
C684   C842    1.371   .     S
C685   C687    1.394   .     A
C685   H693    1.084   .     S
C685   C839    1.371   .     S
C686   H694    1.084   .     S
C686   C688    1.394   .     A
C689   N698    1.380   .     A
C689   I727    2.117   .     S
C690   N697    1.380   .     A
C690   I728    2.117   .     S
C690   C1160   1.414   .     S
C691   N697    1.358   .     A
C691   H695    1.078   .     S
C691   C1157   1.414   .     S
C692   H696    1.078   .     S
C692   N698    1.358   .     A
N697   Zn707   2.019   .     S
N698   Zn708   2.019   .     S
O699   Zn707   1.995   .     S
O700   Zn708   1.995   .     S
O701   Zn708   2.008   .     S
O702   Zn707   2.008   .     S
O703   Zn707   1.982   .     S
O704   Zn708   1.982   .     S
O705   Zn708   1.984   .     S
O706   Zn707   1.984   .     S
O709   C710    1.413   .     S
O709   C733    1.390   .     S
C710   C713    1.521   .     S
C710   H711    1.114   .     S
C710   H764    1.112   .     S
C713   H714    1.111   .     S
C713   H716    1.111   .     S
C713   H715    1.111   .     S
O717   C718    1.413   .     S
C718   H720    1.114   .     S
C718   C721    1.521   .     S
H719   C770    1.112   .     S
C721   H722    1.111   .     S
C721   H724    1.111   .     S
C721   H723    1.111   .     S
C729   O753    1.284   .     A
C729   C740    1.421   .     S
C729   O751    1.290   .     A
C730   O754    1.284   .     A
C730   C739    1.421   .     S
C730   O752    1.290   .     A
C731   O755    1.277   .     A
C731   O757    1.284   .     A
C731   C733    1.402   .     S
C732   O758    1.284   .     A
C732   C734    1.402   .     S
C732   O756    1.277   .     A
C734   C629    1.349   1_655 S
C734   O665    1.390   1_655 S
C735   C740    1.405   .     A
C735   I777    2.120   .     S
C736   C739    1.405   .     A
C736   I778    2.120   .     S
C736   C894    1.371   .     S
C737   C739    1.394   .     A
C737   H745    1.084   .     S
C737   C891    1.371   .     S
C738   H746    1.084   .     S
C738   C740    1.394   .     A
C741   N750    1.380   .     A
C741   I779    2.117   .     S
C742   N749    1.380   .     A
C742   I780    2.117   .     S
C742   C1212   1.414   .     S
C743   N749    1.358   .     A
C743   H747    1.078   .     S
C743   C1209   1.414   .     S
C744   H748    1.078   .     S
C744   N750    1.358   .     A
N749   Zn759   2.019   .     S
N750   Zn760   2.019   .     S
O751   Zn759   1.995   .     S
O752   Zn760   1.995   .     S
O753   Zn760   2.008   .     S
O754   Zn759   2.008   .     S
O755   Zn759   1.982   .     S
O756   Zn760   1.982   .     S
O757   Zn760   1.984   .     S
O758   Zn759   1.984   .     S
O761   C762    1.413   .     S
O761   C629    1.390   1_655 S
C762   C765    1.521   .     S
C762   H763    1.114   .     S
C762   H660    1.112   1_655 S
C765   H766    1.111   .     S
C765   H768    1.111   .     S
C765   H767    1.111   .     S
O769   C770    1.413   .     S
C770   H772    1.114   .     S
C770   C773    1.521   .     S
H771   C666    1.112   1_655 S
C773   H774    1.111   .     S
C773   H776    1.111   .     S
C773   H775    1.111   .     S
C781   O805    1.284   .     A
C781   C792    1.421   .     S
C781   O803    1.290   .     A
C782   O806    1.284   .     A
C782   C791    1.421   .     S
C782   O804    1.290   .     A
C783   O807    1.277   .     A
C783   O809    1.284   .     A
C783   C785    1.402   .     S
C784   O810    1.284   .     A
C784   C786    1.402   .     S
C784   O808    1.277   .     A
C785   C890    1.349   1_455 S
C785   O917    1.390   1_455 S
C786   C837    1.349   .     S
C786   O873    1.390   .     S
C787   C792    1.405   .     A
C787   I829    2.120   .     S
C788   C791    1.405   .     A
C788   I830    2.120   .     S
C788   C478    1.371   1_565 S
C789   C791    1.394   .     A
C789   H797    1.084   .     S
C789   C475    1.371   1_565 S
C790   H798    1.084   .     S
C790   C792    1.394   .     A
C793   N802    1.380   .     A
C793   I831    2.117   .     S
C794   N801    1.380   .     A
C794   I832    2.117   .     S
C794   C1264   1.414   .     S
C795   N801    1.358   .     A
C795   H799    1.078   .     S
C795   C1261   1.414   .     S
C796   H800    1.078   .     S
C796   N802    1.358   .     A
N801   Zn811   2.019   .     S
N802   Zn812   2.019   .     S
O803   Zn811   1.995   .     S
O804   Zn812   1.995   .     S
O805   Zn812   2.008   .     S
O806   Zn811   2.008   .     S
O807   Zn811   1.982   .     S
O808   Zn812   1.982   .     S
O809   Zn812   1.984   .     S
O810   Zn811   1.984   .     S
O813   C814    1.413   .     S
O813   C837    1.390   .     S
C814   C817    1.521   .     S
C814   H815    1.114   .     S
C814   H868    1.112   .     S
H816   C918    1.112   1_455 S
C817   H818    1.111   .     S
C817   H820    1.111   .     S
C817   H819    1.111   .     S
O821   C822    1.413   .     S
O821   C890    1.390   1_455 S
C822   H824    1.114   .     S
C822   C825    1.521   .     S
C822   H927    1.112   1_455 S
H823   C874    1.112   .     S
C825   H826    1.111   .     S
C825   H828    1.111   .     S
C825   H827    1.111   .     S
C833   O857    1.284   .     A
C833   C844    1.421   .     S
C833   O855    1.290   .     A
C834   O858    1.284   .     A
C834   C843    1.421   .     S
C834   O856    1.290   .     A
C835   O859    1.277   .     A
C835   O861    1.284   .     A
C835   C837    1.402   .     S
C836   O862    1.284   .     A
C836   C838    1.402   .     S
C836   O860    1.277   .     A
C838   C889    1.349   .     S
C838   O925    1.390   .     S
C839   C844    1.405   .     A
C839   I881    2.120   .     S
C840   C843    1.405   .     A
C840   I882    2.120   .     S
C840   C530    1.371   1_565 S
C841   C843    1.394   .     A
C841   H849    1.084   .     S
C841   C527    1.371   1_565 S
C842   H850    1.084   .     S
C842   C844    1.394   .     A
C845   N854    1.380   .     A
C845   I883    2.117   .     S
C846   N853    1.380   .     A
C846   I884    2.117   .     S
C846   C1316   1.414   .     S
C847   N853    1.358   .     A
C847   H851    1.078   .     S
C847   C1313   1.414   .     S
C848   H852    1.078   .     S
C848   N854    1.358   .     A
N853   Zn863   2.019   .     S
N854   Zn864   2.019   .     S
O855   Zn863   1.995   .     S
O856   Zn864   1.995   .     S
O857   Zn864   2.008   .     S
O858   Zn863   2.008   .     S
O859   Zn863   1.982   .     S
O860   Zn864   1.982   .     S
O861   Zn864   1.984   .     S
O862   Zn863   1.984   .     S
O865   C866    1.413   .     S
O865   C889    1.390   .     S
C866   C869    1.521   .     S
C866   H867    1.114   .     S
C866   H920    1.112   .     S
C869   H870    1.111   .     S
C869   H872    1.111   .     S
C869   H871    1.111   .     S
O873   C874    1.413   .     S
C874   H876    1.114   .     S
C874   C877    1.521   .     S
H875   C926    1.112   .     S
C877   H878    1.111   .     S
C877   H880    1.111   .     S
C877   H879    1.111   .     S
C885   O909    1.284   .     A
C885   C896    1.421   .     S
C885   O907    1.290   .     A
C886   O910    1.284   .     A
C886   C895    1.421   .     S
C886   O908    1.290   .     A
C887   O911    1.277   .     A
C887   O913    1.284   .     A
C887   C889    1.402   .     S
C888   O914    1.284   .     A
C888   C890    1.402   .     S
C888   O912    1.277   .     A
C890   C785    1.349   1_655 S
C890   O821    1.390   1_655 S
C891   C896    1.405   .     A
C891   I933    2.120   .     S
C892   C895    1.405   .     A
C892   I934    2.120   .     S
C892   C582    1.371   1_565 S
C893   C895    1.394   .     A
C893   H901    1.084   .     S
C893   C579    1.371   1_565 S
C894   H902    1.084   .     S
C894   C896    1.394   .     A
C897   N906    1.380   .     A
C897   I935    2.117   .     S
C898   N905    1.380   .     A
C898   I936    2.117   .     S
C898   C1368   1.414   .     S
C899   N905    1.358   .     A
C899   H903    1.078   .     S
C899   C1365   1.414   .     S
C900   H904    1.078   .     S
C900   N906    1.358   .     A
N905   Zn915   2.019   .     S
N906   Zn916   2.019   .     S
O907   Zn915   1.995   .     S
O908   Zn916   1.995   .     S
O909   Zn916   2.008   .     S
O910   Zn915   2.008   .     S
O911   Zn915   1.982   .     S
O912   Zn916   1.982   .     S
O913   Zn916   1.984   .     S
O914   Zn915   1.984   .     S
O917   C918    1.413   .     S
O917   C785    1.390   1_655 S
C918   C921    1.521   .     S
C918   H919    1.114   .     S
C918   H816    1.112   1_655 S
C921   H922    1.111   .     S
C921   H924    1.111   .     S
C921   H923    1.111   .     S
O925   C926    1.413   .     S
C926   H928    1.114   .     S
C926   C929    1.521   .     S
H927   C822    1.112   1_655 S
C929   H930    1.111   .     S
C929   H932    1.111   .     S
C929   H931    1.111   .     S
C937   O961    1.284   .     A
C937   C948    1.421   .     S
C937   O959    1.290   .     A
C938   O962    1.284   .     A
C938   C947    1.421   .     S
C938   O960    1.290   .     A
C939   O963    1.277   .     A
C939   O965    1.284   .     A
C939   C941    1.402   .     S
C940   O966    1.284   .     A
C940   C942    1.402   .     S
C940   O964    1.277   .     A
C941   C1046   1.349   1_455 S
C941   O1073   1.390   1_455 S
C942   C993    1.349   .     S
C942   O1029   1.390   .     S
C943   C948    1.405   .     A
C943   I985    2.120   .     S
C943   C1257   1.371   1_545 S
C944   C947    1.405   .     A
C944   I986    2.120   .     S
C944   C1102   1.371   .     S
C945   C947    1.394   .     A
C945   H953    1.084   .     S
C945   C1099   1.371   .     S
C946   H954    1.084   .     S
C946   C948    1.394   .     A
C946   C1256   1.371   1_545 S
C949   N958    1.380   .     A
C949   I987    2.117   .     S
C950   N957    1.380   .     A
C950   I988    2.117   .     S
C950   C16     1.414   1_556 S
C951   N957    1.358   .     A
C951   H955    1.078   .     S
C951   C13     1.414   1_556 S
C952   H956    1.078   .     S
C952   N958    1.358   .     A
N957   Zn967   2.019   .     S
N958   Zn968   2.019   .     S
O959   Zn967   1.995   .     S
O960   Zn968   1.995   .     S
O961   Zn968   2.008   .     S
O962   Zn967   2.008   .     S
O963   Zn967   1.982   .     S
O964   Zn968   1.982   .     S
O965   Zn968   1.984   .     S
O966   Zn967   1.984   .     S
O969   C970    1.413   .     S
O969   C993    1.390   .     S
C970   C973    1.521   .     S
C970   H971    1.114   .     S
C970   H1024   1.112   .     S
H972   C1074   1.112   1_455 S
C973   H974    1.111   .     S
C973   H976    1.111   .     S
C973   H975    1.111   .     S
O977   C978    1.413   .     S
O977   C1046   1.390   1_455 S
C978   H980    1.114   .     S
C978   C981    1.521   .     S
C978   H1083   1.112   1_455 S
H979   C1030   1.112   .     S
C981   H982    1.111   .     S
C981   H984    1.111   .     S
C981   H983    1.111   .     S
C989   O1013   1.284   .     A
C989   C1000   1.421   .     S
C989   O1011   1.290   .     A
C990   O1014   1.284   .     A
C990   C999    1.421   .     S
C990   O1012   1.290   .     A
C991   O1015   1.277   .     A
C991   O1017   1.284   .     A
C991   C993    1.402   .     S
C992   O1018   1.284   .     A
C992   C994    1.402   .     S
C992   O1016   1.277   .     A
C994   C1045   1.349   .     S
C994   O1081   1.390   .     S
C995   C1000   1.405   .     A
C995   I1037   2.120   .     S
C995   C1309   1.371   1_545 S
C996   C999    1.405   .     A
C996   I1038   2.120   .     S
C996   C1154   1.371   .     S
C997   C999    1.394   .     A
C997   H1005   1.084   .     S
C997   C1151   1.371   .     S
C998   H1006   1.084   .     S
C998   C1000   1.394   .     A
C998   C1308   1.371   1_545 S
C1001  N1010   1.380   .     A
C1001  I1039   2.117   .     S
C1002  N1009   1.380   .     A
C1002  I1040   2.117   .     S
C1002  C68     1.414   1_556 S
C1003  N1009   1.358   .     A
C1003  H1007   1.078   .     S
C1003  C65     1.414   1_556 S
C1004  H1008   1.078   .     S
C1004  N1010   1.358   .     A
N1009  Zn1019  2.019   .     S
N1010  Zn1020  2.019   .     S
O1011  Zn1019  1.995   .     S
O1012  Zn1020  1.995   .     S
O1013  Zn1020  2.008   .     S
O1014  Zn1019  2.008   .     S
O1015  Zn1019  1.982   .     S
O1016  Zn1020  1.982   .     S
O1017  Zn1020  1.984   .     S
O1018  Zn1019  1.984   .     S
O1021  C1022   1.413   .     S
O1021  C1045   1.390   .     S
C1022  C1025   1.521   .     S
C1022  H1023   1.114   .     S
C1022  H1076   1.112   .     S
C1025  H1026   1.111   .     S
C1025  H1028   1.111   .     S
C1025  H1027   1.111   .     S
O1029  C1030   1.413   .     S
C1030  H1032   1.114   .     S
C1030  C1033   1.521   .     S
H1031  C1082   1.112   .     S
C1033  H1034   1.111   .     S
C1033  H1036   1.111   .     S
C1033  H1035   1.111   .     S
C1041  O1065   1.284   .     A
C1041  C1052   1.421   .     S
C1041  O1063   1.290   .     A
C1042  O1066   1.284   .     A
C1042  C1051   1.421   .     S
C1042  O1064   1.290   .     A
C1043  O1067   1.277   .     A
C1043  O1069   1.284   .     A
C1043  C1045   1.402   .     S
C1044  O1070   1.284   .     A
C1044  C1046   1.402   .     S
C1044  O1068   1.277   .     A
C1046  C941    1.349   1_655 S
C1046  O977    1.390   1_655 S
C1047  C1052   1.405   .     A
C1047  I1089   2.120   .     S
C1047  C1361   1.371   1_545 S
C1048  C1051   1.405   .     A
C1048  I1090   2.120   .     S
C1048  C1206   1.371   .     S
C1049  C1051   1.394   .     A
C1049  H1057   1.084   .     S
C1049  C1203   1.371   .     S
C1050  H1058   1.084   .     S
C1050  C1052   1.394   .     A
C1050  C1360   1.371   1_545 S
C1053  N1062   1.380   .     A
C1053  I1091   2.117   .     S
C1054  N1061   1.380   .     A
C1054  I1092   2.117   .     S
C1054  C120    1.414   1_556 S
C1055  N1061   1.358   .     A
C1055  H1059   1.078   .     S
C1055  C117    1.414   1_556 S
C1056  H1060   1.078   .     S
C1056  N1062   1.358   .     A
N1061  Zn1071  2.019   .     S
N1062  Zn1072  2.019   .     S
O1063  Zn1071  1.995   .     S
O1064  Zn1072  1.995   .     S
O1065  Zn1072  2.008   .     S
O1066  Zn1071  2.008   .     S
O1067  Zn1071  1.982   .     S
O1068  Zn1072  1.982   .     S
O1069  Zn1072  1.984   .     S
O1070  Zn1071  1.984   .     S
O1073  C1074   1.413   .     S
O1073  C941    1.390   1_655 S
C1074  C1077   1.521   .     S
C1074  H1075   1.114   .     S
C1074  H972    1.112   1_655 S
C1077  H1078   1.111   .     S
C1077  H1080   1.111   .     S
C1077  H1079   1.111   .     S
O1081  C1082   1.413   .     S
C1082  H1084   1.114   .     S
C1082  C1085   1.521   .     S
H1083  C978    1.112   1_655 S
C1085  H1086   1.111   .     S
C1085  H1088   1.111   .     S
C1085  H1087   1.111   .     S
C1093  O1117   1.284   .     A
C1093  C1104   1.421   .     S
C1093  O1115   1.290   .     A
C1094  O1118   1.284   .     A
C1094  C1103   1.421   .     S
C1094  O1116   1.290   .     A
C1095  O1119   1.277   .     A
C1095  O1121   1.284   .     A
C1095  C1097   1.402   .     S
C1096  O1122   1.284   .     A
C1096  C1098   1.402   .     S
C1096  O1120   1.277   .     A
C1097  C1202   1.349   1_455 S
C1097  O1229   1.390   1_455 S
C1098  C1149   1.349   .     S
C1098  O1185   1.390   .     S
C1099  C1104   1.405   .     A
C1099  I1141   2.120   .     S
C1100  C1103   1.405   .     A
C1100  I1142   2.120   .     S
C1100  C1258   1.371   .     S
C1101  C1103   1.394   .     A
C1101  H1109   1.084   .     S
C1101  C1255   1.371   .     S
C1102  H1110   1.084   .     S
C1102  C1104   1.394   .     A
C1105  N1114   1.380   .     A
C1105  I1143   2.117   .     S
C1106  N1113   1.380   .     A
C1106  I1144   2.117   .     S
C1106  C172    1.414   1_556 S
C1107  N1113   1.358   .     A
C1107  H1111   1.078   .     S
C1107  C169    1.414   1_556 S
C1108  H1112   1.078   .     S
C1108  N1114   1.358   .     A
N1113  Zn1123  2.019   .     S
N1114  Zn1124  2.019   .     S
O1115  Zn1123  1.995   .     S
O1116  Zn1124  1.995   .     S
O1117  Zn1124  2.008   .     S
O1118  Zn1123  2.008   .     S
O1119  Zn1123  1.982   .     S
O1120  Zn1124  1.982   .     S
O1121  Zn1124  1.984   .     S
O1122  Zn1123  1.984   .     S
O1125  C1126   1.413   .     S
O1125  C1149   1.390   .     S
C1126  C1129   1.521   .     S
C1126  H1127   1.114   .     S
C1126  H1180   1.112   .     S
H1128  C1230   1.112   1_455 S
C1129  H1130   1.111   .     S
C1129  H1132   1.111   .     S
C1129  H1131   1.111   .     S
O1133  C1134   1.413   .     S
O1133  C1202   1.390   1_455 S
C1134  H1136   1.114   .     S
C1134  C1137   1.521   .     S
C1134  H1239   1.112   1_455 S
H1135  C1186   1.112   .     S
C1137  H1138   1.111   .     S
C1137  H1140   1.111   .     S
C1137  H1139   1.111   .     S
C1145  O1169   1.284   .     A
C1145  C1156   1.421   .     S
C1145  O1167   1.290   .     A
C1146  O1170   1.284   .     A
C1146  C1155   1.421   .     S
C1146  O1168   1.290   .     A
C1147  O1171   1.277   .     A
C1147  O1173   1.284   .     A
C1147  C1149   1.402   .     S
C1148  O1174   1.284   .     A
C1148  C1150   1.402   .     S
C1148  O1172   1.277   .     A
C1150  C1201   1.349   .     S
C1150  O1237   1.390   .     S
C1151  C1156   1.405   .     A
C1151  I1193   2.120   .     S
C1152  C1155   1.405   .     A
C1152  I1194   2.120   .     S
C1152  C1310   1.371   .     S
C1153  C1155   1.394   .     A
C1153  H1161   1.084   .     S
C1153  C1307   1.371   .     S
C1154  H1162   1.084   .     S
C1154  C1156   1.394   .     A
C1157  N1166   1.380   .     A
C1157  I1195   2.117   .     S
C1158  N1165   1.380   .     A
C1158  I1196   2.117   .     S
C1158  C224    1.414   1_556 S
C1159  N1165   1.358   .     A
C1159  H1163   1.078   .     S
C1159  C221    1.414   1_556 S
C1160  H1164   1.078   .     S
C1160  N1166   1.358   .     A
N1165  Zn1175  2.019   .     S
N1166  Zn1176  2.019   .     S
O1167  Zn1175  1.995   .     S
O1168  Zn1176  1.995   .     S
O1169  Zn1176  2.008   .     S
O1170  Zn1175  2.008   .     S
O1171  Zn1175  1.982   .     S
O1172  Zn1176  1.982   .     S
O1173  Zn1176  1.984   .     S
O1174  Zn1175  1.984   .     S
O1177  C1178   1.413   .     S
O1177  C1201   1.390   .     S
C1178  C1181   1.521   .     S
C1178  H1179   1.114   .     S
C1178  H1232   1.112   .     S
C1181  H1182   1.111   .     S
C1181  H1184   1.111   .     S
C1181  H1183   1.111   .     S
O1185  C1186   1.413   .     S
C1186  H1188   1.114   .     S
C1186  C1189   1.521   .     S
H1187  C1238   1.112   .     S
C1189  H1190   1.111   .     S
C1189  H1192   1.111   .     S
C1189  H1191   1.111   .     S
C1197  O1221   1.284   .     A
C1197  C1208   1.421   .     S
C1197  O1219   1.290   .     A
C1198  O1222   1.284   .     A
C1198  C1207   1.421   .     S
C1198  O1220   1.290   .     A
C1199  O1223   1.277   .     A
C1199  O1225   1.284   .     A
C1199  C1201   1.402   .     S
C1200  O1226   1.284   .     A
C1200  C1202   1.402   .     S
C1200  O1224   1.277   .     A
C1202  C1097   1.349   1_655 S
C1202  O1133   1.390   1_655 S
C1203  C1208   1.405   .     A
C1203  I1245   2.120   .     S
C1204  C1207   1.405   .     A
C1204  I1246   2.120   .     S
C1204  C1362   1.371   .     S
C1205  C1207   1.394   .     A
C1205  H1213   1.084   .     S
C1205  C1359   1.371   .     S
C1206  H1214   1.084   .     S
C1206  C1208   1.394   .     A
C1209  N1218   1.380   .     A
C1209  I1247   2.117   .     S
C1210  N1217   1.380   .     A
C1210  I1248   2.117   .     S
C1210  C276    1.414   1_556 S
C1211  N1217   1.358   .     A
C1211  H1215   1.078   .     S
C1211  C273    1.414   1_556 S
C1212  H1216   1.078   .     S
C1212  N1218   1.358   .     A
N1217  Zn1227  2.019   .     S
N1218  Zn1228  2.019   .     S
O1219  Zn1227  1.995   .     S
O1220  Zn1228  1.995   .     S
O1221  Zn1228  2.008   .     S
O1222  Zn1227  2.008   .     S
O1223  Zn1227  1.982   .     S
O1224  Zn1228  1.982   .     S
O1225  Zn1228  1.984   .     S
O1226  Zn1227  1.984   .     S
O1229  C1230   1.413   .     S
O1229  C1097   1.390   1_655 S
C1230  C1233   1.521   .     S
C1230  H1231   1.114   .     S
C1230  H1128   1.112   1_655 S
C1233  H1234   1.111   .     S
C1233  H1236   1.111   .     S
C1233  H1235   1.111   .     S
O1237  C1238   1.413   .     S
C1238  H1240   1.114   .     S
C1238  C1241   1.521   .     S
H1239  C1134   1.112   1_655 S
C1241  H1242   1.111   .     S
C1241  H1244   1.111   .     S
C1241  H1243   1.111   .     S
C1249  O1273   1.284   .     A
C1249  C1260   1.421   .     S
C1249  O1271   1.290   .     A
C1250  O1274   1.284   .     A
C1250  C1259   1.421   .     S
C1250  O1272   1.290   .     A
C1251  O1275   1.277   .     A
C1251  O1277   1.284   .     A
C1251  C1253   1.402   .     S
C1252  O1278   1.284   .     A
C1252  C1254   1.402   .     S
C1252  O1276   1.277   .     A
C1253  C1358   1.349   1_455 S
C1253  O1385   1.390   1_455 S
C1254  C1305   1.349   .     S
C1254  O1341   1.390   .     S
C1255  C1260   1.405   .     A
C1255  I1297   2.120   .     S
C1256  C1259   1.405   .     A
C1256  I1298   2.120   .     S
C1256  C946    1.371   1_565 S
C1257  C1259   1.394   .     A
C1257  H1265   1.084   .     S
C1257  C943    1.371   1_565 S
C1258  H1266   1.084   .     S
C1258  C1260   1.394   .     A
C1261  N1270   1.380   .     A
C1261  I1299   2.117   .     S
C1262  N1269   1.380   .     A
C1262  I1300   2.117   .     S
C1262  C328    1.414   1_556 S
C1263  N1269   1.358   .     A
C1263  H1267   1.078   .     S
C1263  C325    1.414   1_556 S
C1264  H1268   1.078   .     S
C1264  N1270   1.358   .     A
N1269  Zn1279  2.019   .     S
N1270  Zn1280  2.019   .     S
O1271  Zn1279  1.995   .     S
O1272  Zn1280  1.995   .     S
O1273  Zn1280  2.008   .     S
O1274  Zn1279  2.008   .     S
O1275  Zn1279  1.982   .     S
O1276  Zn1280  1.982   .     S
O1277  Zn1280  1.984   .     S
O1278  Zn1279  1.984   .     S
O1281  C1282   1.413   .     S
O1281  C1305   1.390   .     S
C1282  C1285   1.521   .     S
C1282  H1283   1.114   .     S
C1282  H1336   1.112   .     S
H1284  C1386   1.112   1_455 S
C1285  H1286   1.111   .     S
C1285  H1288   1.111   .     S
C1285  H1287   1.111   .     S
O1289  C1290   1.413   .     S
O1289  C1358   1.390   1_455 S
C1290  H1292   1.114   .     S
C1290  C1293   1.521   .     S
C1290  H1395   1.112   1_455 S
H1291  C1342   1.112   .     S
C1293  H1294   1.111   .     S
C1293  H1296   1.111   .     S
C1293  H1295   1.111   .     S
C1301  O1325   1.284   .     A
C1301  C1312   1.421   .     S
C1301  O1323   1.290   .     A
C1302  O1326   1.284   .     A
C1302  C1311   1.421   .     S
C1302  O1324   1.290   .     A
C1303  O1327   1.277   .     A
C1303  O1329   1.284   .     A
C1303  C1305   1.402   .     S
C1304  O1330   1.284   .     A
C1304  C1306   1.402   .     S
C1304  O1328   1.277   .     A
C1306  C1357   1.349   .     S
C1306  O1393   1.390   .     S
C1307  C1312   1.405   .     A
C1307  I1349   2.120   .     S
C1308  C1311   1.405   .     A
C1308  I1350   2.120   .     S
C1308  C998    1.371   1_565 S
C1309  C1311   1.394   .     A
C1309  H1317   1.084   .     S
C1309  C995    1.371   1_565 S
C1310  H1318   1.084   .     S
C1310  C1312   1.394   .     A
C1313  N1322   1.380   .     A
C1313  I1351   2.117   .     S
C1314  N1321   1.380   .     A
C1314  I1352   2.117   .     S
C1314  C380    1.414   1_556 S
C1315  N1321   1.358   .     A
C1315  H1319   1.078   .     S
C1315  C377    1.414   1_556 S
C1316  H1320   1.078   .     S
C1316  N1322   1.358   .     A
N1321  Zn1331  2.019   .     S
N1322  Zn1332  2.019   .     S
O1323  Zn1331  1.995   .     S
O1324  Zn1332  1.995   .     S
O1325  Zn1332  2.008   .     S
O1326  Zn1331  2.008   .     S
O1327  Zn1331  1.982   .     S
O1328  Zn1332  1.982   .     S
O1329  Zn1332  1.984   .     S
O1330  Zn1331  1.984   .     S
O1333  C1334   1.413   .     S
O1333  C1357   1.390   .     S
C1334  C1337   1.521   .     S
C1334  H1335   1.114   .     S
C1334  H1388   1.112   .     S
C1337  H1338   1.111   .     S
C1337  H1340   1.111   .     S
C1337  H1339   1.111   .     S
O1341  C1342   1.413   .     S
C1342  H1344   1.114   .     S
C1342  C1345   1.521   .     S
H1343  C1394   1.112   .     S
C1345  H1346   1.111   .     S
C1345  H1348   1.111   .     S
C1345  H1347   1.111   .     S
C1353  O1377   1.284   .     A
C1353  C1364   1.421   .     S
C1353  O1375   1.290   .     A
C1354  O1378   1.284   .     A
C1354  C1363   1.421   .     S
C1354  O1376   1.290   .     A
C1355  O1379   1.277   .     A
C1355  O1381   1.284   .     A
C1355  C1357   1.402   .     S
C1356  O1382   1.284   .     A
C1356  C1358   1.402   .     S
C1356  O1380   1.277   .     A
C1358  C1253   1.349   1_655 S
C1358  O1289   1.390   1_655 S
C1359  C1364   1.405   .     A
C1359  I1401   2.120   .     S
C1360  C1363   1.405   .     A
C1360  I1402   2.120   .     S
C1360  C1050   1.371   1_565 S
C1361  C1363   1.394   .     A
C1361  H1369   1.084   .     S
C1361  C1047   1.371   1_565 S
C1362  H1370   1.084   .     S
C1362  C1364   1.394   .     A
C1365  N1374   1.380   .     A
C1365  I1403   2.117   .     S
C1366  N1373   1.380   .     A
C1366  I1404   2.117   .     S
C1366  C432    1.414   1_556 S
C1367  N1373   1.358   .     A
C1367  H1371   1.078   .     S
C1367  C429    1.414   1_556 S
C1368  H1372   1.078   .     S
C1368  N1374   1.358   .     A
N1373  Zn1383  2.019   .     S
N1374  Zn1384  2.019   .     S
O1375  Zn1383  1.995   .     S
O1376  Zn1384  1.995   .     S
O1377  Zn1384  2.008   .     S
O1378  Zn1383  2.008   .     S
O1379  Zn1383  1.982   .     S
O1380  Zn1384  1.982   .     S
O1381  Zn1384  1.984   .     S
O1382  Zn1383  1.984   .     S
O1385  C1386   1.413   .     S
O1385  C1253   1.390   1_655 S
C1386  C1389   1.521   .     S
C1386  H1387   1.114   .     S
C1386  H1284   1.112   1_655 S
C1389  H1390   1.111   .     S
C1389  H1392   1.111   .     S
C1389  H1391   1.111   .     S
O1393  C1394   1.413   .     S
C1394  H1396   1.114   .     S
C1394  C1397   1.521   .     S
H1395  C1290   1.112   1_655 S
C1397  H1398   1.111   .     S
C1397  H1400   1.111   .     S
C1397  H1399   1.111   .     S
