data_str_m1_o10_o16_pcu_sym.256
_audit_creation_date              2020-01-03
_audit_creation_method            'Materials Studio'
_symmetry_space_group_name_H-M    'P1'
_symmetry_Int_Tables_number       1
_symmetry_cell_setting            triclinic
loop_
_symmetry_equiv_pos_as_xyz
  x,y,z
_cell_length_a                    32.7005
_cell_length_b                    32.5334
_cell_length_c                    30.9350
_cell_angle_alpha                 96.6555
_cell_angle_beta                  75.2141
_cell_angle_gamma                 98.8427
loop_
_atom_site_label
_atom_site_type_symbol
_atom_site_fract_x
_atom_site_fract_y
_atom_site_fract_z
_atom_site_U_iso_or_equiv
_atom_site_adp_type
_atom_site_occupancy
Zn1    Zn    0.19338   0.13994   0.28734   0.00000  Uiso   1.00
Zn2    Zn    0.13379   0.12458   0.21875   0.00000  Uiso   1.00
Zn3    Zn    0.21056   0.19775   0.20657   0.00000  Uiso   1.00
Zn4    Zn    0.12893   0.20439   0.28733   0.00000  Uiso   1.00
O5     O     0.16667   0.16667   0.25000   0.00000  Uiso   1.00
O6     O     0.07071   0.18878   0.28213   0.00000  Uiso   1.00
O7     O     0.25491   0.15226   0.27013   0.00000  Uiso   1.00
O8     O     0.13760   0.06944   0.23413   0.00000  Uiso   1.00
O9     O     0.20345   0.25620   0.21360   0.00000  Uiso   1.00
O10    O     0.15451   0.12637   0.15458   0.00000  Uiso   1.00
O11    O     0.12940   0.20391   0.34968   0.00000  Uiso   1.00
O12    O     0.20824   0.17759   0.14606   0.00000  Uiso   1.00
O13    O     0.17451   0.15880   0.34968   0.00000  Uiso   1.00
O14    O     0.17930   0.08019   0.28214   0.00000  Uiso   1.00
O15    O     0.14632   0.26085   0.27013   0.00000  Uiso   1.00
O16    O     0.07412   0.13291   0.23413   0.00000  Uiso   1.00
O17    O     0.26693   0.19272   0.21360   0.00000  Uiso   1.00
C18    C     0.05301   0.15940   0.25958   0.00000  Uiso   1.00
C19    C     0.28069   0.17375   0.24021   0.00000  Uiso   1.00
C20    C     0.15620   0.05577   0.26001   0.00000  Uiso   1.00
C21    C     0.17662   0.27785   0.24017   0.00000  Uiso   1.00
C22    C     0.18508   0.14793   0.12937   0.00000  Uiso   1.00
C23    C     0.14806   0.18402   0.37100   0.00000  Uiso   1.00
C24    C     0.19721   0.08704   0.01847   0.00000  Uiso   1.00
H25    H     0.20866   0.07740   0.08144   0.00000  Uiso   1.00
H26    H     0.17036   0.06549   0.44487   0.00000  Uiso   1.00
H27    H     0.20155   0.05527   0.00511   0.00000  Uiso   1.00
C28    C     0.19175   0.13897   0.08123   0.00000  Uiso   1.00
C29    C     0.13778   0.23501   0.43655   0.00000  Uiso   1.00
C30    C     0.15069   0.25209   0.47519   0.00000  Uiso   1.00
C31    C     0.17067   0.22775   0.49635   0.00000  Uiso   1.00
C32    C     0.16813   0.18373   0.48534   0.00000  Uiso   1.00
C33    C     0.15398   0.16665   0.44626   0.00000  Uiso   1.00
C34    C     0.17946   0.15604   0.01145   0.00000  Uiso   1.00
C35    C     0.18410   0.11420   0.49417   0.00000  Uiso   1.00
C36    C     0.17053   0.09836   0.45575   0.00000  Uiso   1.00
C37    C     0.15160   0.12292   0.43471   0.00000  Uiso   1.00
C38    C     0.18112   0.16695   0.05634   0.00000  Uiso   1.00
C39    C     0.20116   0.09950   0.06188   0.00000  Uiso   1.00
C40    C     0.14360   0.19402   0.41950   0.00000  Uiso   1.00
H41    H     0.16965   0.19517   0.07397   0.00000  Uiso   1.00
H42    H     0.12687   0.25507   0.41740   0.00000  Uiso   1.00
C43    C     0.32617   0.17809   0.23843   0.00000  Uiso   1.00
C44    C     0.00806   0.15460   0.26260   0.00000  Uiso   1.00
C45    C     0.18065   0.32251   0.23666   0.00000  Uiso   1.00
H46    H     0.20728   0.00394   0.21214   0.00000  Uiso   1.00
C47    C     0.15188   0.01158   0.26342   0.00000  Uiso   1.00
H48    H     0.12475   0.33088   0.28786   0.00000  Uiso   1.00
N49    N     0.31649   0.11883   0.28408   0.00000  Uiso   1.00
O50    O     0.31942   0.11241   0.32386   0.00000  Uiso   1.00
O51    O     0.29998   0.08822   0.26023   0.00000  Uiso   1.00
Br52   Br    0.21227   0.25762   0.02737   0.00000  Uiso   1.00
N53    N     0.14645   0.29509   0.49055   0.00000  Uiso   1.00
O54    O     0.14264   0.32103   0.46323   0.00000  Uiso   1.00
O55    O     0.14029   0.30710   0.03308   0.00000  Uiso   1.00
Br56   Br    0.11553   0.09251   0.39796   0.00000  Uiso   1.00
Br57   Br    0.02983   0.22019   0.20249   0.00000  Uiso   1.00
Zn58   Zn    0.52672   0.13994   0.28734   0.00000  Uiso   1.00
Zn59   Zn    0.46713   0.12458   0.21875   0.00000  Uiso   1.00
Zn60   Zn    0.54389   0.19775   0.20657   0.00000  Uiso   1.00
Zn61   Zn    0.46226   0.20439   0.28733   0.00000  Uiso   1.00
O62    O     0.50000   0.16667   0.25000   0.00000  Uiso   1.00
O63    O     0.40405   0.18878   0.28213   0.00000  Uiso   1.00
O64    O     0.58824   0.15226   0.27013   0.00000  Uiso   1.00
O65    O     0.47093   0.06944   0.23413   0.00000  Uiso   1.00
O66    O     0.53678   0.25620   0.21360   0.00000  Uiso   1.00
O67    O     0.48784   0.12637   0.15458   0.00000  Uiso   1.00
O68    O     0.46274   0.20391   0.34968   0.00000  Uiso   1.00
O69    O     0.54157   0.17759   0.14606   0.00000  Uiso   1.00
O70    O     0.50785   0.15880   0.34968   0.00000  Uiso   1.00
O71    O     0.51264   0.08019   0.28214   0.00000  Uiso   1.00
O72    O     0.47965   0.26085   0.27013   0.00000  Uiso   1.00
O73    O     0.40745   0.13291   0.23413   0.00000  Uiso   1.00
O74    O     0.60026   0.19272   0.21360   0.00000  Uiso   1.00
C75    C     0.38634   0.15940   0.25958   0.00000  Uiso   1.00
C76    C     0.61403   0.17375   0.24021   0.00000  Uiso   1.00
C77    C     0.48954   0.05577   0.26001   0.00000  Uiso   1.00
C78    C     0.50995   0.27785   0.24017   0.00000  Uiso   1.00
C79    C     0.51842   0.14793   0.12937   0.00000  Uiso   1.00
C80    C     0.48140   0.18402   0.37100   0.00000  Uiso   1.00
C81    C     0.53054   0.08704   0.01847   0.00000  Uiso   1.00
H82    H     0.54200   0.07740   0.08144   0.00000  Uiso   1.00
H83    H     0.50370   0.06549   0.44487   0.00000  Uiso   1.00
H84    H     0.53488   0.05527   0.00511   0.00000  Uiso   1.00
C85    C     0.52508   0.13897   0.08123   0.00000  Uiso   1.00
C86    C     0.47112   0.23501   0.43655   0.00000  Uiso   1.00
C87    C     0.48402   0.25209   0.47519   0.00000  Uiso   1.00
C88    C     0.50401   0.22775   0.49635   0.00000  Uiso   1.00
C89    C     0.50147   0.18373   0.48534   0.00000  Uiso   1.00
C90    C     0.48731   0.16665   0.44626   0.00000  Uiso   1.00
C91    C     0.51279   0.15604   0.01145   0.00000  Uiso   1.00
C92    C     0.51743   0.11420   0.49417   0.00000  Uiso   1.00
C93    C     0.50386   0.09836   0.45575   0.00000  Uiso   1.00
C94    C     0.48493   0.12292   0.43471   0.00000  Uiso   1.00
C95    C     0.51446   0.16695   0.05634   0.00000  Uiso   1.00
C96    C     0.53449   0.09950   0.06188   0.00000  Uiso   1.00
C97    C     0.47694   0.19402   0.41950   0.00000  Uiso   1.00
H98    H     0.50298   0.19517   0.07397   0.00000  Uiso   1.00
H99    H     0.46021   0.25507   0.41740   0.00000  Uiso   1.00
C100   C     0.65950   0.17809   0.23843   0.00000  Uiso   1.00
C101   C     0.34139   0.15460   0.26260   0.00000  Uiso   1.00
C102   C     0.51399   0.32251   0.23666   0.00000  Uiso   1.00
H103   H     0.54062   0.00394   0.21214   0.00000  Uiso   1.00
C104   C     0.48521   0.01158   0.26342   0.00000  Uiso   1.00
H105   H     0.45809   0.33088   0.28786   0.00000  Uiso   1.00
N106   N     0.64982   0.11883   0.28408   0.00000  Uiso   1.00
O107   O     0.65275   0.11241   0.32386   0.00000  Uiso   1.00
O108   O     0.63331   0.08822   0.26023   0.00000  Uiso   1.00
Br109  Br    0.54560   0.25762   0.02737   0.00000  Uiso   1.00
N110   N     0.47978   0.29509   0.49055   0.00000  Uiso   1.00
O111   O     0.47597   0.32103   0.46323   0.00000  Uiso   1.00
O112   O     0.47363   0.30710   0.03308   0.00000  Uiso   1.00
Br113  Br    0.44887   0.09251   0.39796   0.00000  Uiso   1.00
Br114  Br    0.36316   0.22019   0.20249   0.00000  Uiso   1.00
Zn115  Zn    0.86005   0.13994   0.28734   0.00000  Uiso   1.00
Zn116  Zn    0.80046   0.12458   0.21875   0.00000  Uiso   1.00
Zn117  Zn    0.87723   0.19775   0.20657   0.00000  Uiso   1.00
Zn118  Zn    0.79560   0.20439   0.28733   0.00000  Uiso   1.00
O119   O     0.83333   0.16667   0.25000   0.00000  Uiso   1.00
O120   O     0.73738   0.18878   0.28213   0.00000  Uiso   1.00
O121   O     0.92158   0.15226   0.27013   0.00000  Uiso   1.00
O122   O     0.80426   0.06944   0.23413   0.00000  Uiso   1.00
O123   O     0.87012   0.25620   0.21360   0.00000  Uiso   1.00
O124   O     0.82118   0.12637   0.15458   0.00000  Uiso   1.00
O125   O     0.79607   0.20391   0.34968   0.00000  Uiso   1.00
O126   O     0.87491   0.17759   0.14606   0.00000  Uiso   1.00
O127   O     0.84118   0.15880   0.34968   0.00000  Uiso   1.00
O128   O     0.84597   0.08019   0.28214   0.00000  Uiso   1.00
O129   O     0.81298   0.26085   0.27013   0.00000  Uiso   1.00
O130   O     0.74078   0.13291   0.23413   0.00000  Uiso   1.00
O131   O     0.93360   0.19272   0.21360   0.00000  Uiso   1.00
C132   C     0.71967   0.15940   0.25958   0.00000  Uiso   1.00
C133   C     0.94736   0.17375   0.24021   0.00000  Uiso   1.00
C134   C     0.82287   0.05577   0.26001   0.00000  Uiso   1.00
C135   C     0.84328   0.27785   0.24017   0.00000  Uiso   1.00
C136   C     0.85175   0.14793   0.12937   0.00000  Uiso   1.00
C137   C     0.81473   0.18402   0.37100   0.00000  Uiso   1.00
C138   C     0.86387   0.08704   0.01847   0.00000  Uiso   1.00
H139   H     0.87533   0.07740   0.08144   0.00000  Uiso   1.00
H140   H     0.83703   0.06549   0.44487   0.00000  Uiso   1.00
H141   H     0.86821   0.05527   0.00511   0.00000  Uiso   1.00
C142   C     0.85842   0.13897   0.08123   0.00000  Uiso   1.00
C143   C     0.80445   0.23501   0.43655   0.00000  Uiso   1.00
C144   C     0.81736   0.25209   0.47519   0.00000  Uiso   1.00
C145   C     0.83734   0.22775   0.49635   0.00000  Uiso   1.00
C146   C     0.83480   0.18373   0.48534   0.00000  Uiso   1.00
C147   C     0.82065   0.16665   0.44626   0.00000  Uiso   1.00
C148   C     0.84612   0.15604   0.01145   0.00000  Uiso   1.00
C149   C     0.85076   0.11420   0.49417   0.00000  Uiso   1.00
C150   C     0.83719   0.09836   0.45575   0.00000  Uiso   1.00
C151   C     0.81827   0.12292   0.43471   0.00000  Uiso   1.00
C152   C     0.84779   0.16695   0.05634   0.00000  Uiso   1.00
C153   C     0.86782   0.09950   0.06188   0.00000  Uiso   1.00
C154   C     0.81027   0.19402   0.41950   0.00000  Uiso   1.00
H155   H     0.83631   0.19517   0.07397   0.00000  Uiso   1.00
H156   H     0.79354   0.25507   0.41740   0.00000  Uiso   1.00
C157   C     0.99284   0.17809   0.23843   0.00000  Uiso   1.00
C158   C     0.67472   0.15460   0.26260   0.00000  Uiso   1.00
C159   C     0.84732   0.32251   0.23666   0.00000  Uiso   1.00
H160   H     0.87395   0.00394   0.21214   0.00000  Uiso   1.00
C161   C     0.81855   0.01158   0.26342   0.00000  Uiso   1.00
H162   H     0.79142   0.33088   0.28786   0.00000  Uiso   1.00
N163   N     0.98315   0.11883   0.28408   0.00000  Uiso   1.00
O164   O     0.98608   0.11241   0.32386   0.00000  Uiso   1.00
O165   O     0.96664   0.08822   0.26023   0.00000  Uiso   1.00
Br166  Br    0.87893   0.25762   0.02737   0.00000  Uiso   1.00
N167   N     0.81311   0.29509   0.49055   0.00000  Uiso   1.00
O168   O     0.80930   0.32103   0.46323   0.00000  Uiso   1.00
O169   O     0.80696   0.30710   0.03308   0.00000  Uiso   1.00
Br170  Br    0.78220   0.09251   0.39796   0.00000  Uiso   1.00
Br171  Br    0.69649   0.22019   0.20249   0.00000  Uiso   1.00
Zn172  Zn    0.19338   0.47327   0.28734   0.00000  Uiso   1.00
Zn173  Zn    0.13379   0.45791   0.21875   0.00000  Uiso   1.00
Zn174  Zn    0.21056   0.53109   0.20657   0.00000  Uiso   1.00
Zn175  Zn    0.12893   0.53773   0.28733   0.00000  Uiso   1.00
O176   O     0.16667   0.50000   0.25000   0.00000  Uiso   1.00
O177   O     0.07071   0.52211   0.28213   0.00000  Uiso   1.00
O178   O     0.25491   0.48559   0.27013   0.00000  Uiso   1.00
O179   O     0.13760   0.40277   0.23413   0.00000  Uiso   1.00
O180   O     0.20345   0.58953   0.21360   0.00000  Uiso   1.00
O181   O     0.15451   0.45970   0.15458   0.00000  Uiso   1.00
O182   O     0.12940   0.53724   0.34968   0.00000  Uiso   1.00
O183   O     0.20824   0.51092   0.14606   0.00000  Uiso   1.00
O184   O     0.17451   0.49213   0.34968   0.00000  Uiso   1.00
O185   O     0.17930   0.41352   0.28214   0.00000  Uiso   1.00
O186   O     0.14632   0.59418   0.27013   0.00000  Uiso   1.00
O187   O     0.07412   0.46625   0.23413   0.00000  Uiso   1.00
O188   O     0.26693   0.52605   0.21360   0.00000  Uiso   1.00
C189   C     0.05301   0.49273   0.25958   0.00000  Uiso   1.00
C190   C     0.28069   0.50708   0.24021   0.00000  Uiso   1.00
C191   C     0.15620   0.38910   0.26001   0.00000  Uiso   1.00
C192   C     0.17662   0.61119   0.24017   0.00000  Uiso   1.00
C193   C     0.18508   0.48126   0.12937   0.00000  Uiso   1.00
C194   C     0.14806   0.51735   0.37100   0.00000  Uiso   1.00
C195   C     0.19721   0.42037   0.01847   0.00000  Uiso   1.00
H196   H     0.20866   0.41074   0.08144   0.00000  Uiso   1.00
H197   H     0.17036   0.39883   0.44487   0.00000  Uiso   1.00
H198   H     0.20155   0.38860   0.00511   0.00000  Uiso   1.00
C199   C     0.19175   0.47230   0.08123   0.00000  Uiso   1.00
C200   C     0.13778   0.56834   0.43655   0.00000  Uiso   1.00
C201   C     0.15069   0.58542   0.47519   0.00000  Uiso   1.00
C202   C     0.17067   0.56108   0.49635   0.00000  Uiso   1.00
C203   C     0.16813   0.51707   0.48534   0.00000  Uiso   1.00
C204   C     0.15398   0.49998   0.44626   0.00000  Uiso   1.00
C205   C     0.17946   0.48937   0.01145   0.00000  Uiso   1.00
C206   C     0.18410   0.44754   0.49417   0.00000  Uiso   1.00
C207   C     0.17053   0.43169   0.45575   0.00000  Uiso   1.00
C208   C     0.15160   0.45625   0.43471   0.00000  Uiso   1.00
C209   C     0.18112   0.50028   0.05634   0.00000  Uiso   1.00
C210   C     0.20116   0.43283   0.06188   0.00000  Uiso   1.00
C211   C     0.14360   0.52735   0.41950   0.00000  Uiso   1.00
H212   H     0.16965   0.52851   0.07397   0.00000  Uiso   1.00
H213   H     0.12687   0.58840   0.41740   0.00000  Uiso   1.00
C214   C     0.32617   0.51142   0.23843   0.00000  Uiso   1.00
C215   C     0.00806   0.48793   0.26260   0.00000  Uiso   1.00
C216   C     0.18065   0.65584   0.23666   0.00000  Uiso   1.00
H217   H     0.20728   0.33727   0.21214   0.00000  Uiso   1.00
C218   C     0.15188   0.34491   0.26342   0.00000  Uiso   1.00
H219   H     0.12475   0.66422   0.28786   0.00000  Uiso   1.00
N220   N     0.31649   0.45216   0.28408   0.00000  Uiso   1.00
O221   O     0.31942   0.44575   0.32386   0.00000  Uiso   1.00
O222   O     0.29998   0.42155   0.26023   0.00000  Uiso   1.00
Br223  Br    0.21227   0.59096   0.02737   0.00000  Uiso   1.00
N224   N     0.14645   0.62842   0.49055   0.00000  Uiso   1.00
O225   O     0.14264   0.65436   0.46323   0.00000  Uiso   1.00
O226   O     0.14029   0.64043   0.03308   0.00000  Uiso   1.00
Br227  Br    0.11553   0.42584   0.39796   0.00000  Uiso   1.00
Br228  Br    0.02983   0.55352   0.20249   0.00000  Uiso   1.00
Zn229  Zn    0.52672   0.47327   0.28734   0.00000  Uiso   1.00
Zn230  Zn    0.46713   0.45791   0.21875   0.00000  Uiso   1.00
Zn231  Zn    0.54389   0.53109   0.20657   0.00000  Uiso   1.00
Zn232  Zn    0.46226   0.53773   0.28733   0.00000  Uiso   1.00
O233   O     0.50000   0.50000   0.25000   0.00000  Uiso   1.00
O234   O     0.40405   0.52211   0.28213   0.00000  Uiso   1.00
O235   O     0.58824   0.48559   0.27013   0.00000  Uiso   1.00
O236   O     0.47093   0.40277   0.23413   0.00000  Uiso   1.00
O237   O     0.53678   0.58953   0.21360   0.00000  Uiso   1.00
O238   O     0.48784   0.45970   0.15458   0.00000  Uiso   1.00
O239   O     0.46274   0.53724   0.34968   0.00000  Uiso   1.00
O240   O     0.54157   0.51092   0.14606   0.00000  Uiso   1.00
O241   O     0.50785   0.49213   0.34968   0.00000  Uiso   1.00
O242   O     0.51264   0.41352   0.28214   0.00000  Uiso   1.00
O243   O     0.47965   0.59418   0.27013   0.00000  Uiso   1.00
O244   O     0.40745   0.46625   0.23413   0.00000  Uiso   1.00
O245   O     0.60026   0.52605   0.21360   0.00000  Uiso   1.00
C246   C     0.38634   0.49273   0.25958   0.00000  Uiso   1.00
C247   C     0.61403   0.50708   0.24021   0.00000  Uiso   1.00
C248   C     0.48954   0.38910   0.26001   0.00000  Uiso   1.00
C249   C     0.50995   0.61119   0.24017   0.00000  Uiso   1.00
C250   C     0.51842   0.48126   0.12937   0.00000  Uiso   1.00
C251   C     0.48140   0.51735   0.37100   0.00000  Uiso   1.00
C252   C     0.53054   0.42037   0.01847   0.00000  Uiso   1.00
H253   H     0.54200   0.41074   0.08144   0.00000  Uiso   1.00
H254   H     0.50370   0.39883   0.44487   0.00000  Uiso   1.00
H255   H     0.53488   0.38860   0.00511   0.00000  Uiso   1.00
C256   C     0.52508   0.47230   0.08123   0.00000  Uiso   1.00
C257   C     0.47112   0.56834   0.43655   0.00000  Uiso   1.00
C258   C     0.48402   0.58542   0.47519   0.00000  Uiso   1.00
C259   C     0.50401   0.56108   0.49635   0.00000  Uiso   1.00
C260   C     0.50147   0.51707   0.48534   0.00000  Uiso   1.00
C261   C     0.48731   0.49998   0.44626   0.00000  Uiso   1.00
C262   C     0.51279   0.48937   0.01145   0.00000  Uiso   1.00
C263   C     0.51743   0.44754   0.49417   0.00000  Uiso   1.00
C264   C     0.50386   0.43169   0.45575   0.00000  Uiso   1.00
C265   C     0.48493   0.45625   0.43471   0.00000  Uiso   1.00
C266   C     0.51446   0.50028   0.05634   0.00000  Uiso   1.00
C267   C     0.53449   0.43283   0.06188   0.00000  Uiso   1.00
C268   C     0.47694   0.52735   0.41950   0.00000  Uiso   1.00
H269   H     0.50298   0.52851   0.07397   0.00000  Uiso   1.00
H270   H     0.46021   0.58840   0.41740   0.00000  Uiso   1.00
C271   C     0.65950   0.51142   0.23843   0.00000  Uiso   1.00
C272   C     0.34139   0.48793   0.26260   0.00000  Uiso   1.00
C273   C     0.51399   0.65584   0.23666   0.00000  Uiso   1.00
H274   H     0.54062   0.33727   0.21214   0.00000  Uiso   1.00
C275   C     0.48521   0.34491   0.26342   0.00000  Uiso   1.00
H276   H     0.45809   0.66422   0.28786   0.00000  Uiso   1.00
N277   N     0.64982   0.45216   0.28408   0.00000  Uiso   1.00
O278   O     0.65275   0.44575   0.32386   0.00000  Uiso   1.00
O279   O     0.63331   0.42155   0.26023   0.00000  Uiso   1.00
Br280  Br    0.54560   0.59096   0.02737   0.00000  Uiso   1.00
N281   N     0.47978   0.62842   0.49055   0.00000  Uiso   1.00
O282   O     0.47597   0.65436   0.46323   0.00000  Uiso   1.00
O283   O     0.47363   0.64043   0.03308   0.00000  Uiso   1.00
Br284  Br    0.44887   0.42584   0.39796   0.00000  Uiso   1.00
Br285  Br    0.36316   0.55352   0.20249   0.00000  Uiso   1.00
Zn286  Zn    0.86005   0.47327   0.28734   0.00000  Uiso   1.00
Zn287  Zn    0.80046   0.45791   0.21875   0.00000  Uiso   1.00
Zn288  Zn    0.87723   0.53109   0.20657   0.00000  Uiso   1.00
Zn289  Zn    0.79560   0.53773   0.28733   0.00000  Uiso   1.00
O290   O     0.83333   0.50000   0.25000   0.00000  Uiso   1.00
O291   O     0.73738   0.52211   0.28213   0.00000  Uiso   1.00
O292   O     0.92158   0.48559   0.27013   0.00000  Uiso   1.00
O293   O     0.80426   0.40277   0.23413   0.00000  Uiso   1.00
O294   O     0.87012   0.58953   0.21360   0.00000  Uiso   1.00
O295   O     0.82118   0.45970   0.15458   0.00000  Uiso   1.00
O296   O     0.79607   0.53724   0.34968   0.00000  Uiso   1.00
O297   O     0.87491   0.51092   0.14606   0.00000  Uiso   1.00
O298   O     0.84118   0.49213   0.34968   0.00000  Uiso   1.00
O299   O     0.84597   0.41352   0.28214   0.00000  Uiso   1.00
O300   O     0.81298   0.59418   0.27013   0.00000  Uiso   1.00
O301   O     0.74078   0.46625   0.23413   0.00000  Uiso   1.00
O302   O     0.93360   0.52605   0.21360   0.00000  Uiso   1.00
C303   C     0.71967   0.49273   0.25958   0.00000  Uiso   1.00
C304   C     0.94736   0.50708   0.24021   0.00000  Uiso   1.00
C305   C     0.82287   0.38910   0.26001   0.00000  Uiso   1.00
C306   C     0.84328   0.61119   0.24017   0.00000  Uiso   1.00
C307   C     0.85175   0.48126   0.12937   0.00000  Uiso   1.00
C308   C     0.81473   0.51735   0.37100   0.00000  Uiso   1.00
C309   C     0.86387   0.42037   0.01847   0.00000  Uiso   1.00
H310   H     0.87533   0.41074   0.08144   0.00000  Uiso   1.00
H311   H     0.83703   0.39883   0.44487   0.00000  Uiso   1.00
H312   H     0.86821   0.38860   0.00511   0.00000  Uiso   1.00
C313   C     0.85842   0.47230   0.08123   0.00000  Uiso   1.00
C314   C     0.80445   0.56834   0.43655   0.00000  Uiso   1.00
C315   C     0.81736   0.58542   0.47519   0.00000  Uiso   1.00
C316   C     0.83734   0.56108   0.49635   0.00000  Uiso   1.00
C317   C     0.83480   0.51707   0.48534   0.00000  Uiso   1.00
C318   C     0.82065   0.49998   0.44626   0.00000  Uiso   1.00
C319   C     0.84612   0.48937   0.01145   0.00000  Uiso   1.00
C320   C     0.85076   0.44754   0.49417   0.00000  Uiso   1.00
C321   C     0.83719   0.43169   0.45575   0.00000  Uiso   1.00
C322   C     0.81827   0.45625   0.43471   0.00000  Uiso   1.00
C323   C     0.84779   0.50028   0.05634   0.00000  Uiso   1.00
C324   C     0.86782   0.43283   0.06188   0.00000  Uiso   1.00
C325   C     0.81027   0.52735   0.41950   0.00000  Uiso   1.00
H326   H     0.83631   0.52851   0.07397   0.00000  Uiso   1.00
H327   H     0.79354   0.58840   0.41740   0.00000  Uiso   1.00
C328   C     0.99284   0.51142   0.23843   0.00000  Uiso   1.00
C329   C     0.67472   0.48793   0.26260   0.00000  Uiso   1.00
C330   C     0.84732   0.65584   0.23666   0.00000  Uiso   1.00
H331   H     0.87395   0.33727   0.21214   0.00000  Uiso   1.00
C332   C     0.81855   0.34491   0.26342   0.00000  Uiso   1.00
H333   H     0.79142   0.66422   0.28786   0.00000  Uiso   1.00
N334   N     0.98315   0.45216   0.28408   0.00000  Uiso   1.00
O335   O     0.98608   0.44575   0.32386   0.00000  Uiso   1.00
O336   O     0.96664   0.42155   0.26023   0.00000  Uiso   1.00
Br337  Br    0.87893   0.59096   0.02737   0.00000  Uiso   1.00
N338   N     0.81311   0.62842   0.49055   0.00000  Uiso   1.00
O339   O     0.80930   0.65436   0.46323   0.00000  Uiso   1.00
O340   O     0.80696   0.64043   0.03308   0.00000  Uiso   1.00
Br341  Br    0.78220   0.42584   0.39796   0.00000  Uiso   1.00
Br342  Br    0.69649   0.55352   0.20249   0.00000  Uiso   1.00
Zn343  Zn    0.19338   0.80661   0.28734   0.00000  Uiso   1.00
Zn344  Zn    0.13379   0.79124   0.21875   0.00000  Uiso   1.00
Zn345  Zn    0.21056   0.86442   0.20657   0.00000  Uiso   1.00
Zn346  Zn    0.12893   0.87106   0.28733   0.00000  Uiso   1.00
O347   O     0.16667   0.83333   0.25000   0.00000  Uiso   1.00
O348   O     0.07071   0.85544   0.28213   0.00000  Uiso   1.00
O349   O     0.25491   0.81892   0.27013   0.00000  Uiso   1.00
O350   O     0.13760   0.73610   0.23413   0.00000  Uiso   1.00
O351   O     0.20345   0.92286   0.21360   0.00000  Uiso   1.00
O352   O     0.15451   0.79304   0.15458   0.00000  Uiso   1.00
O353   O     0.12940   0.87058   0.34968   0.00000  Uiso   1.00
O354   O     0.20824   0.84425   0.14606   0.00000  Uiso   1.00
O355   O     0.17451   0.82546   0.34968   0.00000  Uiso   1.00
O356   O     0.17930   0.74686   0.28214   0.00000  Uiso   1.00
O357   O     0.14632   0.92751   0.27013   0.00000  Uiso   1.00
O358   O     0.07412   0.79958   0.23413   0.00000  Uiso   1.00
O359   O     0.26693   0.85939   0.21360   0.00000  Uiso   1.00
C360   C     0.05301   0.82606   0.25958   0.00000  Uiso   1.00
C361   C     0.28069   0.84041   0.24021   0.00000  Uiso   1.00
C362   C     0.15620   0.72244   0.26001   0.00000  Uiso   1.00
C363   C     0.17662   0.94452   0.24017   0.00000  Uiso   1.00
C364   C     0.18508   0.81459   0.12937   0.00000  Uiso   1.00
C365   C     0.14806   0.85069   0.37100   0.00000  Uiso   1.00
C366   C     0.19721   0.75370   0.01847   0.00000  Uiso   1.00
H367   H     0.20866   0.74407   0.08144   0.00000  Uiso   1.00
H368   H     0.17036   0.73216   0.44487   0.00000  Uiso   1.00
H369   H     0.20155   0.72194   0.00511   0.00000  Uiso   1.00
C370   C     0.19175   0.80564   0.08123   0.00000  Uiso   1.00
C371   C     0.13778   0.90167   0.43655   0.00000  Uiso   1.00
C372   C     0.15069   0.91876   0.47519   0.00000  Uiso   1.00
C373   C     0.17067   0.89441   0.49635   0.00000  Uiso   1.00
C374   C     0.16813   0.85040   0.48534   0.00000  Uiso   1.00
C375   C     0.15398   0.83332   0.44626   0.00000  Uiso   1.00
C376   C     0.17946   0.82270   0.01145   0.00000  Uiso   1.00
C377   C     0.18410   0.78087   0.49417   0.00000  Uiso   1.00
C378   C     0.17053   0.76503   0.45575   0.00000  Uiso   1.00
C379   C     0.15160   0.78959   0.43471   0.00000  Uiso   1.00
C380   C     0.18112   0.83362   0.05634   0.00000  Uiso   1.00
C381   C     0.20116   0.76617   0.06188   0.00000  Uiso   1.00
C382   C     0.14360   0.86069   0.41950   0.00000  Uiso   1.00
H383   H     0.16965   0.86184   0.07397   0.00000  Uiso   1.00
H384   H     0.12687   0.92174   0.41740   0.00000  Uiso   1.00
C385   C     0.32617   0.84476   0.23843   0.00000  Uiso   1.00
C386   C     0.00806   0.82127   0.26260   0.00000  Uiso   1.00
C387   C     0.18065   0.98917   0.23666   0.00000  Uiso   1.00
H388   H     0.20728   0.67060   0.21214   0.00000  Uiso   1.00
C389   C     0.15188   0.67825   0.26342   0.00000  Uiso   1.00
H390   H     0.12475   0.99755   0.28786   0.00000  Uiso   1.00
N391   N     0.31649   0.78550   0.28408   0.00000  Uiso   1.00
O392   O     0.31942   0.77908   0.32386   0.00000  Uiso   1.00
O393   O     0.29998   0.75489   0.26023   0.00000  Uiso   1.00
Br394  Br    0.21227   0.92429   0.02737   0.00000  Uiso   1.00
N395   N     0.14645   0.96175   0.49055   0.00000  Uiso   1.00
O396   O     0.14264   0.98770   0.46323   0.00000  Uiso   1.00
O397   O     0.14029   0.97377   0.03308   0.00000  Uiso   1.00
Br398  Br    0.11553   0.75917   0.39796   0.00000  Uiso   1.00
Br399  Br    0.02983   0.88685   0.20249   0.00000  Uiso   1.00
Zn400  Zn    0.52672   0.80661   0.28734   0.00000  Uiso   1.00
Zn401  Zn    0.46713   0.79124   0.21875   0.00000  Uiso   1.00
Zn402  Zn    0.54389   0.86442   0.20657   0.00000  Uiso   1.00
Zn403  Zn    0.46226   0.87106   0.28733   0.00000  Uiso   1.00
O404   O     0.50000   0.83333   0.25000   0.00000  Uiso   1.00
O405   O     0.40405   0.85544   0.28213   0.00000  Uiso   1.00
O406   O     0.58824   0.81892   0.27013   0.00000  Uiso   1.00
O407   O     0.47093   0.73610   0.23413   0.00000  Uiso   1.00
O408   O     0.53678   0.92286   0.21360   0.00000  Uiso   1.00
O409   O     0.48784   0.79304   0.15458   0.00000  Uiso   1.00
O410   O     0.46274   0.87058   0.34968   0.00000  Uiso   1.00
O411   O     0.54157   0.84425   0.14606   0.00000  Uiso   1.00
O412   O     0.50785   0.82546   0.34968   0.00000  Uiso   1.00
O413   O     0.51264   0.74686   0.28214   0.00000  Uiso   1.00
O414   O     0.47965   0.92751   0.27013   0.00000  Uiso   1.00
O415   O     0.40745   0.79958   0.23413   0.00000  Uiso   1.00
O416   O     0.60026   0.85939   0.21360   0.00000  Uiso   1.00
C417   C     0.38634   0.82606   0.25958   0.00000  Uiso   1.00
C418   C     0.61403   0.84041   0.24021   0.00000  Uiso   1.00
C419   C     0.48954   0.72244   0.26001   0.00000  Uiso   1.00
C420   C     0.50995   0.94452   0.24017   0.00000  Uiso   1.00
C421   C     0.51842   0.81459   0.12937   0.00000  Uiso   1.00
C422   C     0.48140   0.85069   0.37100   0.00000  Uiso   1.00
C423   C     0.53054   0.75370   0.01847   0.00000  Uiso   1.00
H424   H     0.54200   0.74407   0.08144   0.00000  Uiso   1.00
H425   H     0.50370   0.73216   0.44487   0.00000  Uiso   1.00
H426   H     0.53488   0.72194   0.00511   0.00000  Uiso   1.00
C427   C     0.52508   0.80564   0.08123   0.00000  Uiso   1.00
C428   C     0.47112   0.90167   0.43655   0.00000  Uiso   1.00
C429   C     0.48402   0.91876   0.47519   0.00000  Uiso   1.00
C430   C     0.50401   0.89441   0.49635   0.00000  Uiso   1.00
C431   C     0.50147   0.85040   0.48534   0.00000  Uiso   1.00
C432   C     0.48731   0.83332   0.44626   0.00000  Uiso   1.00
C433   C     0.51279   0.82270   0.01145   0.00000  Uiso   1.00
C434   C     0.51743   0.78087   0.49417   0.00000  Uiso   1.00
C435   C     0.50386   0.76503   0.45575   0.00000  Uiso   1.00
C436   C     0.48493   0.78959   0.43471   0.00000  Uiso   1.00
C437   C     0.51446   0.83362   0.05634   0.00000  Uiso   1.00
C438   C     0.53449   0.76617   0.06188   0.00000  Uiso   1.00
C439   C     0.47694   0.86069   0.41950   0.00000  Uiso   1.00
H440   H     0.50298   0.86184   0.07397   0.00000  Uiso   1.00
H441   H     0.46021   0.92174   0.41740   0.00000  Uiso   1.00
C442   C     0.65950   0.84476   0.23843   0.00000  Uiso   1.00
C443   C     0.34139   0.82127   0.26260   0.00000  Uiso   1.00
C444   C     0.51399   0.98917   0.23666   0.00000  Uiso   1.00
H445   H     0.54062   0.67060   0.21214   0.00000  Uiso   1.00
C446   C     0.48521   0.67825   0.26342   0.00000  Uiso   1.00
H447   H     0.45809   0.99755   0.28786   0.00000  Uiso   1.00
N448   N     0.64982   0.78550   0.28408   0.00000  Uiso   1.00
O449   O     0.65275   0.77908   0.32386   0.00000  Uiso   1.00
O450   O     0.63331   0.75489   0.26023   0.00000  Uiso   1.00
Br451  Br    0.54560   0.92429   0.02737   0.00000  Uiso   1.00
N452   N     0.47978   0.96175   0.49055   0.00000  Uiso   1.00
O453   O     0.47597   0.98770   0.46323   0.00000  Uiso   1.00
O454   O     0.47363   0.97377   0.03308   0.00000  Uiso   1.00
Br455  Br    0.44887   0.75917   0.39796   0.00000  Uiso   1.00
Br456  Br    0.36316   0.88685   0.20249   0.00000  Uiso   1.00
Zn457  Zn    0.86005   0.80661   0.28734   0.00000  Uiso   1.00
Zn458  Zn    0.80046   0.79124   0.21875   0.00000  Uiso   1.00
Zn459  Zn    0.87723   0.86442   0.20657   0.00000  Uiso   1.00
Zn460  Zn    0.79560   0.87106   0.28733   0.00000  Uiso   1.00
O461   O     0.83333   0.83333   0.25000   0.00000  Uiso   1.00
O462   O     0.73738   0.85544   0.28213   0.00000  Uiso   1.00
O463   O     0.92158   0.81892   0.27013   0.00000  Uiso   1.00
O464   O     0.80426   0.73610   0.23413   0.00000  Uiso   1.00
O465   O     0.87012   0.92286   0.21360   0.00000  Uiso   1.00
O466   O     0.82118   0.79304   0.15458   0.00000  Uiso   1.00
O467   O     0.79607   0.87058   0.34968   0.00000  Uiso   1.00
O468   O     0.87491   0.84425   0.14606   0.00000  Uiso   1.00
O469   O     0.84118   0.82546   0.34968   0.00000  Uiso   1.00
O470   O     0.84597   0.74686   0.28214   0.00000  Uiso   1.00
O471   O     0.81298   0.92751   0.27013   0.00000  Uiso   1.00
O472   O     0.74078   0.79958   0.23413   0.00000  Uiso   1.00
O473   O     0.93360   0.85939   0.21360   0.00000  Uiso   1.00
C474   C     0.71967   0.82606   0.25958   0.00000  Uiso   1.00
C475   C     0.94736   0.84041   0.24021   0.00000  Uiso   1.00
C476   C     0.82287   0.72244   0.26001   0.00000  Uiso   1.00
C477   C     0.84328   0.94452   0.24017   0.00000  Uiso   1.00
C478   C     0.85175   0.81459   0.12937   0.00000  Uiso   1.00
C479   C     0.81473   0.85069   0.37100   0.00000  Uiso   1.00
C480   C     0.86387   0.75370   0.01847   0.00000  Uiso   1.00
H481   H     0.87533   0.74407   0.08144   0.00000  Uiso   1.00
H482   H     0.83703   0.73216   0.44487   0.00000  Uiso   1.00
H483   H     0.86821   0.72194   0.00511   0.00000  Uiso   1.00
C484   C     0.85842   0.80564   0.08123   0.00000  Uiso   1.00
C485   C     0.80445   0.90167   0.43655   0.00000  Uiso   1.00
C486   C     0.81736   0.91876   0.47519   0.00000  Uiso   1.00
C487   C     0.83734   0.89441   0.49635   0.00000  Uiso   1.00
C488   C     0.83480   0.85040   0.48534   0.00000  Uiso   1.00
C489   C     0.82065   0.83332   0.44626   0.00000  Uiso   1.00
C490   C     0.84612   0.82270   0.01145   0.00000  Uiso   1.00
C491   C     0.85076   0.78087   0.49417   0.00000  Uiso   1.00
C492   C     0.83719   0.76503   0.45575   0.00000  Uiso   1.00
C493   C     0.81827   0.78959   0.43471   0.00000  Uiso   1.00
C494   C     0.84779   0.83362   0.05634   0.00000  Uiso   1.00
C495   C     0.86782   0.76617   0.06188   0.00000  Uiso   1.00
C496   C     0.81027   0.86069   0.41950   0.00000  Uiso   1.00
H497   H     0.83631   0.86184   0.07397   0.00000  Uiso   1.00
H498   H     0.79354   0.92174   0.41740   0.00000  Uiso   1.00
C499   C     0.99284   0.84476   0.23843   0.00000  Uiso   1.00
C500   C     0.67472   0.82127   0.26260   0.00000  Uiso   1.00
C501   C     0.84732   0.98917   0.23666   0.00000  Uiso   1.00
H502   H     0.87395   0.67060   0.21214   0.00000  Uiso   1.00
C503   C     0.81855   0.67825   0.26342   0.00000  Uiso   1.00
H504   H     0.79142   0.99755   0.28786   0.00000  Uiso   1.00
N505   N     0.98315   0.78550   0.28408   0.00000  Uiso   1.00
O506   O     0.98608   0.77908   0.32386   0.00000  Uiso   1.00
O507   O     0.96664   0.75489   0.26023   0.00000  Uiso   1.00
Br508  Br    0.87893   0.92429   0.02737   0.00000  Uiso   1.00
N509   N     0.81311   0.96175   0.49055   0.00000  Uiso   1.00
O510   O     0.80930   0.98770   0.46323   0.00000  Uiso   1.00
O511   O     0.80696   0.97377   0.03308   0.00000  Uiso   1.00
Br512  Br    0.78220   0.75917   0.39796   0.00000  Uiso   1.00
Br513  Br    0.69649   0.88685   0.20249   0.00000  Uiso   1.00
Zn514  Zn    0.19338   0.13994   0.78734   0.00000  Uiso   1.00
Zn515  Zn    0.13379   0.12458   0.71875   0.00000  Uiso   1.00
Zn516  Zn    0.21056   0.19775   0.70657   0.00000  Uiso   1.00
Zn517  Zn    0.12893   0.20439   0.78733   0.00000  Uiso   1.00
O518   O     0.16667   0.16667   0.75000   0.00000  Uiso   1.00
O519   O     0.07071   0.18878   0.78213   0.00000  Uiso   1.00
O520   O     0.25491   0.15226   0.77013   0.00000  Uiso   1.00
O521   O     0.13760   0.06944   0.73413   0.00000  Uiso   1.00
O522   O     0.20345   0.25620   0.71360   0.00000  Uiso   1.00
O523   O     0.15451   0.12637   0.65458   0.00000  Uiso   1.00
O524   O     0.12940   0.20391   0.84968   0.00000  Uiso   1.00
O525   O     0.20824   0.17759   0.64606   0.00000  Uiso   1.00
O526   O     0.17451   0.15880   0.84968   0.00000  Uiso   1.00
O527   O     0.17930   0.08019   0.78214   0.00000  Uiso   1.00
O528   O     0.14632   0.26085   0.77013   0.00000  Uiso   1.00
O529   O     0.07412   0.13291   0.73413   0.00000  Uiso   1.00
O530   O     0.26693   0.19272   0.71360   0.00000  Uiso   1.00
C531   C     0.05301   0.15940   0.75958   0.00000  Uiso   1.00
C532   C     0.28069   0.17375   0.74021   0.00000  Uiso   1.00
C533   C     0.15620   0.05577   0.76001   0.00000  Uiso   1.00
C534   C     0.17662   0.27785   0.74017   0.00000  Uiso   1.00
C535   C     0.18508   0.14793   0.62937   0.00000  Uiso   1.00
C536   C     0.14806   0.18402   0.87100   0.00000  Uiso   1.00
C537   C     0.19721   0.08704   0.51847   0.00000  Uiso   1.00
H538   H     0.20866   0.07740   0.58144   0.00000  Uiso   1.00
H539   H     0.17036   0.06549   0.94487   0.00000  Uiso   1.00
H540   H     0.20155   0.05527   0.50511   0.00000  Uiso   1.00
C541   C     0.19175   0.13897   0.58123   0.00000  Uiso   1.00
C542   C     0.13778   0.23501   0.93655   0.00000  Uiso   1.00
C543   C     0.15069   0.25209   0.97519   0.00000  Uiso   1.00
C544   C     0.17067   0.22775   0.99635   0.00000  Uiso   1.00
C545   C     0.16813   0.18373   0.98534   0.00000  Uiso   1.00
C546   C     0.15398   0.16665   0.94626   0.00000  Uiso   1.00
C547   C     0.17946   0.15604   0.51145   0.00000  Uiso   1.00
C548   C     0.18410   0.11420   0.99417   0.00000  Uiso   1.00
C549   C     0.17053   0.09836   0.95575   0.00000  Uiso   1.00
C550   C     0.15160   0.12292   0.93471   0.00000  Uiso   1.00
C551   C     0.18112   0.16695   0.55634   0.00000  Uiso   1.00
C552   C     0.20116   0.09950   0.56188   0.00000  Uiso   1.00
C553   C     0.14360   0.19402   0.91950   0.00000  Uiso   1.00
H554   H     0.16965   0.19517   0.57397   0.00000  Uiso   1.00
H555   H     0.12687   0.25507   0.91740   0.00000  Uiso   1.00
C556   C     0.32617   0.17809   0.73843   0.00000  Uiso   1.00
C557   C     0.00806   0.15460   0.76260   0.00000  Uiso   1.00
C558   C     0.18065   0.32251   0.73666   0.00000  Uiso   1.00
H559   H     0.20728   0.00394   0.71214   0.00000  Uiso   1.00
C560   C     0.15188   0.01158   0.76342   0.00000  Uiso   1.00
H561   H     0.12475   0.33088   0.78786   0.00000  Uiso   1.00
N562   N     0.31649   0.11883   0.78408   0.00000  Uiso   1.00
O563   O     0.31942   0.11241   0.82386   0.00000  Uiso   1.00
O564   O     0.29998   0.08822   0.76023   0.00000  Uiso   1.00
Br565  Br    0.21227   0.25762   0.52737   0.00000  Uiso   1.00
N566   N     0.14645   0.29509   0.99055   0.00000  Uiso   1.00
O567   O     0.14264   0.32103   0.96323   0.00000  Uiso   1.00
O568   O     0.14029   0.30710   0.53308   0.00000  Uiso   1.00
Br569  Br    0.11553   0.09251   0.89796   0.00000  Uiso   1.00
Br570  Br    0.02983   0.22019   0.70249   0.00000  Uiso   1.00
Zn571  Zn    0.52672   0.13994   0.78734   0.00000  Uiso   1.00
Zn572  Zn    0.46713   0.12458   0.71875   0.00000  Uiso   1.00
Zn573  Zn    0.54389   0.19775   0.70657   0.00000  Uiso   1.00
Zn574  Zn    0.46226   0.20439   0.78733   0.00000  Uiso   1.00
O575   O     0.50000   0.16667   0.75000   0.00000  Uiso   1.00
O576   O     0.40405   0.18878   0.78213   0.00000  Uiso   1.00
O577   O     0.58824   0.15226   0.77013   0.00000  Uiso   1.00
O578   O     0.47093   0.06944   0.73413   0.00000  Uiso   1.00
O579   O     0.53678   0.25620   0.71360   0.00000  Uiso   1.00
O580   O     0.48784   0.12637   0.65458   0.00000  Uiso   1.00
O581   O     0.46274   0.20391   0.84968   0.00000  Uiso   1.00
O582   O     0.54157   0.17759   0.64606   0.00000  Uiso   1.00
O583   O     0.50785   0.15880   0.84968   0.00000  Uiso   1.00
O584   O     0.51264   0.08019   0.78214   0.00000  Uiso   1.00
O585   O     0.47965   0.26085   0.77013   0.00000  Uiso   1.00
O586   O     0.40745   0.13291   0.73413   0.00000  Uiso   1.00
O587   O     0.60026   0.19272   0.71360   0.00000  Uiso   1.00
C588   C     0.38634   0.15940   0.75958   0.00000  Uiso   1.00
C589   C     0.61403   0.17375   0.74021   0.00000  Uiso   1.00
C590   C     0.48954   0.05577   0.76001   0.00000  Uiso   1.00
C591   C     0.50995   0.27785   0.74017   0.00000  Uiso   1.00
C592   C     0.51842   0.14793   0.62937   0.00000  Uiso   1.00
C593   C     0.48140   0.18402   0.87100   0.00000  Uiso   1.00
C594   C     0.53054   0.08704   0.51847   0.00000  Uiso   1.00
H595   H     0.54200   0.07740   0.58144   0.00000  Uiso   1.00
H596   H     0.50370   0.06549   0.94487   0.00000  Uiso   1.00
H597   H     0.53488   0.05527   0.50511   0.00000  Uiso   1.00
C598   C     0.52508   0.13897   0.58123   0.00000  Uiso   1.00
C599   C     0.47112   0.23501   0.93655   0.00000  Uiso   1.00
C600   C     0.48402   0.25209   0.97519   0.00000  Uiso   1.00
C601   C     0.50401   0.22775   0.99635   0.00000  Uiso   1.00
C602   C     0.50147   0.18373   0.98534   0.00000  Uiso   1.00
C603   C     0.48731   0.16665   0.94626   0.00000  Uiso   1.00
C604   C     0.51279   0.15604   0.51145   0.00000  Uiso   1.00
C605   C     0.51743   0.11420   0.99417   0.00000  Uiso   1.00
C606   C     0.50386   0.09836   0.95575   0.00000  Uiso   1.00
C607   C     0.48493   0.12292   0.93471   0.00000  Uiso   1.00
C608   C     0.51446   0.16695   0.55634   0.00000  Uiso   1.00
C609   C     0.53449   0.09950   0.56188   0.00000  Uiso   1.00
C610   C     0.47694   0.19402   0.91950   0.00000  Uiso   1.00
H611   H     0.50298   0.19517   0.57397   0.00000  Uiso   1.00
H612   H     0.46021   0.25507   0.91740   0.00000  Uiso   1.00
C613   C     0.65950   0.17809   0.73843   0.00000  Uiso   1.00
C614   C     0.34139   0.15460   0.76260   0.00000  Uiso   1.00
C615   C     0.51399   0.32251   0.73666   0.00000  Uiso   1.00
H616   H     0.54062   0.00394   0.71214   0.00000  Uiso   1.00
C617   C     0.48521   0.01158   0.76342   0.00000  Uiso   1.00
H618   H     0.45809   0.33088   0.78786   0.00000  Uiso   1.00
N619   N     0.64982   0.11883   0.78408   0.00000  Uiso   1.00
O620   O     0.65275   0.11241   0.82386   0.00000  Uiso   1.00
O621   O     0.63331   0.08822   0.76023   0.00000  Uiso   1.00
Br622  Br    0.54560   0.25762   0.52737   0.00000  Uiso   1.00
N623   N     0.47978   0.29509   0.99055   0.00000  Uiso   1.00
O624   O     0.47597   0.32103   0.96323   0.00000  Uiso   1.00
O625   O     0.47363   0.30710   0.53308   0.00000  Uiso   1.00
Br626  Br    0.44887   0.09251   0.89796   0.00000  Uiso   1.00
Br627  Br    0.36316   0.22019   0.70249   0.00000  Uiso   1.00
Zn628  Zn    0.86005   0.13994   0.78734   0.00000  Uiso   1.00
Zn629  Zn    0.80046   0.12458   0.71875   0.00000  Uiso   1.00
Zn630  Zn    0.87723   0.19775   0.70657   0.00000  Uiso   1.00
Zn631  Zn    0.79560   0.20439   0.78733   0.00000  Uiso   1.00
O632   O     0.83333   0.16667   0.75000   0.00000  Uiso   1.00
O633   O     0.73738   0.18878   0.78213   0.00000  Uiso   1.00
O634   O     0.92158   0.15226   0.77013   0.00000  Uiso   1.00
O635   O     0.80426   0.06944   0.73413   0.00000  Uiso   1.00
O636   O     0.87012   0.25620   0.71360   0.00000  Uiso   1.00
O637   O     0.82118   0.12637   0.65458   0.00000  Uiso   1.00
O638   O     0.79607   0.20391   0.84968   0.00000  Uiso   1.00
O639   O     0.87491   0.17759   0.64606   0.00000  Uiso   1.00
O640   O     0.84118   0.15880   0.84968   0.00000  Uiso   1.00
O641   O     0.84597   0.08019   0.78214   0.00000  Uiso   1.00
O642   O     0.81298   0.26085   0.77013   0.00000  Uiso   1.00
O643   O     0.74078   0.13291   0.73413   0.00000  Uiso   1.00
O644   O     0.93360   0.19272   0.71360   0.00000  Uiso   1.00
C645   C     0.71967   0.15940   0.75958   0.00000  Uiso   1.00
C646   C     0.94736   0.17375   0.74021   0.00000  Uiso   1.00
C647   C     0.82287   0.05577   0.76001   0.00000  Uiso   1.00
C648   C     0.84328   0.27785   0.74017   0.00000  Uiso   1.00
C649   C     0.85175   0.14793   0.62937   0.00000  Uiso   1.00
C650   C     0.81473   0.18402   0.87100   0.00000  Uiso   1.00
C651   C     0.86387   0.08704   0.51847   0.00000  Uiso   1.00
H652   H     0.87533   0.07740   0.58144   0.00000  Uiso   1.00
H653   H     0.83703   0.06549   0.94487   0.00000  Uiso   1.00
H654   H     0.86821   0.05527   0.50511   0.00000  Uiso   1.00
C655   C     0.85842   0.13897   0.58123   0.00000  Uiso   1.00
C656   C     0.80445   0.23501   0.93655   0.00000  Uiso   1.00
C657   C     0.81736   0.25209   0.97519   0.00000  Uiso   1.00
C658   C     0.83734   0.22775   0.99635   0.00000  Uiso   1.00
C659   C     0.83480   0.18373   0.98534   0.00000  Uiso   1.00
C660   C     0.82065   0.16665   0.94626   0.00000  Uiso   1.00
C661   C     0.84612   0.15604   0.51145   0.00000  Uiso   1.00
C662   C     0.85076   0.11420   0.99417   0.00000  Uiso   1.00
C663   C     0.83719   0.09836   0.95575   0.00000  Uiso   1.00
C664   C     0.81827   0.12292   0.93471   0.00000  Uiso   1.00
C665   C     0.84779   0.16695   0.55634   0.00000  Uiso   1.00
C666   C     0.86782   0.09950   0.56188   0.00000  Uiso   1.00
C667   C     0.81027   0.19402   0.91950   0.00000  Uiso   1.00
H668   H     0.83631   0.19517   0.57397   0.00000  Uiso   1.00
H669   H     0.79354   0.25507   0.91740   0.00000  Uiso   1.00
C670   C     0.99284   0.17809   0.73843   0.00000  Uiso   1.00
C671   C     0.67472   0.15460   0.76260   0.00000  Uiso   1.00
C672   C     0.84732   0.32251   0.73666   0.00000  Uiso   1.00
H673   H     0.87395   0.00394   0.71214   0.00000  Uiso   1.00
C674   C     0.81855   0.01158   0.76342   0.00000  Uiso   1.00
H675   H     0.79142   0.33088   0.78786   0.00000  Uiso   1.00
N676   N     0.98315   0.11883   0.78408   0.00000  Uiso   1.00
O677   O     0.98608   0.11241   0.82386   0.00000  Uiso   1.00
O678   O     0.96664   0.08822   0.76023   0.00000  Uiso   1.00
Br679  Br    0.87893   0.25762   0.52737   0.00000  Uiso   1.00
N680   N     0.81311   0.29509   0.99055   0.00000  Uiso   1.00
O681   O     0.80930   0.32103   0.96323   0.00000  Uiso   1.00
O682   O     0.80696   0.30710   0.53308   0.00000  Uiso   1.00
Br683  Br    0.78220   0.09251   0.89796   0.00000  Uiso   1.00
Br684  Br    0.69649   0.22019   0.70249   0.00000  Uiso   1.00
Zn685  Zn    0.19338   0.47327   0.78734   0.00000  Uiso   1.00
Zn686  Zn    0.13379   0.45791   0.71875   0.00000  Uiso   1.00
Zn687  Zn    0.21056   0.53109   0.70657   0.00000  Uiso   1.00
Zn688  Zn    0.12893   0.53773   0.78733   0.00000  Uiso   1.00
O689   O     0.16667   0.50000   0.75000   0.00000  Uiso   1.00
O690   O     0.07071   0.52211   0.78213   0.00000  Uiso   1.00
O691   O     0.25491   0.48559   0.77013   0.00000  Uiso   1.00
O692   O     0.13760   0.40277   0.73413   0.00000  Uiso   1.00
O693   O     0.20345   0.58953   0.71360   0.00000  Uiso   1.00
O694   O     0.15451   0.45970   0.65458   0.00000  Uiso   1.00
O695   O     0.12940   0.53724   0.84968   0.00000  Uiso   1.00
O696   O     0.20824   0.51092   0.64606   0.00000  Uiso   1.00
O697   O     0.17451   0.49213   0.84968   0.00000  Uiso   1.00
O698   O     0.17930   0.41352   0.78214   0.00000  Uiso   1.00
O699   O     0.14632   0.59418   0.77013   0.00000  Uiso   1.00
O700   O     0.07412   0.46625   0.73413   0.00000  Uiso   1.00
O701   O     0.26693   0.52605   0.71360   0.00000  Uiso   1.00
C702   C     0.05301   0.49273   0.75958   0.00000  Uiso   1.00
C703   C     0.28069   0.50708   0.74021   0.00000  Uiso   1.00
C704   C     0.15620   0.38910   0.76001   0.00000  Uiso   1.00
C705   C     0.17662   0.61119   0.74017   0.00000  Uiso   1.00
C706   C     0.18508   0.48126   0.62937   0.00000  Uiso   1.00
C707   C     0.14806   0.51735   0.87100   0.00000  Uiso   1.00
C708   C     0.19721   0.42037   0.51847   0.00000  Uiso   1.00
H709   H     0.20866   0.41074   0.58144   0.00000  Uiso   1.00
H710   H     0.17036   0.39883   0.94487   0.00000  Uiso   1.00
H711   H     0.20155   0.38860   0.50511   0.00000  Uiso   1.00
C712   C     0.19175   0.47230   0.58123   0.00000  Uiso   1.00
C713   C     0.13778   0.56834   0.93655   0.00000  Uiso   1.00
C714   C     0.15069   0.58542   0.97519   0.00000  Uiso   1.00
C715   C     0.17067   0.56108   0.99635   0.00000  Uiso   1.00
C716   C     0.16813   0.51707   0.98534   0.00000  Uiso   1.00
C717   C     0.15398   0.49998   0.94626   0.00000  Uiso   1.00
C718   C     0.17946   0.48937   0.51145   0.00000  Uiso   1.00
C719   C     0.18410   0.44754   0.99417   0.00000  Uiso   1.00
C720   C     0.17053   0.43169   0.95575   0.00000  Uiso   1.00
C721   C     0.15160   0.45625   0.93471   0.00000  Uiso   1.00
C722   C     0.18112   0.50028   0.55634   0.00000  Uiso   1.00
C723   C     0.20116   0.43283   0.56188   0.00000  Uiso   1.00
C724   C     0.14360   0.52735   0.91950   0.00000  Uiso   1.00
H725   H     0.16965   0.52851   0.57397   0.00000  Uiso   1.00
H726   H     0.12687   0.58840   0.91740   0.00000  Uiso   1.00
C727   C     0.32617   0.51142   0.73843   0.00000  Uiso   1.00
C728   C     0.00806   0.48793   0.76260   0.00000  Uiso   1.00
C729   C     0.18065   0.65584   0.73666   0.00000  Uiso   1.00
H730   H     0.20728   0.33727   0.71214   0.00000  Uiso   1.00
C731   C     0.15188   0.34491   0.76342   0.00000  Uiso   1.00
H732   H     0.12475   0.66422   0.78786   0.00000  Uiso   1.00
N733   N     0.31649   0.45216   0.78408   0.00000  Uiso   1.00
O734   O     0.31942   0.44575   0.82386   0.00000  Uiso   1.00
O735   O     0.29998   0.42155   0.76023   0.00000  Uiso   1.00
Br736  Br    0.21227   0.59096   0.52737   0.00000  Uiso   1.00
N737   N     0.14645   0.62842   0.99055   0.00000  Uiso   1.00
O738   O     0.14264   0.65436   0.96323   0.00000  Uiso   1.00
O739   O     0.14029   0.64043   0.53308   0.00000  Uiso   1.00
Br740  Br    0.11553   0.42584   0.89796   0.00000  Uiso   1.00
Br741  Br    0.02983   0.55352   0.70249   0.00000  Uiso   1.00
Zn742  Zn    0.52672   0.47327   0.78734   0.00000  Uiso   1.00
Zn743  Zn    0.46713   0.45791   0.71875   0.00000  Uiso   1.00
Zn744  Zn    0.54389   0.53109   0.70657   0.00000  Uiso   1.00
Zn745  Zn    0.46226   0.53773   0.78733   0.00000  Uiso   1.00
O746   O     0.50000   0.50000   0.75000   0.00000  Uiso   1.00
O747   O     0.40405   0.52211   0.78213   0.00000  Uiso   1.00
O748   O     0.58824   0.48559   0.77013   0.00000  Uiso   1.00
O749   O     0.47093   0.40277   0.73413   0.00000  Uiso   1.00
O750   O     0.53678   0.58953   0.71360   0.00000  Uiso   1.00
O751   O     0.48784   0.45970   0.65458   0.00000  Uiso   1.00
O752   O     0.46274   0.53724   0.84968   0.00000  Uiso   1.00
O753   O     0.54157   0.51092   0.64606   0.00000  Uiso   1.00
O754   O     0.50785   0.49213   0.84968   0.00000  Uiso   1.00
O755   O     0.51264   0.41352   0.78214   0.00000  Uiso   1.00
O756   O     0.47965   0.59418   0.77013   0.00000  Uiso   1.00
O757   O     0.40745   0.46625   0.73413   0.00000  Uiso   1.00
O758   O     0.60026   0.52605   0.71360   0.00000  Uiso   1.00
C759   C     0.38634   0.49273   0.75958   0.00000  Uiso   1.00
C760   C     0.61403   0.50708   0.74021   0.00000  Uiso   1.00
C761   C     0.48954   0.38910   0.76001   0.00000  Uiso   1.00
C762   C     0.50995   0.61119   0.74017   0.00000  Uiso   1.00
C763   C     0.51842   0.48126   0.62937   0.00000  Uiso   1.00
C764   C     0.48140   0.51735   0.87100   0.00000  Uiso   1.00
C765   C     0.53054   0.42037   0.51847   0.00000  Uiso   1.00
H766   H     0.54200   0.41074   0.58144   0.00000  Uiso   1.00
H767   H     0.50370   0.39883   0.94487   0.00000  Uiso   1.00
H768   H     0.53488   0.38860   0.50511   0.00000  Uiso   1.00
C769   C     0.52508   0.47230   0.58123   0.00000  Uiso   1.00
C770   C     0.47112   0.56834   0.93655   0.00000  Uiso   1.00
C771   C     0.48402   0.58542   0.97519   0.00000  Uiso   1.00
C772   C     0.50401   0.56108   0.99635   0.00000  Uiso   1.00
C773   C     0.50147   0.51707   0.98534   0.00000  Uiso   1.00
C774   C     0.48731   0.49998   0.94626   0.00000  Uiso   1.00
C775   C     0.51279   0.48937   0.51145   0.00000  Uiso   1.00
C776   C     0.51743   0.44754   0.99417   0.00000  Uiso   1.00
C777   C     0.50386   0.43169   0.95575   0.00000  Uiso   1.00
C778   C     0.48493   0.45625   0.93471   0.00000  Uiso   1.00
C779   C     0.51446   0.50028   0.55634   0.00000  Uiso   1.00
C780   C     0.53449   0.43283   0.56188   0.00000  Uiso   1.00
C781   C     0.47694   0.52735   0.91950   0.00000  Uiso   1.00
H782   H     0.50298   0.52851   0.57397   0.00000  Uiso   1.00
H783   H     0.46021   0.58840   0.91740   0.00000  Uiso   1.00
C784   C     0.65950   0.51142   0.73843   0.00000  Uiso   1.00
C785   C     0.34139   0.48793   0.76260   0.00000  Uiso   1.00
C786   C     0.51399   0.65584   0.73666   0.00000  Uiso   1.00
H787   H     0.54062   0.33727   0.71214   0.00000  Uiso   1.00
C788   C     0.48521   0.34491   0.76342   0.00000  Uiso   1.00
H789   H     0.45809   0.66422   0.78786   0.00000  Uiso   1.00
N790   N     0.64982   0.45216   0.78408   0.00000  Uiso   1.00
O791   O     0.65275   0.44575   0.82386   0.00000  Uiso   1.00
O792   O     0.63331   0.42155   0.76023   0.00000  Uiso   1.00
Br793  Br    0.54560   0.59096   0.52737   0.00000  Uiso   1.00
N794   N     0.47978   0.62842   0.99055   0.00000  Uiso   1.00
O795   O     0.47597   0.65436   0.96323   0.00000  Uiso   1.00
O796   O     0.47363   0.64043   0.53308   0.00000  Uiso   1.00
Br797  Br    0.44887   0.42584   0.89796   0.00000  Uiso   1.00
Br798  Br    0.36316   0.55352   0.70249   0.00000  Uiso   1.00
Zn799  Zn    0.86005   0.47327   0.78734   0.00000  Uiso   1.00
Zn800  Zn    0.80046   0.45791   0.71875   0.00000  Uiso   1.00
Zn801  Zn    0.87723   0.53109   0.70657   0.00000  Uiso   1.00
Zn802  Zn    0.79560   0.53773   0.78733   0.00000  Uiso   1.00
O803   O     0.83333   0.50000   0.75000   0.00000  Uiso   1.00
O804   O     0.73738   0.52211   0.78213   0.00000  Uiso   1.00
O805   O     0.92158   0.48559   0.77013   0.00000  Uiso   1.00
O806   O     0.80426   0.40277   0.73413   0.00000  Uiso   1.00
O807   O     0.87012   0.58953   0.71360   0.00000  Uiso   1.00
O808   O     0.82118   0.45970   0.65458   0.00000  Uiso   1.00
O809   O     0.79607   0.53724   0.84968   0.00000  Uiso   1.00
O810   O     0.87491   0.51092   0.64606   0.00000  Uiso   1.00
O811   O     0.84118   0.49213   0.84968   0.00000  Uiso   1.00
O812   O     0.84597   0.41352   0.78214   0.00000  Uiso   1.00
O813   O     0.81298   0.59418   0.77013   0.00000  Uiso   1.00
O814   O     0.74078   0.46625   0.73413   0.00000  Uiso   1.00
O815   O     0.93360   0.52605   0.71360   0.00000  Uiso   1.00
C816   C     0.71967   0.49273   0.75958   0.00000  Uiso   1.00
C817   C     0.94736   0.50708   0.74021   0.00000  Uiso   1.00
C818   C     0.82287   0.38910   0.76001   0.00000  Uiso   1.00
C819   C     0.84328   0.61119   0.74017   0.00000  Uiso   1.00
C820   C     0.85175   0.48126   0.62937   0.00000  Uiso   1.00
C821   C     0.81473   0.51735   0.87100   0.00000  Uiso   1.00
C822   C     0.86387   0.42037   0.51847   0.00000  Uiso   1.00
H823   H     0.87533   0.41074   0.58144   0.00000  Uiso   1.00
H824   H     0.83703   0.39883   0.94487   0.00000  Uiso   1.00
H825   H     0.86821   0.38860   0.50511   0.00000  Uiso   1.00
C826   C     0.85842   0.47230   0.58123   0.00000  Uiso   1.00
C827   C     0.80445   0.56834   0.93655   0.00000  Uiso   1.00
C828   C     0.81736   0.58542   0.97519   0.00000  Uiso   1.00
C829   C     0.83734   0.56108   0.99635   0.00000  Uiso   1.00
C830   C     0.83480   0.51707   0.98534   0.00000  Uiso   1.00
C831   C     0.82065   0.49998   0.94626   0.00000  Uiso   1.00
C832   C     0.84612   0.48937   0.51145   0.00000  Uiso   1.00
C833   C     0.85076   0.44754   0.99417   0.00000  Uiso   1.00
C834   C     0.83719   0.43169   0.95575   0.00000  Uiso   1.00
C835   C     0.81827   0.45625   0.93471   0.00000  Uiso   1.00
C836   C     0.84779   0.50028   0.55634   0.00000  Uiso   1.00
C837   C     0.86782   0.43283   0.56188   0.00000  Uiso   1.00
C838   C     0.81027   0.52735   0.91950   0.00000  Uiso   1.00
H839   H     0.83631   0.52851   0.57397   0.00000  Uiso   1.00
H840   H     0.79354   0.58840   0.91740   0.00000  Uiso   1.00
C841   C     0.99284   0.51142   0.73843   0.00000  Uiso   1.00
C842   C     0.67472   0.48793   0.76260   0.00000  Uiso   1.00
C843   C     0.84732   0.65584   0.73666   0.00000  Uiso   1.00
H844   H     0.87395   0.33727   0.71214   0.00000  Uiso   1.00
C845   C     0.81855   0.34491   0.76342   0.00000  Uiso   1.00
H846   H     0.79142   0.66422   0.78786   0.00000  Uiso   1.00
N847   N     0.98315   0.45216   0.78408   0.00000  Uiso   1.00
O848   O     0.98608   0.44575   0.82386   0.00000  Uiso   1.00
O849   O     0.96664   0.42155   0.76023   0.00000  Uiso   1.00
Br850  Br    0.87893   0.59096   0.52737   0.00000  Uiso   1.00
N851   N     0.81311   0.62842   0.99055   0.00000  Uiso   1.00
O852   O     0.80930   0.65436   0.96323   0.00000  Uiso   1.00
O853   O     0.80696   0.64043   0.53308   0.00000  Uiso   1.00
Br854  Br    0.78220   0.42584   0.89796   0.00000  Uiso   1.00
Br855  Br    0.69649   0.55352   0.70249   0.00000  Uiso   1.00
Zn856  Zn    0.19338   0.80661   0.78734   0.00000  Uiso   1.00
Zn857  Zn    0.13379   0.79124   0.71875   0.00000  Uiso   1.00
Zn858  Zn    0.21056   0.86442   0.70657   0.00000  Uiso   1.00
Zn859  Zn    0.12893   0.87106   0.78733   0.00000  Uiso   1.00
O860   O     0.16667   0.83333   0.75000   0.00000  Uiso   1.00
O861   O     0.07071   0.85544   0.78213   0.00000  Uiso   1.00
O862   O     0.25491   0.81892   0.77013   0.00000  Uiso   1.00
O863   O     0.13760   0.73610   0.73413   0.00000  Uiso   1.00
O864   O     0.20345   0.92286   0.71360   0.00000  Uiso   1.00
O865   O     0.15451   0.79304   0.65458   0.00000  Uiso   1.00
O866   O     0.12940   0.87058   0.84968   0.00000  Uiso   1.00
O867   O     0.20824   0.84425   0.64606   0.00000  Uiso   1.00
O868   O     0.17451   0.82546   0.84968   0.00000  Uiso   1.00
O869   O     0.17930   0.74686   0.78214   0.00000  Uiso   1.00
O870   O     0.14632   0.92751   0.77013   0.00000  Uiso   1.00
O871   O     0.07412   0.79958   0.73413   0.00000  Uiso   1.00
O872   O     0.26693   0.85939   0.71360   0.00000  Uiso   1.00
C873   C     0.05301   0.82606   0.75958   0.00000  Uiso   1.00
C874   C     0.28069   0.84041   0.74021   0.00000  Uiso   1.00
C875   C     0.15620   0.72244   0.76001   0.00000  Uiso   1.00
C876   C     0.17662   0.94452   0.74017   0.00000  Uiso   1.00
C877   C     0.18508   0.81459   0.62937   0.00000  Uiso   1.00
C878   C     0.14806   0.85069   0.87100   0.00000  Uiso   1.00
C879   C     0.19721   0.75370   0.51847   0.00000  Uiso   1.00
H880   H     0.20866   0.74407   0.58144   0.00000  Uiso   1.00
H881   H     0.17036   0.73216   0.94487   0.00000  Uiso   1.00
H882   H     0.20155   0.72194   0.50511   0.00000  Uiso   1.00
C883   C     0.19175   0.80564   0.58123   0.00000  Uiso   1.00
C884   C     0.13778   0.90167   0.93655   0.00000  Uiso   1.00
C885   C     0.15069   0.91876   0.97519   0.00000  Uiso   1.00
C886   C     0.17067   0.89441   0.99635   0.00000  Uiso   1.00
C887   C     0.16813   0.85040   0.98534   0.00000  Uiso   1.00
C888   C     0.15398   0.83332   0.94626   0.00000  Uiso   1.00
C889   C     0.17946   0.82270   0.51145   0.00000  Uiso   1.00
C890   C     0.18410   0.78087   0.99417   0.00000  Uiso   1.00
C891   C     0.17053   0.76503   0.95575   0.00000  Uiso   1.00
C892   C     0.15160   0.78959   0.93471   0.00000  Uiso   1.00
C893   C     0.18112   0.83362   0.55634   0.00000  Uiso   1.00
C894   C     0.20116   0.76617   0.56188   0.00000  Uiso   1.00
C895   C     0.14360   0.86069   0.91950   0.00000  Uiso   1.00
H896   H     0.16965   0.86184   0.57397   0.00000  Uiso   1.00
H897   H     0.12687   0.92174   0.91740   0.00000  Uiso   1.00
C898   C     0.32617   0.84476   0.73843   0.00000  Uiso   1.00
C899   C     0.00806   0.82127   0.76260   0.00000  Uiso   1.00
C900   C     0.18065   0.98917   0.73666   0.00000  Uiso   1.00
H901   H     0.20728   0.67060   0.71214   0.00000  Uiso   1.00
C902   C     0.15188   0.67825   0.76342   0.00000  Uiso   1.00
H903   H     0.12475   0.99755   0.78786   0.00000  Uiso   1.00
N904   N     0.31649   0.78550   0.78408   0.00000  Uiso   1.00
O905   O     0.31942   0.77908   0.82386   0.00000  Uiso   1.00
O906   O     0.29998   0.75489   0.76023   0.00000  Uiso   1.00
Br907  Br    0.21227   0.92429   0.52737   0.00000  Uiso   1.00
N908   N     0.14645   0.96175   0.99055   0.00000  Uiso   1.00
O909   O     0.14264   0.98770   0.96323   0.00000  Uiso   1.00
O910   O     0.14029   0.97377   0.53308   0.00000  Uiso   1.00
Br911  Br    0.11553   0.75917   0.89796   0.00000  Uiso   1.00
Br912  Br    0.02983   0.88685   0.70249   0.00000  Uiso   1.00
Zn913  Zn    0.52672   0.80661   0.78734   0.00000  Uiso   1.00
Zn914  Zn    0.46713   0.79124   0.71875   0.00000  Uiso   1.00
Zn915  Zn    0.54389   0.86442   0.70657   0.00000  Uiso   1.00
Zn916  Zn    0.46226   0.87106   0.78733   0.00000  Uiso   1.00
O917   O     0.50000   0.83333   0.75000   0.00000  Uiso   1.00
O918   O     0.40405   0.85544   0.78213   0.00000  Uiso   1.00
O919   O     0.58824   0.81892   0.77013   0.00000  Uiso   1.00
O920   O     0.47093   0.73610   0.73413   0.00000  Uiso   1.00
O921   O     0.53678   0.92286   0.71360   0.00000  Uiso   1.00
O922   O     0.48784   0.79304   0.65458   0.00000  Uiso   1.00
O923   O     0.46274   0.87058   0.84968   0.00000  Uiso   1.00
O924   O     0.54157   0.84425   0.64606   0.00000  Uiso   1.00
O925   O     0.50785   0.82546   0.84968   0.00000  Uiso   1.00
O926   O     0.51264   0.74686   0.78214   0.00000  Uiso   1.00
O927   O     0.47965   0.92751   0.77013   0.00000  Uiso   1.00
O928   O     0.40745   0.79958   0.73413   0.00000  Uiso   1.00
O929   O     0.60026   0.85939   0.71360   0.00000  Uiso   1.00
C930   C     0.38634   0.82606   0.75958   0.00000  Uiso   1.00
C931   C     0.61403   0.84041   0.74021   0.00000  Uiso   1.00
C932   C     0.48954   0.72244   0.76001   0.00000  Uiso   1.00
C933   C     0.50995   0.94452   0.74017   0.00000  Uiso   1.00
C934   C     0.51842   0.81459   0.62937   0.00000  Uiso   1.00
C935   C     0.48140   0.85069   0.87100   0.00000  Uiso   1.00
C936   C     0.53054   0.75370   0.51847   0.00000  Uiso   1.00
H937   H     0.54200   0.74407   0.58144   0.00000  Uiso   1.00
H938   H     0.50370   0.73216   0.94487   0.00000  Uiso   1.00
H939   H     0.53488   0.72194   0.50511   0.00000  Uiso   1.00
C940   C     0.52508   0.80564   0.58123   0.00000  Uiso   1.00
C941   C     0.47112   0.90167   0.93655   0.00000  Uiso   1.00
C942   C     0.48402   0.91876   0.97519   0.00000  Uiso   1.00
C943   C     0.50401   0.89441   0.99635   0.00000  Uiso   1.00
C944   C     0.50147   0.85040   0.98534   0.00000  Uiso   1.00
C945   C     0.48731   0.83332   0.94626   0.00000  Uiso   1.00
C946   C     0.51279   0.82270   0.51145   0.00000  Uiso   1.00
C947   C     0.51743   0.78087   0.99417   0.00000  Uiso   1.00
C948   C     0.50386   0.76503   0.95575   0.00000  Uiso   1.00
C949   C     0.48493   0.78959   0.93471   0.00000  Uiso   1.00
C950   C     0.51446   0.83362   0.55634   0.00000  Uiso   1.00
C951   C     0.53449   0.76617   0.56188   0.00000  Uiso   1.00
C952   C     0.47694   0.86069   0.91950   0.00000  Uiso   1.00
H953   H     0.50298   0.86184   0.57397   0.00000  Uiso   1.00
H954   H     0.46021   0.92174   0.91740   0.00000  Uiso   1.00
C955   C     0.65950   0.84476   0.73843   0.00000  Uiso   1.00
C956   C     0.34139   0.82127   0.76260   0.00000  Uiso   1.00
C957   C     0.51399   0.98917   0.73666   0.00000  Uiso   1.00
H958   H     0.54062   0.67060   0.71214   0.00000  Uiso   1.00
C959   C     0.48521   0.67825   0.76342   0.00000  Uiso   1.00
H960   H     0.45809   0.99755   0.78786   0.00000  Uiso   1.00
N961   N     0.64982   0.78550   0.78408   0.00000  Uiso   1.00
O962   O     0.65275   0.77908   0.82386   0.00000  Uiso   1.00
O963   O     0.63331   0.75489   0.76023   0.00000  Uiso   1.00
Br964  Br    0.54560   0.92429   0.52737   0.00000  Uiso   1.00
N965   N     0.47978   0.96175   0.99055   0.00000  Uiso   1.00
O966   O     0.47597   0.98770   0.96323   0.00000  Uiso   1.00
O967   O     0.47363   0.97377   0.53308   0.00000  Uiso   1.00
Br968  Br    0.44887   0.75917   0.89796   0.00000  Uiso   1.00
Br969  Br    0.36316   0.88685   0.70249   0.00000  Uiso   1.00
Zn970  Zn    0.86005   0.80661   0.78734   0.00000  Uiso   1.00
Zn971  Zn    0.80046   0.79124   0.71875   0.00000  Uiso   1.00
Zn972  Zn    0.87723   0.86442   0.70657   0.00000  Uiso   1.00
Zn973  Zn    0.79560   0.87106   0.78733   0.00000  Uiso   1.00
O974   O     0.83333   0.83333   0.75000   0.00000  Uiso   1.00
O975   O     0.73738   0.85544   0.78213   0.00000  Uiso   1.00
O976   O     0.92158   0.81892   0.77013   0.00000  Uiso   1.00
O977   O     0.80426   0.73610   0.73413   0.00000  Uiso   1.00
O978   O     0.87012   0.92286   0.71360   0.00000  Uiso   1.00
O979   O     0.82118   0.79304   0.65458   0.00000  Uiso   1.00
O980   O     0.79607   0.87058   0.84968   0.00000  Uiso   1.00
O981   O     0.87491   0.84425   0.64606   0.00000  Uiso   1.00
O982   O     0.84118   0.82546   0.84968   0.00000  Uiso   1.00
O983   O     0.84597   0.74686   0.78214   0.00000  Uiso   1.00
O984   O     0.81298   0.92751   0.77013   0.00000  Uiso   1.00
O985   O     0.74078   0.79958   0.73413   0.00000  Uiso   1.00
O986   O     0.93360   0.85939   0.71360   0.00000  Uiso   1.00
C987   C     0.71967   0.82606   0.75958   0.00000  Uiso   1.00
C988   C     0.94736   0.84041   0.74021   0.00000  Uiso   1.00
C989   C     0.82287   0.72244   0.76001   0.00000  Uiso   1.00
C990   C     0.84328   0.94452   0.74017   0.00000  Uiso   1.00
C991   C     0.85175   0.81459   0.62937   0.00000  Uiso   1.00
C992   C     0.81473   0.85069   0.87100   0.00000  Uiso   1.00
C993   C     0.86387   0.75370   0.51847   0.00000  Uiso   1.00
H994   H     0.87533   0.74407   0.58144   0.00000  Uiso   1.00
H995   H     0.83703   0.73216   0.94487   0.00000  Uiso   1.00
H996   H     0.86821   0.72194   0.50511   0.00000  Uiso   1.00
C997   C     0.85842   0.80564   0.58123   0.00000  Uiso   1.00
C998   C     0.80445   0.90167   0.93655   0.00000  Uiso   1.00
C999   C     0.81736   0.91876   0.97519   0.00000  Uiso   1.00
C1000  C     0.83734   0.89441   0.99635   0.00000  Uiso   1.00
C1001  C     0.83480   0.85040   0.98534   0.00000  Uiso   1.00
C1002  C     0.82065   0.83332   0.94626   0.00000  Uiso   1.00
C1003  C     0.84612   0.82270   0.51145   0.00000  Uiso   1.00
C1004  C     0.85076   0.78087   0.99417   0.00000  Uiso   1.00
C1005  C     0.83719   0.76503   0.95575   0.00000  Uiso   1.00
C1006  C     0.81827   0.78959   0.93471   0.00000  Uiso   1.00
C1007  C     0.84779   0.83362   0.55634   0.00000  Uiso   1.00
C1008  C     0.86782   0.76617   0.56188   0.00000  Uiso   1.00
C1009  C     0.81027   0.86069   0.91950   0.00000  Uiso   1.00
H1010  H     0.83631   0.86184   0.57397   0.00000  Uiso   1.00
H1011  H     0.79354   0.92174   0.91740   0.00000  Uiso   1.00
C1012  C     0.99284   0.84476   0.73843   0.00000  Uiso   1.00
C1013  C     0.67472   0.82127   0.76260   0.00000  Uiso   1.00
C1014  C     0.84732   0.98917   0.73666   0.00000  Uiso   1.00
H1015  H     0.87395   0.67060   0.71214   0.00000  Uiso   1.00
C1016  C     0.81855   0.67825   0.76342   0.00000  Uiso   1.00
H1017  H     0.79142   0.99755   0.78786   0.00000  Uiso   1.00
N1018  N     0.98315   0.78550   0.78408   0.00000  Uiso   1.00
O1019  O     0.98608   0.77908   0.82386   0.00000  Uiso   1.00
O1020  O     0.96664   0.75489   0.76023   0.00000  Uiso   1.00
Br1021 Br    0.87893   0.92429   0.52737   0.00000  Uiso   1.00
N1022  N     0.81311   0.96175   0.99055   0.00000  Uiso   1.00
O1023  O     0.80930   0.98770   0.96323   0.00000  Uiso   1.00
O1024  O     0.80696   0.97377   0.53308   0.00000  Uiso   1.00
Br1025 Br    0.78220   0.75917   0.89796   0.00000  Uiso   1.00
Br1026 Br    0.69649   0.88685   0.70249   0.00000  Uiso   1.00
loop_
_geom_bond_atom_site_label_1
_geom_bond_atom_site_label_2
_geom_bond_distance
_geom_bond_site_symmetry_2
_ccdc_geom_bond_type
Zn1    O5      1.958   .     S
Zn1    O13     1.926   .     S
Zn1    O14     1.925   .     S
Zn1    O7      1.936   .     S
Zn2    O16     1.941   .     S
Zn2    O5      1.933   .     S
Zn2    O10     1.932   .     S
Zn2    O8      1.938   .     S
Zn3    O9      1.932   .     S
Zn3    O12     1.927   .     S
Zn3    O17     1.944   .     S
Zn3    O5      1.942   .     S
Zn4    O15     1.931   .     S
Zn4    O11     1.935   .     S
Zn4    O6      1.936   .     S
Zn4    O5      1.942   .     S
O6     C18     1.272   .     A
O7     C19     1.275   .     A
O8     C20     1.274   .     A
O9     C21     1.277   .     A
O10    C22     1.270   .     A
O11    C23     1.285   .     A
O12    C22     1.277   .     A
O13    C23     1.288   .     A
O14    C20     1.274   .     A
O15    C21     1.276   .     A
O16    C18     1.260   .     A
O17    C19     1.286   .     A
C18    C44     1.434   .     S
C19    C43     1.459   .     S
C20    C47     1.436   .     S
C21    C45     1.453   .     S
C22    C28     1.450   .     S
C23    C40     1.473   .     S
C24    H27     1.084   .     S
C24    C39     1.389   .     A
C24    C548    1.402   1_554 S
H25    C39     1.084   .     S
H26    C36     1.083   .     S
C28    C38     1.392   .     A
C28    C39     1.397   .     A
C29    C30     1.395   .     A
C29    H42     1.083   .     S
C29    C40     1.399   .     A
C30    C31     1.407   .     A
C30    N53     1.440   .     S
C31    C32     1.428   .     A
C31    Br565   1.939   .     S
C32    C33     1.427   .     A
C32    C547    1.423   .     S
C33    C37     1.421   .     A
C33    C40     1.414   .     A
C34    C38     1.406   .     A
C34    C545    1.423   1_554 S
C34    C548    1.419   1_554 S
C35    C36     1.390   .     A
C35    C547    1.419   .     S
C35    C537    1.402   .     S
C36    C37     1.387   .     A
C37    Br56    1.931   .     S
C38    H41     1.080   .     S
C43    C101    1.353   .     S
C43    Br114   1.932   .     S
C44    C157    1.353   1_455 S
C44    N163    1.439   1_455 S
C45    H217    1.088   .     S
C45    C218    1.332   .     S
H46    C387    1.088   1_545 S
C47    C387    1.332   1_545 S
C47    H390    1.086   1_545 S
H48    C218    1.086   .     S
N49    O50     1.301   .     A
N49    O51     1.302   .     A
N49    C101    1.439   .     S
Br52   C544    1.939   1_554 S
N53    O54     1.301   .     A
N53    O568    1.302   .     S
O55    N566    1.302   1_554 S
Br57   C157    1.932   1_455 S
Zn58   O62     1.958   .     S
Zn58   O70     1.926   .     S
Zn58   O71     1.925   .     S
Zn58   O64     1.936   .     S
Zn59   O73     1.941   .     S
Zn59   O62     1.933   .     S
Zn59   O67     1.932   .     S
Zn59   O65     1.938   .     S
Zn60   O66     1.932   .     S
Zn60   O69     1.927   .     S
Zn60   O74     1.944   .     S
Zn60   O62     1.942   .     S
Zn61   O72     1.931   .     S
Zn61   O68     1.935   .     S
Zn61   O63     1.936   .     S
Zn61   O62     1.942   .     S
O63    C75     1.272   .     A
O64    C76     1.275   .     A
O65    C77     1.274   .     A
O66    C78     1.277   .     A
O67    C79     1.270   .     A
O68    C80     1.285   .     A
O69    C79     1.277   .     A
O70    C80     1.288   .     A
O71    C77     1.274   .     A
O72    C78     1.276   .     A
O73    C75     1.260   .     A
O74    C76     1.286   .     A
C75    C101    1.434   .     S
C76    C100    1.459   .     S
C77    C104    1.436   .     S
C78    C102    1.453   .     S
C79    C85     1.450   .     S
C80    C97     1.473   .     S
C81    H84     1.084   .     S
C81    C96     1.389   .     A
C81    C605    1.402   1_554 S
H82    C96     1.084   .     S
H83    C93     1.083   .     S
C85    C95     1.392   .     A
C85    C96     1.397   .     A
C86    C87     1.395   .     A
C86    H99     1.083   .     S
C86    C97     1.399   .     A
C87    C88     1.407   .     A
C87    N110    1.440   .     S
C88    C89     1.428   .     A
C88    Br622   1.939   .     S
C89    C90     1.427   .     A
C89    C604    1.423   .     S
C90    C94     1.421   .     A
C90    C97     1.414   .     A
C91    C95     1.406   .     A
C91    C602    1.423   1_554 S
C91    C605    1.419   1_554 S
C92    C93     1.390   .     A
C92    C604    1.419   .     S
C92    C594    1.402   .     S
C93    C94     1.387   .     A
C94    Br113   1.931   .     S
C95    H98     1.080   .     S
C100   C158    1.353   .     S
C100   Br171   1.932   .     S
C102   H274    1.088   .     S
C102   C275    1.332   .     S
H103   C444    1.088   1_545 S
C104   C444    1.332   1_545 S
C104   H447    1.086   1_545 S
H105   C275    1.086   .     S
N106   O107    1.301   .     A
N106   O108    1.302   .     A
N106   C158    1.439   .     S
Br109  C601    1.939   1_554 S
N110   O111    1.301   .     A
N110   O625    1.302   .     S
O112   N623    1.302   1_554 S
Zn115  O119    1.958   .     S
Zn115  O127    1.926   .     S
Zn115  O128    1.925   .     S
Zn115  O121    1.936   .     S
Zn116  O130    1.941   .     S
Zn116  O119    1.933   .     S
Zn116  O124    1.932   .     S
Zn116  O122    1.938   .     S
Zn117  O123    1.932   .     S
Zn117  O126    1.927   .     S
Zn117  O131    1.944   .     S
Zn117  O119    1.942   .     S
Zn118  O129    1.931   .     S
Zn118  O125    1.935   .     S
Zn118  O120    1.936   .     S
Zn118  O119    1.942   .     S
O120   C132    1.272   .     A
O121   C133    1.275   .     A
O122   C134    1.274   .     A
O123   C135    1.277   .     A
O124   C136    1.270   .     A
O125   C137    1.285   .     A
O126   C136    1.277   .     A
O127   C137    1.288   .     A
O128   C134    1.274   .     A
O129   C135    1.276   .     A
O130   C132    1.260   .     A
O131   C133    1.286   .     A
C132   C158    1.434   .     S
C133   C157    1.459   .     S
C134   C161    1.436   .     S
C135   C159    1.453   .     S
C136   C142    1.450   .     S
C137   C154    1.473   .     S
C138   H141    1.084   .     S
C138   C153    1.389   .     A
C138   C662    1.402   1_554 S
H139   C153    1.084   .     S
H140   C150    1.083   .     S
C142   C152    1.392   .     A
C142   C153    1.397   .     A
C143   C144    1.395   .     A
C143   H156    1.083   .     S
C143   C154    1.399   .     A
C144   C145    1.407   .     A
C144   N167    1.440   .     S
C145   C146    1.428   .     A
C145   Br679   1.939   .     S
C146   C147    1.427   .     A
C146   C661    1.423   .     S
C147   C151    1.421   .     A
C147   C154    1.414   .     A
C148   C152    1.406   .     A
C148   C659    1.423   1_554 S
C148   C662    1.419   1_554 S
C149   C150    1.390   .     A
C149   C661    1.419   .     S
C149   C651    1.402   .     S
C150   C151    1.387   .     A
C151   Br170   1.931   .     S
C152   H155    1.080   .     S
C157   C44     1.353   1_655 S
C157   Br57    1.932   1_655 S
C159   H331    1.088   .     S
C159   C332    1.332   .     S
H160   C501    1.088   1_545 S
C161   C501    1.332   1_545 S
C161   H504    1.086   1_545 S
H162   C332    1.086   .     S
N163   O164    1.301   .     A
N163   O165    1.302   .     A
N163   C44     1.439   1_655 S
Br166  C658    1.939   1_554 S
N167   O168    1.301   .     A
N167   O682    1.302   .     S
O169   N680    1.302   1_554 S
Zn172  O176    1.958   .     S
Zn172  O184    1.926   .     S
Zn172  O185    1.925   .     S
Zn172  O178    1.936   .     S
Zn173  O187    1.941   .     S
Zn173  O176    1.933   .     S
Zn173  O181    1.932   .     S
Zn173  O179    1.938   .     S
Zn174  O180    1.932   .     S
Zn174  O183    1.927   .     S
Zn174  O188    1.944   .     S
Zn174  O176    1.942   .     S
Zn175  O186    1.931   .     S
Zn175  O182    1.935   .     S
Zn175  O177    1.936   .     S
Zn175  O176    1.942   .     S
O177   C189    1.272   .     A
O178   C190    1.275   .     A
O179   C191    1.274   .     A
O180   C192    1.277   .     A
O181   C193    1.270   .     A
O182   C194    1.285   .     A
O183   C193    1.277   .     A
O184   C194    1.288   .     A
O185   C191    1.274   .     A
O186   C192    1.276   .     A
O187   C189    1.260   .     A
O188   C190    1.286   .     A
C189   C215    1.434   .     S
C190   C214    1.459   .     S
C191   C218    1.436   .     S
C192   C216    1.453   .     S
C193   C199    1.450   .     S
C194   C211    1.473   .     S
C195   H198    1.084   .     S
C195   C210    1.389   .     A
C195   C719    1.402   1_554 S
H196   C210    1.084   .     S
H197   C207    1.083   .     S
C199   C209    1.392   .     A
C199   C210    1.397   .     A
C200   C201    1.395   .     A
C200   H213    1.083   .     S
C200   C211    1.399   .     A
C201   C202    1.407   .     A
C201   N224    1.440   .     S
C202   C203    1.428   .     A
C202   Br736   1.939   .     S
C203   C204    1.427   .     A
C203   C718    1.423   .     S
C204   C208    1.421   .     A
C204   C211    1.414   .     A
C205   C209    1.406   .     A
C205   C716    1.423   1_554 S
C205   C719    1.419   1_554 S
C206   C207    1.390   .     A
C206   C718    1.419   .     S
C206   C708    1.402   .     S
C207   C208    1.387   .     A
C208   Br227   1.931   .     S
C209   H212    1.080   .     S
C214   C272    1.353   .     S
C214   Br285   1.932   .     S
C215   C328    1.353   1_455 S
C215   N334    1.439   1_455 S
C216   H388    1.088   .     S
C216   C389    1.332   .     S
H219   C389    1.086   .     S
N220   O221    1.301   .     A
N220   O222    1.302   .     A
N220   C272    1.439   .     S
Br223  C715    1.939   1_554 S
N224   O225    1.301   .     A
N224   O739    1.302   .     S
O226   N737    1.302   1_554 S
Br228  C328    1.932   1_455 S
Zn229  O233    1.958   .     S
Zn229  O241    1.926   .     S
Zn229  O242    1.925   .     S
Zn229  O235    1.936   .     S
Zn230  O244    1.941   .     S
Zn230  O233    1.933   .     S
Zn230  O238    1.932   .     S
Zn230  O236    1.938   .     S
Zn231  O237    1.932   .     S
Zn231  O240    1.927   .     S
Zn231  O245    1.944   .     S
Zn231  O233    1.942   .     S
Zn232  O243    1.931   .     S
Zn232  O239    1.935   .     S
Zn232  O234    1.936   .     S
Zn232  O233    1.942   .     S
O234   C246    1.272   .     A
O235   C247    1.275   .     A
O236   C248    1.274   .     A
O237   C249    1.277   .     A
O238   C250    1.270   .     A
O239   C251    1.285   .     A
O240   C250    1.277   .     A
O241   C251    1.288   .     A
O242   C248    1.274   .     A
O243   C249    1.276   .     A
O244   C246    1.260   .     A
O245   C247    1.286   .     A
C246   C272    1.434   .     S
C247   C271    1.459   .     S
C248   C275    1.436   .     S
C249   C273    1.453   .     S
C250   C256    1.450   .     S
C251   C268    1.473   .     S
C252   H255    1.084   .     S
C252   C267    1.389   .     A
C252   C776    1.402   1_554 S
H253   C267    1.084   .     S
H254   C264    1.083   .     S
C256   C266    1.392   .     A
C256   C267    1.397   .     A
C257   C258    1.395   .     A
C257   H270    1.083   .     S
C257   C268    1.399   .     A
C258   C259    1.407   .     A
C258   N281    1.440   .     S
C259   C260    1.428   .     A
C259   Br793   1.939   .     S
C260   C261    1.427   .     A
C260   C775    1.423   .     S
C261   C265    1.421   .     A
C261   C268    1.414   .     A
C262   C266    1.406   .     A
C262   C773    1.423   1_554 S
C262   C776    1.419   1_554 S
C263   C264    1.390   .     A
C263   C775    1.419   .     S
C263   C765    1.402   .     S
C264   C265    1.387   .     A
C265   Br284   1.931   .     S
C266   H269    1.080   .     S
C271   C329    1.353   .     S
C271   Br342   1.932   .     S
C273   H445    1.088   .     S
C273   C446    1.332   .     S
H276   C446    1.086   .     S
N277   O278    1.301   .     A
N277   O279    1.302   .     A
N277   C329    1.439   .     S
Br280  C772    1.939   1_554 S
N281   O282    1.301   .     A
N281   O796    1.302   .     S
O283   N794    1.302   1_554 S
Zn286  O290    1.958   .     S
Zn286  O298    1.926   .     S
Zn286  O299    1.925   .     S
Zn286  O292    1.936   .     S
Zn287  O301    1.941   .     S
Zn287  O290    1.933   .     S
Zn287  O295    1.932   .     S
Zn287  O293    1.938   .     S
Zn288  O294    1.932   .     S
Zn288  O297    1.927   .     S
Zn288  O302    1.944   .     S
Zn288  O290    1.942   .     S
Zn289  O300    1.931   .     S
Zn289  O296    1.935   .     S
Zn289  O291    1.936   .     S
Zn289  O290    1.942   .     S
O291   C303    1.272   .     A
O292   C304    1.275   .     A
O293   C305    1.274   .     A
O294   C306    1.277   .     A
O295   C307    1.270   .     A
O296   C308    1.285   .     A
O297   C307    1.277   .     A
O298   C308    1.288   .     A
O299   C305    1.274   .     A
O300   C306    1.276   .     A
O301   C303    1.260   .     A
O302   C304    1.286   .     A
C303   C329    1.434   .     S
C304   C328    1.459   .     S
C305   C332    1.436   .     S
C306   C330    1.453   .     S
C307   C313    1.450   .     S
C308   C325    1.473   .     S
C309   H312    1.084   .     S
C309   C324    1.389   .     A
C309   C833    1.402   1_554 S
H310   C324    1.084   .     S
H311   C321    1.083   .     S
C313   C323    1.392   .     A
C313   C324    1.397   .     A
C314   C315    1.395   .     A
C314   H327    1.083   .     S
C314   C325    1.399   .     A
C315   C316    1.407   .     A
C315   N338    1.440   .     S
C316   C317    1.428   .     A
C316   Br850   1.939   .     S
C317   C318    1.427   .     A
C317   C832    1.423   .     S
C318   C322    1.421   .     A
C318   C325    1.414   .     A
C319   C323    1.406   .     A
C319   C830    1.423   1_554 S
C319   C833    1.419   1_554 S
C320   C321    1.390   .     A
C320   C832    1.419   .     S
C320   C822    1.402   .     S
C321   C322    1.387   .     A
C322   Br341   1.931   .     S
C323   H326    1.080   .     S
C328   C215    1.353   1_655 S
C328   Br228   1.932   1_655 S
C330   H502    1.088   .     S
C330   C503    1.332   .     S
H333   C503    1.086   .     S
N334   O335    1.301   .     A
N334   O336    1.302   .     A
N334   C215    1.439   1_655 S
Br337  C829    1.939   1_554 S
N338   O339    1.301   .     A
N338   O853    1.302   .     S
O340   N851    1.302   1_554 S
Zn343  O347    1.958   .     S
Zn343  O355    1.926   .     S
Zn343  O356    1.925   .     S
Zn343  O349    1.936   .     S
Zn344  O358    1.941   .     S
Zn344  O347    1.933   .     S
Zn344  O352    1.932   .     S
Zn344  O350    1.938   .     S
Zn345  O351    1.932   .     S
Zn345  O354    1.927   .     S
Zn345  O359    1.944   .     S
Zn345  O347    1.942   .     S
Zn346  O357    1.931   .     S
Zn346  O353    1.935   .     S
Zn346  O348    1.936   .     S
Zn346  O347    1.942   .     S
O348   C360    1.272   .     A
O349   C361    1.275   .     A
O350   C362    1.274   .     A
O351   C363    1.277   .     A
O352   C364    1.270   .     A
O353   C365    1.285   .     A
O354   C364    1.277   .     A
O355   C365    1.288   .     A
O356   C362    1.274   .     A
O357   C363    1.276   .     A
O358   C360    1.260   .     A
O359   C361    1.286   .     A
C360   C386    1.434   .     S
C361   C385    1.459   .     S
C362   C389    1.436   .     S
C363   C387    1.453   .     S
C364   C370    1.450   .     S
C365   C382    1.473   .     S
C366   H369    1.084   .     S
C366   C381    1.389   .     A
C366   C890    1.402   1_554 S
H367   C381    1.084   .     S
H368   C378    1.083   .     S
C370   C380    1.392   .     A
C370   C381    1.397   .     A
C371   C372    1.395   .     A
C371   H384    1.083   .     S
C371   C382    1.399   .     A
C372   C373    1.407   .     A
C372   N395    1.440   .     S
C373   C374    1.428   .     A
C373   Br907   1.939   .     S
C374   C375    1.427   .     A
C374   C889    1.423   .     S
C375   C379    1.421   .     A
C375   C382    1.414   .     A
C376   C380    1.406   .     A
C376   C887    1.423   1_554 S
C376   C890    1.419   1_554 S
C377   C378    1.390   .     A
C377   C889    1.419   .     S
C377   C879    1.402   .     S
C378   C379    1.387   .     A
C379   Br398   1.931   .     S
C380   H383    1.080   .     S
C385   C443    1.353   .     S
C385   Br456   1.932   .     S
C386   C499    1.353   1_455 S
C386   N505    1.439   1_455 S
C387   H46     1.088   1_565 S
C387   C47     1.332   1_565 S
H390   C47     1.086   1_565 S
N391   O392    1.301   .     A
N391   O393    1.302   .     A
N391   C443    1.439   .     S
Br394  C886    1.939   1_554 S
N395   O396    1.301   .     A
N395   O910    1.302   .     S
O397   N908    1.302   1_554 S
Br399  C499    1.932   1_455 S
Zn400  O404    1.958   .     S
Zn400  O412    1.926   .     S
Zn400  O413    1.925   .     S
Zn400  O406    1.936   .     S
Zn401  O415    1.941   .     S
Zn401  O404    1.933   .     S
Zn401  O409    1.932   .     S
Zn401  O407    1.938   .     S
Zn402  O408    1.932   .     S
Zn402  O411    1.927   .     S
Zn402  O416    1.944   .     S
Zn402  O404    1.942   .     S
Zn403  O414    1.931   .     S
Zn403  O410    1.935   .     S
Zn403  O405    1.936   .     S
Zn403  O404    1.942   .     S
O405   C417    1.272   .     A
O406   C418    1.275   .     A
O407   C419    1.274   .     A
O408   C420    1.277   .     A
O409   C421    1.270   .     A
O410   C422    1.285   .     A
O411   C421    1.277   .     A
O412   C422    1.288   .     A
O413   C419    1.274   .     A
O414   C420    1.276   .     A
O415   C417    1.260   .     A
O416   C418    1.286   .     A
C417   C443    1.434   .     S
C418   C442    1.459   .     S
C419   C446    1.436   .     S
C420   C444    1.453   .     S
C421   C427    1.450   .     S
C422   C439    1.473   .     S
C423   H426    1.084   .     S
C423   C438    1.389   .     A
C423   C947    1.402   1_554 S
H424   C438    1.084   .     S
H425   C435    1.083   .     S
C427   C437    1.392   .     A
C427   C438    1.397   .     A
C428   C429    1.395   .     A
C428   H441    1.083   .     S
C428   C439    1.399   .     A
C429   C430    1.407   .     A
C429   N452    1.440   .     S
C430   C431    1.428   .     A
C430   Br964   1.939   .     S
C431   C432    1.427   .     A
C431   C946    1.423   .     S
C432   C436    1.421   .     A
C432   C439    1.414   .     A
C433   C437    1.406   .     A
C433   C944    1.423   1_554 S
C433   C947    1.419   1_554 S
C434   C435    1.390   .     A
C434   C946    1.419   .     S
C434   C936    1.402   .     S
C435   C436    1.387   .     A
C436   Br455   1.931   .     S
C437   H440    1.080   .     S
C442   C500    1.353   .     S
C442   Br513   1.932   .     S
C444   H103    1.088   1_565 S
C444   C104    1.332   1_565 S
H447   C104    1.086   1_565 S
N448   O449    1.301   .     A
N448   O450    1.302   .     A
N448   C500    1.439   .     S
Br451  C943    1.939   1_554 S
N452   O453    1.301   .     A
N452   O967    1.302   .     S
O454   N965    1.302   1_554 S
Zn457  O461    1.958   .     S
Zn457  O469    1.926   .     S
Zn457  O470    1.925   .     S
Zn457  O463    1.936   .     S
Zn458  O472    1.941   .     S
Zn458  O461    1.933   .     S
Zn458  O466    1.932   .     S
Zn458  O464    1.938   .     S
Zn459  O465    1.932   .     S
Zn459  O468    1.927   .     S
Zn459  O473    1.944   .     S
Zn459  O461    1.942   .     S
Zn460  O471    1.931   .     S
Zn460  O467    1.935   .     S
Zn460  O462    1.936   .     S
Zn460  O461    1.942   .     S
O462   C474    1.272   .     A
O463   C475    1.275   .     A
O464   C476    1.274   .     A
O465   C477    1.277   .     A
O466   C478    1.270   .     A
O467   C479    1.285   .     A
O468   C478    1.277   .     A
O469   C479    1.288   .     A
O470   C476    1.274   .     A
O471   C477    1.276   .     A
O472   C474    1.260   .     A
O473   C475    1.286   .     A
C474   C500    1.434   .     S
C475   C499    1.459   .     S
C476   C503    1.436   .     S
C477   C501    1.453   .     S
C478   C484    1.450   .     S
C479   C496    1.473   .     S
C480   H483    1.084   .     S
C480   C495    1.389   .     A
C480   C1004   1.402   1_554 S
H481   C495    1.084   .     S
H482   C492    1.083   .     S
C484   C494    1.392   .     A
C484   C495    1.397   .     A
C485   C486    1.395   .     A
C485   H498    1.083   .     S
C485   C496    1.399   .     A
C486   C487    1.407   .     A
C486   N509    1.440   .     S
C487   C488    1.428   .     A
C487   Br1021  1.939   .     S
C488   C489    1.427   .     A
C488   C1003   1.423   .     S
C489   C493    1.421   .     A
C489   C496    1.414   .     A
C490   C494    1.406   .     A
C490   C1001   1.423   1_554 S
C490   C1004   1.419   1_554 S
C491   C492    1.390   .     A
C491   C1003   1.419   .     S
C491   C993    1.402   .     S
C492   C493    1.387   .     A
C493   Br512   1.931   .     S
C494   H497    1.080   .     S
C499   C386    1.353   1_655 S
C499   Br399   1.932   1_655 S
C501   H160    1.088   1_565 S
C501   C161    1.332   1_565 S
H504   C161    1.086   1_565 S
N505   O506    1.301   .     A
N505   O507    1.302   .     A
N505   C386    1.439   1_655 S
Br508  C1000   1.939   1_554 S
N509   O510    1.301   .     A
N509   O1024   1.302   .     S
O511   N1022   1.302   1_554 S
Zn514  O518    1.958   .     S
Zn514  O526    1.926   .     S
Zn514  O527    1.925   .     S
Zn514  O520    1.936   .     S
Zn515  O529    1.941   .     S
Zn515  O518    1.933   .     S
Zn515  O523    1.932   .     S
Zn515  O521    1.938   .     S
Zn516  O522    1.932   .     S
Zn516  O525    1.927   .     S
Zn516  O530    1.944   .     S
Zn516  O518    1.942   .     S
Zn517  O528    1.931   .     S
Zn517  O524    1.935   .     S
Zn517  O519    1.936   .     S
Zn517  O518    1.942   .     S
O519   C531    1.272   .     A
O520   C532    1.275   .     A
O521   C533    1.274   .     A
O522   C534    1.277   .     A
O523   C535    1.270   .     A
O524   C536    1.285   .     A
O525   C535    1.277   .     A
O526   C536    1.288   .     A
O527   C533    1.274   .     A
O528   C534    1.276   .     A
O529   C531    1.260   .     A
O530   C532    1.286   .     A
C531   C557    1.434   .     S
C532   C556    1.459   .     S
C533   C560    1.436   .     S
C534   C558    1.453   .     S
C535   C541    1.450   .     S
C536   C553    1.473   .     S
C537   H540    1.084   .     S
C537   C552    1.389   .     A
H538   C552    1.084   .     S
H539   C549    1.083   .     S
C541   C551    1.392   .     A
C541   C552    1.397   .     A
C542   C543    1.395   .     A
C542   H555    1.083   .     S
C542   C553    1.399   .     A
C543   C544    1.407   .     A
C543   N566    1.440   .     S
C544   C545    1.428   .     A
C544   Br52    1.939   1_556 S
C545   C546    1.427   .     A
C545   C34     1.423   1_556 S
C546   C550    1.421   .     A
C546   C553    1.414   .     A
C547   C551    1.406   .     A
C548   C549    1.390   .     A
C548   C34     1.419   1_556 S
C548   C24     1.402   1_556 S
C549   C550    1.387   .     A
C550   Br569   1.931   .     S
C551   H554    1.080   .     S
C556   C614    1.353   .     S
C556   Br627   1.932   .     S
C557   C670    1.353   1_455 S
C557   N676    1.439   1_455 S
C558   H730    1.088   .     S
C558   C731    1.332   .     S
H559   C900    1.088   1_545 S
C560   C900    1.332   1_545 S
C560   H903    1.086   1_545 S
H561   C731    1.086   .     S
N562   O563    1.301   .     A
N562   O564    1.302   .     A
N562   C614    1.439   .     S
N566   O567    1.301   .     A
N566   O55     1.302   1_556 S
Br570  C670    1.932   1_455 S
Zn571  O575    1.958   .     S
Zn571  O583    1.926   .     S
Zn571  O584    1.925   .     S
Zn571  O577    1.936   .     S
Zn572  O586    1.941   .     S
Zn572  O575    1.933   .     S
Zn572  O580    1.932   .     S
Zn572  O578    1.938   .     S
Zn573  O579    1.932   .     S
Zn573  O582    1.927   .     S
Zn573  O587    1.944   .     S
Zn573  O575    1.942   .     S
Zn574  O585    1.931   .     S
Zn574  O581    1.935   .     S
Zn574  O576    1.936   .     S
Zn574  O575    1.942   .     S
O576   C588    1.272   .     A
O577   C589    1.275   .     A
O578   C590    1.274   .     A
O579   C591    1.277   .     A
O580   C592    1.270   .     A
O581   C593    1.285   .     A
O582   C592    1.277   .     A
O583   C593    1.288   .     A
O584   C590    1.274   .     A
O585   C591    1.276   .     A
O586   C588    1.260   .     A
O587   C589    1.286   .     A
C588   C614    1.434   .     S
C589   C613    1.459   .     S
C590   C617    1.436   .     S
C591   C615    1.453   .     S
C592   C598    1.450   .     S
C593   C610    1.473   .     S
C594   H597    1.084   .     S
C594   C609    1.389   .     A
H595   C609    1.084   .     S
H596   C606    1.083   .     S
C598   C608    1.392   .     A
C598   C609    1.397   .     A
C599   C600    1.395   .     A
C599   H612    1.083   .     S
C599   C610    1.399   .     A
C600   C601    1.407   .     A
C600   N623    1.440   .     S
C601   C602    1.428   .     A
C601   Br109   1.939   1_556 S
C602   C603    1.427   .     A
C602   C91     1.423   1_556 S
C603   C607    1.421   .     A
C603   C610    1.414   .     A
C604   C608    1.406   .     A
C605   C606    1.390   .     A
C605   C91     1.419   1_556 S
C605   C81     1.402   1_556 S
C606   C607    1.387   .     A
C607   Br626   1.931   .     S
C608   H611    1.080   .     S
C613   C671    1.353   .     S
C613   Br684   1.932   .     S
C615   H787    1.088   .     S
C615   C788    1.332   .     S
H616   C957    1.088   1_545 S
C617   C957    1.332   1_545 S
C617   H960    1.086   1_545 S
H618   C788    1.086   .     S
N619   O620    1.301   .     A
N619   O621    1.302   .     A
N619   C671    1.439   .     S
N623   O624    1.301   .     A
N623   O112    1.302   1_556 S
Zn628  O632    1.958   .     S
Zn628  O640    1.926   .     S
Zn628  O641    1.925   .     S
Zn628  O634    1.936   .     S
Zn629  O643    1.941   .     S
Zn629  O632    1.933   .     S
Zn629  O637    1.932   .     S
Zn629  O635    1.938   .     S
Zn630  O636    1.932   .     S
Zn630  O639    1.927   .     S
Zn630  O644    1.944   .     S
Zn630  O632    1.942   .     S
Zn631  O642    1.931   .     S
Zn631  O638    1.935   .     S
Zn631  O633    1.936   .     S
Zn631  O632    1.942   .     S
O633   C645    1.272   .     A
O634   C646    1.275   .     A
O635   C647    1.274   .     A
O636   C648    1.277   .     A
O637   C649    1.270   .     A
O638   C650    1.285   .     A
O639   C649    1.277   .     A
O640   C650    1.288   .     A
O641   C647    1.274   .     A
O642   C648    1.276   .     A
O643   C645    1.260   .     A
O644   C646    1.286   .     A
C645   C671    1.434   .     S
C646   C670    1.459   .     S
C647   C674    1.436   .     S
C648   C672    1.453   .     S
C649   C655    1.450   .     S
C650   C667    1.473   .     S
C651   H654    1.084   .     S
C651   C666    1.389   .     A
H652   C666    1.084   .     S
H653   C663    1.083   .     S
C655   C665    1.392   .     A
C655   C666    1.397   .     A
C656   C657    1.395   .     A
C656   H669    1.083   .     S
C656   C667    1.399   .     A
C657   C658    1.407   .     A
C657   N680    1.440   .     S
C658   C659    1.428   .     A
C658   Br166   1.939   1_556 S
C659   C660    1.427   .     A
C659   C148    1.423   1_556 S
C660   C664    1.421   .     A
C660   C667    1.414   .     A
C661   C665    1.406   .     A
C662   C663    1.390   .     A
C662   C148    1.419   1_556 S
C662   C138    1.402   1_556 S
C663   C664    1.387   .     A
C664   Br683   1.931   .     S
C665   H668    1.080   .     S
C670   C557    1.353   1_655 S
C670   Br570   1.932   1_655 S
C672   H844    1.088   .     S
C672   C845    1.332   .     S
H673   C1014   1.088   1_545 S
C674   C1014   1.332   1_545 S
C674   H1017   1.086   1_545 S
H675   C845    1.086   .     S
N676   O677    1.301   .     A
N676   O678    1.302   .     A
N676   C557    1.439   1_655 S
N680   O681    1.301   .     A
N680   O169    1.302   1_556 S
Zn685  O689    1.958   .     S
Zn685  O697    1.926   .     S
Zn685  O698    1.925   .     S
Zn685  O691    1.936   .     S
Zn686  O700    1.941   .     S
Zn686  O689    1.933   .     S
Zn686  O694    1.932   .     S
Zn686  O692    1.938   .     S
Zn687  O693    1.932   .     S
Zn687  O696    1.927   .     S
Zn687  O701    1.944   .     S
Zn687  O689    1.942   .     S
Zn688  O699    1.931   .     S
Zn688  O695    1.935   .     S
Zn688  O690    1.936   .     S
Zn688  O689    1.942   .     S
O690   C702    1.272   .     A
O691   C703    1.275   .     A
O692   C704    1.274   .     A
O693   C705    1.277   .     A
O694   C706    1.270   .     A
O695   C707    1.285   .     A
O696   C706    1.277   .     A
O697   C707    1.288   .     A
O698   C704    1.274   .     A
O699   C705    1.276   .     A
O700   C702    1.260   .     A
O701   C703    1.286   .     A
C702   C728    1.434   .     S
C703   C727    1.459   .     S
C704   C731    1.436   .     S
C705   C729    1.453   .     S
C706   C712    1.450   .     S
C707   C724    1.473   .     S
C708   H711    1.084   .     S
C708   C723    1.389   .     A
H709   C723    1.084   .     S
H710   C720    1.083   .     S
C712   C722    1.392   .     A
C712   C723    1.397   .     A
C713   C714    1.395   .     A
C713   H726    1.083   .     S
C713   C724    1.399   .     A
C714   C715    1.407   .     A
C714   N737    1.440   .     S
C715   C716    1.428   .     A
C715   Br223   1.939   1_556 S
C716   C717    1.427   .     A
C716   C205    1.423   1_556 S
C717   C721    1.421   .     A
C717   C724    1.414   .     A
C718   C722    1.406   .     A
C719   C720    1.390   .     A
C719   C205    1.419   1_556 S
C719   C195    1.402   1_556 S
C720   C721    1.387   .     A
C721   Br740   1.931   .     S
C722   H725    1.080   .     S
C727   C785    1.353   .     S
C727   Br798   1.932   .     S
C728   C841    1.353   1_455 S
C728   N847    1.439   1_455 S
C729   H901    1.088   .     S
C729   C902    1.332   .     S
H732   C902    1.086   .     S
N733   O734    1.301   .     A
N733   O735    1.302   .     A
N733   C785    1.439   .     S
N737   O738    1.301   .     A
N737   O226    1.302   1_556 S
Br741  C841    1.932   1_455 S
Zn742  O746    1.958   .     S
Zn742  O754    1.926   .     S
Zn742  O755    1.925   .     S
Zn742  O748    1.936   .     S
Zn743  O757    1.941   .     S
Zn743  O746    1.933   .     S
Zn743  O751    1.932   .     S
Zn743  O749    1.938   .     S
Zn744  O750    1.932   .     S
Zn744  O753    1.927   .     S
Zn744  O758    1.944   .     S
Zn744  O746    1.942   .     S
Zn745  O756    1.931   .     S
Zn745  O752    1.935   .     S
Zn745  O747    1.936   .     S
Zn745  O746    1.942   .     S
O747   C759    1.272   .     A
O748   C760    1.275   .     A
O749   C761    1.274   .     A
O750   C762    1.277   .     A
O751   C763    1.270   .     A
O752   C764    1.285   .     A
O753   C763    1.277   .     A
O754   C764    1.288   .     A
O755   C761    1.274   .     A
O756   C762    1.276   .     A
O757   C759    1.260   .     A
O758   C760    1.286   .     A
C759   C785    1.434   .     S
C760   C784    1.459   .     S
C761   C788    1.436   .     S
C762   C786    1.453   .     S
C763   C769    1.450   .     S
C764   C781    1.473   .     S
C765   H768    1.084   .     S
C765   C780    1.389   .     A
H766   C780    1.084   .     S
H767   C777    1.083   .     S
C769   C779    1.392   .     A
C769   C780    1.397   .     A
C770   C771    1.395   .     A
C770   H783    1.083   .     S
C770   C781    1.399   .     A
C771   C772    1.407   .     A
C771   N794    1.440   .     S
C772   C773    1.428   .     A
C772   Br280   1.939   1_556 S
C773   C774    1.427   .     A
C773   C262    1.423   1_556 S
C774   C778    1.421   .     A
C774   C781    1.414   .     A
C775   C779    1.406   .     A
C776   C777    1.390   .     A
C776   C262    1.419   1_556 S
C776   C252    1.402   1_556 S
C777   C778    1.387   .     A
C778   Br797   1.931   .     S
C779   H782    1.080   .     S
C784   C842    1.353   .     S
C784   Br855   1.932   .     S
C786   H958    1.088   .     S
C786   C959    1.332   .     S
H789   C959    1.086   .     S
N790   O791    1.301   .     A
N790   O792    1.302   .     A
N790   C842    1.439   .     S
N794   O795    1.301   .     A
N794   O283    1.302   1_556 S
Zn799  O803    1.958   .     S
Zn799  O811    1.926   .     S
Zn799  O812    1.925   .     S
Zn799  O805    1.936   .     S
Zn800  O814    1.941   .     S
Zn800  O803    1.933   .     S
Zn800  O808    1.932   .     S
Zn800  O806    1.938   .     S
Zn801  O807    1.932   .     S
Zn801  O810    1.927   .     S
Zn801  O815    1.944   .     S
Zn801  O803    1.942   .     S
Zn802  O813    1.931   .     S
Zn802  O809    1.935   .     S
Zn802  O804    1.936   .     S
Zn802  O803    1.942   .     S
O804   C816    1.272   .     A
O805   C817    1.275   .     A
O806   C818    1.274   .     A
O807   C819    1.277   .     A
O808   C820    1.270   .     A
O809   C821    1.285   .     A
O810   C820    1.277   .     A
O811   C821    1.288   .     A
O812   C818    1.274   .     A
O813   C819    1.276   .     A
O814   C816    1.260   .     A
O815   C817    1.286   .     A
C816   C842    1.434   .     S
C817   C841    1.459   .     S
C818   C845    1.436   .     S
C819   C843    1.453   .     S
C820   C826    1.450   .     S
C821   C838    1.473   .     S
C822   H825    1.084   .     S
C822   C837    1.389   .     A
H823   C837    1.084   .     S
H824   C834    1.083   .     S
C826   C836    1.392   .     A
C826   C837    1.397   .     A
C827   C828    1.395   .     A
C827   H840    1.083   .     S
C827   C838    1.399   .     A
C828   C829    1.407   .     A
C828   N851    1.440   .     S
C829   C830    1.428   .     A
C829   Br337   1.939   1_556 S
C830   C831    1.427   .     A
C830   C319    1.423   1_556 S
C831   C835    1.421   .     A
C831   C838    1.414   .     A
C832   C836    1.406   .     A
C833   C834    1.390   .     A
C833   C319    1.419   1_556 S
C833   C309    1.402   1_556 S
C834   C835    1.387   .     A
C835   Br854   1.931   .     S
C836   H839    1.080   .     S
C841   C728    1.353   1_655 S
C841   Br741   1.932   1_655 S
C843   H1015   1.088   .     S
C843   C1016   1.332   .     S
H846   C1016   1.086   .     S
N847   O848    1.301   .     A
N847   O849    1.302   .     A
N847   C728    1.439   1_655 S
N851   O852    1.301   .     A
N851   O340    1.302   1_556 S
Zn856  O860    1.958   .     S
Zn856  O868    1.926   .     S
Zn856  O869    1.925   .     S
Zn856  O862    1.936   .     S
Zn857  O871    1.941   .     S
Zn857  O860    1.933   .     S
Zn857  O865    1.932   .     S
Zn857  O863    1.938   .     S
Zn858  O864    1.932   .     S
Zn858  O867    1.927   .     S
Zn858  O872    1.944   .     S
Zn858  O860    1.942   .     S
Zn859  O870    1.931   .     S
Zn859  O866    1.935   .     S
Zn859  O861    1.936   .     S
Zn859  O860    1.942   .     S
O861   C873    1.272   .     A
O862   C874    1.275   .     A
O863   C875    1.274   .     A
O864   C876    1.277   .     A
O865   C877    1.270   .     A
O866   C878    1.285   .     A
O867   C877    1.277   .     A
O868   C878    1.288   .     A
O869   C875    1.274   .     A
O870   C876    1.276   .     A
O871   C873    1.260   .     A
O872   C874    1.286   .     A
C873   C899    1.434   .     S
C874   C898    1.459   .     S
C875   C902    1.436   .     S
C876   C900    1.453   .     S
C877   C883    1.450   .     S
C878   C895    1.473   .     S
C879   H882    1.084   .     S
C879   C894    1.389   .     A
H880   C894    1.084   .     S
H881   C891    1.083   .     S
C883   C893    1.392   .     A
C883   C894    1.397   .     A
C884   C885    1.395   .     A
C884   H897    1.083   .     S
C884   C895    1.399   .     A
C885   C886    1.407   .     A
C885   N908    1.440   .     S
C886   C887    1.428   .     A
C886   Br394   1.939   1_556 S
C887   C888    1.427   .     A
C887   C376    1.423   1_556 S
C888   C892    1.421   .     A
C888   C895    1.414   .     A
C889   C893    1.406   .     A
C890   C891    1.390   .     A
C890   C376    1.419   1_556 S
C890   C366    1.402   1_556 S
C891   C892    1.387   .     A
C892   Br911   1.931   .     S
C893   H896    1.080   .     S
C898   C956    1.353   .     S
C898   Br969   1.932   .     S
C899   C1012   1.353   1_455 S
C899   N1018   1.439   1_455 S
C900   H559    1.088   1_565 S
C900   C560    1.332   1_565 S
H903   C560    1.086   1_565 S
N904   O905    1.301   .     A
N904   O906    1.302   .     A
N904   C956    1.439   .     S
N908   O909    1.301   .     A
N908   O397    1.302   1_556 S
Br912  C1012   1.932   1_455 S
Zn913  O917    1.958   .     S
Zn913  O925    1.926   .     S
Zn913  O926    1.925   .     S
Zn913  O919    1.936   .     S
Zn914  O928    1.941   .     S
Zn914  O917    1.933   .     S
Zn914  O922    1.932   .     S
Zn914  O920    1.938   .     S
Zn915  O921    1.932   .     S
Zn915  O924    1.927   .     S
Zn915  O929    1.944   .     S
Zn915  O917    1.942   .     S
Zn916  O927    1.931   .     S
Zn916  O923    1.935   .     S
Zn916  O918    1.936   .     S
Zn916  O917    1.942   .     S
O918   C930    1.272   .     A
O919   C931    1.275   .     A
O920   C932    1.274   .     A
O921   C933    1.277   .     A
O922   C934    1.270   .     A
O923   C935    1.285   .     A
O924   C934    1.277   .     A
O925   C935    1.288   .     A
O926   C932    1.274   .     A
O927   C933    1.276   .     A
O928   C930    1.260   .     A
O929   C931    1.286   .     A
C930   C956    1.434   .     S
C931   C955    1.459   .     S
C932   C959    1.436   .     S
C933   C957    1.453   .     S
C934   C940    1.450   .     S
C935   C952    1.473   .     S
C936   H939    1.084   .     S
C936   C951    1.389   .     A
H937   C951    1.084   .     S
H938   C948    1.083   .     S
C940   C950    1.392   .     A
C940   C951    1.397   .     A
C941   C942    1.395   .     A
C941   H954    1.083   .     S
C941   C952    1.399   .     A
C942   C943    1.407   .     A
C942   N965    1.440   .     S
C943   C944    1.428   .     A
C943   Br451   1.939   1_556 S
C944   C945    1.427   .     A
C944   C433    1.423   1_556 S
C945   C949    1.421   .     A
C945   C952    1.414   .     A
C946   C950    1.406   .     A
C947   C948    1.390   .     A
C947   C433    1.419   1_556 S
C947   C423    1.402   1_556 S
C948   C949    1.387   .     A
C949   Br968   1.931   .     S
C950   H953    1.080   .     S
C955   C1013   1.353   .     S
C955   Br1026  1.932   .     S
C957   H616    1.088   1_565 S
C957   C617    1.332   1_565 S
H960   C617    1.086   1_565 S
N961   O962    1.301   .     A
N961   O963    1.302   .     A
N961   C1013   1.439   .     S
N965   O966    1.301   .     A
N965   O454    1.302   1_556 S
Zn970  O974    1.958   .     S
Zn970  O982    1.926   .     S
Zn970  O983    1.925   .     S
Zn970  O976    1.936   .     S
Zn971  O985    1.941   .     S
Zn971  O974    1.933   .     S
Zn971  O979    1.932   .     S
Zn971  O977    1.938   .     S
Zn972  O978    1.932   .     S
Zn972  O981    1.927   .     S
Zn972  O986    1.944   .     S
Zn972  O974    1.942   .     S
Zn973  O984    1.931   .     S
Zn973  O980    1.935   .     S
Zn973  O975    1.936   .     S
Zn973  O974    1.942   .     S
O975   C987    1.272   .     A
O976   C988    1.275   .     A
O977   C989    1.274   .     A
O978   C990    1.277   .     A
O979   C991    1.270   .     A
O980   C992    1.285   .     A
O981   C991    1.277   .     A
O982   C992    1.288   .     A
O983   C989    1.274   .     A
O984   C990    1.276   .     A
O985   C987    1.260   .     A
O986   C988    1.286   .     A
C987   C1013   1.434   .     S
C988   C1012   1.459   .     S
C989   C1016   1.436   .     S
C990   C1014   1.453   .     S
C991   C997    1.450   .     S
C992   C1009   1.473   .     S
C993   H996    1.084   .     S
C993   C1008   1.389   .     A
H994   C1008   1.084   .     S
H995   C1005   1.083   .     S
C997   C1007   1.392   .     A
C997   C1008   1.397   .     A
C998   C999    1.395   .     A
C998   H1011   1.083   .     S
C998   C1009   1.399   .     A
C999   C1000   1.407   .     A
C999   N1022   1.440   .     S
C1000  C1001   1.428   .     A
C1000  Br508   1.939   1_556 S
C1001  C1002   1.427   .     A
C1001  C490    1.423   1_556 S
C1002  C1006   1.421   .     A
C1002  C1009   1.414   .     A
C1003  C1007   1.406   .     A
C1004  C1005   1.390   .     A
C1004  C490    1.419   1_556 S
C1004  C480    1.402   1_556 S
C1005  C1006   1.387   .     A
C1006  Br1025  1.931   .     S
C1007  H1010   1.080   .     S
C1012  C899    1.353   1_655 S
C1012  Br912   1.932   1_655 S
C1014  H673    1.088   1_565 S
C1014  C674    1.332   1_565 S
H1017  C674    1.086   1_565 S
N1018  O1019   1.301   .     A
N1018  O1020   1.302   .     A
N1018  C899    1.439   1_655 S
N1022  O1023   1.301   .     A
N1022  O511    1.302   1_556 S
