data_str_m1_o1_o17_pcu_sym.91
_audit_creation_date              2020-01-03
_audit_creation_method            'Materials Studio'
_symmetry_space_group_name_H-M    'P1'
_symmetry_Int_Tables_number       1
_symmetry_cell_setting            triclinic
loop_
_symmetry_equiv_pos_as_xyz
  x,y,z
_cell_length_a                    36.7682
_cell_length_b                    36.7657
_cell_length_c                    34.3580
_cell_angle_alpha                 89.8934
_cell_angle_beta                  90.1974
_cell_angle_gamma                 90.3295
loop_
_atom_site_label
_atom_site_type_symbol
_atom_site_fract_x
_atom_site_fract_y
_atom_site_fract_z
_atom_site_U_iso_or_equiv
_atom_site_adp_type
_atom_site_occupancy
Br1    Br    0.07985   0.17202   0.45325   0.00000  Uiso   1.00
Br2    Br    0.17015   0.07798   0.04675   0.00000  Uiso   1.00
Br3    Br    0.07888   0.17056   0.95424   0.00000  Uiso   1.00
Br4    Br    0.42112   0.32944   0.04576   0.00000  Uiso   1.00
Br5    Br    0.16996   0.07780   0.95231   0.00000  Uiso   1.00
Br6    Br    0.33004   0.42220   0.04769   0.00000  Uiso   1.00
Br7    Br    0.42072   0.32782   0.95118   0.00000  Uiso   1.00
Br8    Br    0.07928   0.17218   0.04882   0.00000  Uiso   1.00
Br9    Br    0.42015   0.32798   0.54675   0.00000  Uiso   1.00
Br10   Br    0.32888   0.42056   0.45424   0.00000  Uiso   1.00
Br11   Br    0.17112   0.07944   0.54576   0.00000  Uiso   1.00
Br12   Br    0.41996   0.32780   0.45231   0.00000  Uiso   1.00
Br13   Br    0.08004   0.17220   0.54769   0.00000  Uiso   1.00
Br14   Br    0.17072   0.07782   0.45118   0.00000  Uiso   1.00
Br15   Br    0.32928   0.42218   0.54882   0.00000  Uiso   1.00
Br16   Br    0.32985   0.42202   0.95325   0.00000  Uiso   1.00
C17    C     0.48714   0.28067   0.41829   0.00000  Uiso   1.00
C18    C     0.26286   0.46933   0.08171   0.00000  Uiso   1.00
C19    C     0.22184   0.01815   0.54068   0.00000  Uiso   1.00
C20    C     0.48186   0.27797   0.45888   0.00000  Uiso   1.00
C21    C     0.01814   0.22203   0.54112   0.00000  Uiso   1.00
C22    C     0.22158   0.01707   0.45878   0.00000  Uiso   1.00
C23    C     0.27842   0.48293   0.54122   0.00000  Uiso   1.00
C24    C     0.26813   0.47202   0.95916   0.00000  Uiso   1.00
C25    C     0.23187   0.02798   0.04084   0.00000  Uiso   1.00
C26    C     0.02816   0.23185   0.95932   0.00000  Uiso   1.00
C27    C     0.47184   0.26815   0.04068   0.00000  Uiso   1.00
C28    C     0.23186   0.02797   0.95888   0.00000  Uiso   1.00
C29    C     0.46872   0.26110   0.91834   0.00000  Uiso   1.00
C30    C     0.26814   0.47203   0.04112   0.00000  Uiso   1.00
C31    C     0.47158   0.26707   0.95878   0.00000  Uiso   1.00
C32    C     0.02842   0.23293   0.04122   0.00000  Uiso   1.00
C33    C     0.09795   0.34824   0.25001   0.00000  Uiso   1.00
C34    C     0.40205   0.15176   0.74999   0.00000  Uiso   1.00
C35    C     0.15126   0.09749   0.25055   0.00000  Uiso   1.00
C36    C     0.34874   0.40251   0.74945   0.00000  Uiso   1.00
C37    C     0.40189   0.15193   0.25001   0.00000  Uiso   1.00
C38    C     0.09811   0.34807   0.74999   0.00000  Uiso   1.00
C39    C     0.34783   0.40165   0.25047   0.00000  Uiso   1.00
C40    C     0.03129   0.23890   0.08166   0.00000  Uiso   1.00
C41    C     0.15217   0.09836   0.74953   0.00000  Uiso   1.00
C42    C     0.09783   0.15165   0.75047   0.00000  Uiso   1.00
C43    C     0.40217   0.34836   0.24953   0.00000  Uiso   1.00
C44    C     0.15189   0.40193   0.75001   0.00000  Uiso   1.00
C45    C     0.34811   0.09807   0.24999   0.00000  Uiso   1.00
C46    C     0.40126   0.34749   0.75055   0.00000  Uiso   1.00
C47    C     0.09874   0.15251   0.24945   0.00000  Uiso   1.00
C48    C     0.34795   0.09824   0.75001   0.00000  Uiso   1.00
C49    C     0.15205   0.40176   0.24999   0.00000  Uiso   1.00
C50    C     0.00001   0.25001   0.47951   0.00000  Uiso   1.00
C51    C     0.26277   0.46923   0.91857   0.00000  Uiso   1.00
C52    C     0.49999   0.24999   0.52049   0.00000  Uiso   1.00
C53    C     0.24996   0.49976   0.47953   0.00000  Uiso   1.00
C54    C     0.25004   0.00024   0.52047   0.00000  Uiso   1.00
C55    C     0.25001   0.00001   0.97951   0.00000  Uiso   1.00
C56    C     0.24999   0.49999   0.02049   0.00000  Uiso   1.00
C57    C     0.49996   0.24976   0.97953   0.00000  Uiso   1.00
C58    C     0.00004   0.25025   0.02047   0.00000  Uiso   1.00
C59    C     0.15697   0.39896   0.17704   0.00000  Uiso   1.00
C60    C     0.34303   0.10104   0.82296   0.00000  Uiso   1.00
C61    C     0.07567   0.12930   0.18408   0.00000  Uiso   1.00
C62    C     0.23723   0.03077   0.08143   0.00000  Uiso   1.00
C63    C     0.42434   0.37070   0.81592   0.00000  Uiso   1.00
C64    C     0.34015   0.10364   0.17764   0.00000  Uiso   1.00
C65    C     0.15986   0.39636   0.82236   0.00000  Uiso   1.00
C66    C     0.44618   0.39072   0.28296   0.00000  Uiso   1.00
C67    C     0.05382   0.10928   0.71704   0.00000  Uiso   1.00
C68    C     0.10841   0.05247   0.72082   0.00000  Uiso   1.00
C69    C     0.39159   0.44753   0.27918   0.00000  Uiso   1.00
C70    C     0.10403   0.33981   0.82227   0.00000  Uiso   1.00
C71    C     0.39597   0.16019   0.17772   0.00000  Uiso   1.00
C72    C     0.37297   0.42587   0.81431   0.00000  Uiso   1.00
C73    C     0.03074   0.23694   0.91867   0.00000  Uiso   1.00
C74    C     0.12703   0.07413   0.18569   0.00000  Uiso   1.00
C75    C     0.39983   0.15604   0.82287   0.00000  Uiso   1.00
C76    C     0.10017   0.34396   0.17713   0.00000  Uiso   1.00
C77    C     0.40697   0.14896   0.67704   0.00000  Uiso   1.00
C78    C     0.09303   0.35104   0.32296   0.00000  Uiso   1.00
C79    C     0.32566   0.37930   0.68408   0.00000  Uiso   1.00
C80    C     0.17434   0.12070   0.31592   0.00000  Uiso   1.00
C81    C     0.09014   0.35364   0.67764   0.00000  Uiso   1.00
C82    C     0.40985   0.14636   0.32236   0.00000  Uiso   1.00
C83    C     0.19618   0.14072   0.78296   0.00000  Uiso   1.00
C84    C     0.46926   0.26306   0.08133   0.00000  Uiso   1.00
C85    C     0.30382   0.35928   0.21704   0.00000  Uiso   1.00
C86    C     0.35841   0.30247   0.22082   0.00000  Uiso   1.00
C87    C     0.14159   0.19753   0.77918   0.00000  Uiso   1.00
C88    C     0.35403   0.08981   0.32227   0.00000  Uiso   1.00
C89    C     0.14597   0.41019   0.67772   0.00000  Uiso   1.00
C90    C     0.12297   0.17587   0.31431   0.00000  Uiso   1.00
C91    C     0.37703   0.32413   0.68569   0.00000  Uiso   1.00
C92    C     0.14983   0.40604   0.32287   0.00000  Uiso   1.00
C93    C     0.35017   0.09396   0.67713   0.00000  Uiso   1.00
C94    C     0.48436   0.31668   0.39838   0.00000  Uiso   1.00
C95    C     0.00009   0.24999   0.39809   0.00000  Uiso   1.00
C96    C     0.01564   0.18332   0.60162   0.00000  Uiso   1.00
C97    C     0.18216   0.01079   0.39913   0.00000  Uiso   1.00
C98    C     0.31784   0.48921   0.60087   0.00000  Uiso   1.00
C99    C     0.01473   0.18300   0.39912   0.00000  Uiso   1.00
C100   C     0.48527   0.31700   0.60088   0.00000  Uiso   1.00
C101   C     0.31663   0.48400   0.39890   0.00000  Uiso   1.00
C102   C     0.18337   0.01600   0.60110   0.00000  Uiso   1.00
C103   C     0.23436   0.06668   0.89838   0.00000  Uiso   1.00
C104   C     0.26564   0.43332   0.10162   0.00000  Uiso   1.00
C105   C     0.43216   0.26079   0.89913   0.00000  Uiso   1.00
C106   C     0.49991   0.25001   0.60191   0.00000  Uiso   1.00
C107   C     0.06784   0.23921   0.10087   0.00000  Uiso   1.00
C108   C     0.26473   0.43301   0.89912   0.00000  Uiso   1.00
C109   C     0.23527   0.06700   0.10088   0.00000  Uiso   1.00
C110   C     0.06663   0.23400   0.89890   0.00000  Uiso   1.00
C111   C     0.43337   0.26600   0.10110   0.00000  Uiso   1.00
C112   C     0.24992   0.49950   0.39813   0.00000  Uiso   1.00
C113   C     0.01286   0.21933   0.58171   0.00000  Uiso   1.00
C114   C     0.25008   0.00050   0.60187   0.00000  Uiso   1.00
C115   C     0.25009   0.49999   0.89809   0.00000  Uiso   1.00
C116   C     0.24991   0.00001   0.10191   0.00000  Uiso   1.00
C117   C     0.49992   0.24950   0.89813   0.00000  Uiso   1.00
C118   C     0.00008   0.25050   0.10187   0.00000  Uiso   1.00
C119   C     0.04193   0.19867   0.47985   0.00000  Uiso   1.00
C120   C     0.45807   0.30133   0.52015   0.00000  Uiso   1.00
C121   C     0.30192   0.45863   0.48026   0.00000  Uiso   1.00
C122   C     0.19808   0.04137   0.51974   0.00000  Uiso   1.00
C123   C     0.45804   0.30131   0.47927   0.00000  Uiso   1.00
C124   C     0.21872   0.01110   0.41834   0.00000  Uiso   1.00
C125   C     0.04196   0.19869   0.52073   0.00000  Uiso   1.00
C126   C     0.19794   0.04077   0.47886   0.00000  Uiso   1.00
C127   C     0.30206   0.45923   0.52114   0.00000  Uiso   1.00
C128   C     0.29193   0.44867   0.97985   0.00000  Uiso   1.00
C129   C     0.20807   0.05133   0.02015   0.00000  Uiso   1.00
C130   C     0.05192   0.20863   0.98026   0.00000  Uiso   1.00
C131   C     0.44808   0.29137   0.01974   0.00000  Uiso   1.00
C132   C     0.20804   0.05131   0.97927   0.00000  Uiso   1.00
C133   C     0.29197   0.44869   0.02073   0.00000  Uiso   1.00
C134   C     0.44794   0.29077   0.97886   0.00000  Uiso   1.00
C135   C     0.28129   0.48890   0.58166   0.00000  Uiso   1.00
C136   C     0.05206   0.20923   0.02114   0.00000  Uiso   1.00
C137   C     0.25017   0.49991   0.35574   0.00000  Uiso   1.00
C138   C     0.24983   0.00009   0.64426   0.00000  Uiso   1.00
C139   C     0.00005   0.25002   0.35573   0.00000  Uiso   1.00
C140   C     0.49996   0.24998   0.64427   0.00000  Uiso   1.00
C141   C     0.00017   0.24991   0.85574   0.00000  Uiso   1.00
C142   C     0.49983   0.25009   0.14426   0.00000  Uiso   1.00
C143   C     0.25005   0.00002   0.85573   0.00000  Uiso   1.00
C144   C     0.24996   0.49998   0.14427   0.00000  Uiso   1.00
C145   C     0.17974   0.06979   0.25024   0.00000  Uiso   1.00
C146   C     0.01277   0.21923   0.41857   0.00000  Uiso   1.00
C147   C     0.32026   0.43021   0.74976   0.00000  Uiso   1.00
C148   C     0.43007   0.18003   0.25003   0.00000  Uiso   1.00
C149   C     0.06993   0.31997   0.74997   0.00000  Uiso   1.00
C150   C     0.31973   0.42976   0.24977   0.00000  Uiso   1.00
C151   C     0.18027   0.07024   0.75022   0.00000  Uiso   1.00
C152   C     0.07000   0.31995   0.24993   0.00000  Uiso   1.00
C153   C     0.43000   0.18005   0.75007   0.00000  Uiso   1.00
C154   C     0.18007   0.43003   0.75003   0.00000  Uiso   1.00
C155   C     0.31993   0.06997   0.24997   0.00000  Uiso   1.00
C156   C     0.42974   0.31979   0.75024   0.00000  Uiso   1.00
C157   C     0.48723   0.28077   0.58143   0.00000  Uiso   1.00
C158   C     0.07026   0.18021   0.24976   0.00000  Uiso   1.00
C159   C     0.32000   0.06995   0.74993   0.00000  Uiso   1.00
C160   C     0.18000   0.43005   0.25006   0.00000  Uiso   1.00
C161   C     0.06973   0.17976   0.74977   0.00000  Uiso   1.00
C162   C     0.43027   0.32024   0.25022   0.00000  Uiso   1.00
C163   C     0.13939   0.38772   0.21418   0.00000  Uiso   1.00
C164   C     0.36061   0.11228   0.78582   0.00000  Uiso   1.00
C165   C     0.10030   0.12718   0.21844   0.00000  Uiso   1.00
C166   C     0.39970   0.37282   0.78156   0.00000  Uiso   1.00
C167   C     0.35918   0.11370   0.21433   0.00000  Uiso   1.00
C168   C     0.28074   0.48694   0.41867   0.00000  Uiso   1.00
C169   C     0.14082   0.38629   0.78566   0.00000  Uiso   1.00
C170   C     0.41019   0.38328   0.26454   0.00000  Uiso   1.00
C171   C     0.08981   0.11672   0.73546   0.00000  Uiso   1.00
C172   C     0.11703   0.08981   0.73523   0.00000  Uiso   1.00
C173   C     0.38297   0.41019   0.26477   0.00000  Uiso   1.00
C174   C     0.11380   0.35911   0.78565   0.00000  Uiso   1.00
C175   C     0.38620   0.14089   0.21435   0.00000  Uiso   1.00
C176   C     0.37384   0.40040   0.78081   0.00000  Uiso   1.00
C177   C     0.12616   0.09960   0.21919   0.00000  Uiso   1.00
C178   C     0.38800   0.13904   0.78577   0.00000  Uiso   1.00
C179   C     0.21926   0.01306   0.58133   0.00000  Uiso   1.00
C180   C     0.11200   0.36096   0.21423   0.00000  Uiso   1.00
C181   C     0.38939   0.13772   0.71418   0.00000  Uiso   1.00
C182   C     0.11061   0.36228   0.28582   0.00000  Uiso   1.00
C183   C     0.35030   0.37718   0.71844   0.00000  Uiso   1.00
C184   C     0.14970   0.12282   0.28156   0.00000  Uiso   1.00
C185   C     0.10918   0.36371   0.71433   0.00000  Uiso   1.00
C186   C     0.39082   0.13630   0.28566   0.00000  Uiso   1.00
C187   C     0.16019   0.13328   0.76454   0.00000  Uiso   1.00
C188   C     0.33981   0.36672   0.23546   0.00000  Uiso   1.00
C189   C     0.36703   0.33981   0.23523   0.00000  Uiso   1.00
C190   C     0.23714   0.03067   0.91829   0.00000  Uiso   1.00
C191   C     0.13297   0.16019   0.76477   0.00000  Uiso   1.00
C192   C     0.36380   0.10911   0.28565   0.00000  Uiso   1.00
C193   C     0.13620   0.39089   0.71435   0.00000  Uiso   1.00
C194   C     0.12384   0.15040   0.28081   0.00000  Uiso   1.00
C195   C     0.37616   0.34960   0.71919   0.00000  Uiso   1.00
C196   C     0.13800   0.38904   0.28577   0.00000  Uiso   1.00
C197   C     0.36200   0.11096   0.71423   0.00000  Uiso   1.00
C198   C     0.01813   0.22202   0.45916   0.00000  Uiso   1.00
C199   C     0.48187   0.27798   0.54084   0.00000  Uiso   1.00
C200   C     0.27816   0.48185   0.45932   0.00000  Uiso   1.00
H201   H     0.20352   0.40537   0.14699   0.00000  Uiso   1.00
H202   H     0.42659   0.49001   0.27933   0.00000  Uiso   1.00
H203   H     0.09966   0.29193   0.85047   0.00000  Uiso   1.00
H204   H     0.40035   0.20807   0.14952   0.00000  Uiso   1.00
H205   H     0.35586   0.43554   0.86885   0.00000  Uiso   1.00
H206   H     0.14414   0.06446   0.13115   0.00000  Uiso   1.00
H207   H     0.40110   0.20085   0.85623   0.00000  Uiso   1.00
H208   H     0.09890   0.29916   0.14377   0.00000  Uiso   1.00
H209   H     0.45352   0.15537   0.64699   0.00000  Uiso   1.00
H210   H     0.04648   0.34463   0.35301   0.00000  Uiso   1.00
H211   H     0.31130   0.40616   0.63543   0.00000  Uiso   1.00
H212   H     0.29648   0.09463   0.85301   0.00000  Uiso   1.00
H213   H     0.18870   0.09384   0.36457   0.00000  Uiso   1.00
H214   H     0.04269   0.35037   0.64847   0.00000  Uiso   1.00
H215   H     0.45730   0.14964   0.35153   0.00000  Uiso   1.00
H216   H     0.25076   0.14237   0.77736   0.00000  Uiso   1.00
H217   H     0.24924   0.35763   0.22264   0.00000  Uiso   1.00
H218   H     0.32341   0.25999   0.22067   0.00000  Uiso   1.00
H219   H     0.17659   0.24001   0.77933   0.00000  Uiso   1.00
H220   H     0.34965   0.04193   0.35047   0.00000  Uiso   1.00
H221   H     0.15034   0.45807   0.64953   0.00000  Uiso   1.00
H222   H     0.10586   0.18554   0.36885   0.00000  Uiso   1.00
H223   H     0.06130   0.15616   0.13543   0.00000  Uiso   1.00
H224   H     0.39414   0.31446   0.63115   0.00000  Uiso   1.00
H225   H     0.15110   0.45084   0.35623   0.00000  Uiso   1.00
H226   H     0.34890   0.04915   0.64377   0.00000  Uiso   1.00
H227   H     0.49441   0.37064   0.40108   0.00000  Uiso   1.00
H228   H     0.00559   0.12936   0.59891   0.00000  Uiso   1.00
H229   H     0.12836   0.00082   0.40474   0.00000  Uiso   1.00
H230   H     0.37164   0.49918   0.59526   0.00000  Uiso   1.00
H231   H     0.00527   0.12899   0.40327   0.00000  Uiso   1.00
H232   H     0.49473   0.37101   0.59673   0.00000  Uiso   1.00
H233   H     0.37060   0.49413   0.40148   0.00000  Uiso   1.00
H234   H     0.43870   0.34384   0.86457   0.00000  Uiso   1.00
H235   H     0.12940   0.00587   0.59852   0.00000  Uiso   1.00
H236   H     0.24441   0.12064   0.90108   0.00000  Uiso   1.00
H237   H     0.25559   0.37936   0.09891   0.00000  Uiso   1.00
H238   H     0.37836   0.25082   0.90474   0.00000  Uiso   1.00
H239   H     0.12164   0.24918   0.09526   0.00000  Uiso   1.00
H240   H     0.25527   0.37899   0.90327   0.00000  Uiso   1.00
H241   H     0.24473   0.12101   0.09673   0.00000  Uiso   1.00
H242   H     0.12060   0.24413   0.90148   0.00000  Uiso   1.00
H243   H     0.37940   0.25587   0.09852   0.00000  Uiso   1.00
H244   H     0.29270   0.10037   0.14847   0.00000  Uiso   1.00
H245   H     0.20731   0.39963   0.85153   0.00000  Uiso   1.00
H246   H     0.00076   0.39237   0.27736   0.00000  Uiso   1.00
H247   H     0.49924   0.10763   0.72264   0.00000  Uiso   1.00
H248   H     0.07341   0.00999   0.72067   0.00000  Uiso   1.00
O249   O     0.25000   0.00000   0.25000   0.00000  Uiso   1.00
O250   O     0.25000   0.46964   0.66245   0.00000  Uiso   1.00
O251   O     0.27186   0.36341   0.23845   0.00000  Uiso   1.00
O252   O     0.37939   0.28689   0.19902   0.00000  Uiso   1.00
O253   O     0.32620   0.28518   0.23230   0.00000  Uiso   1.00
O254   O     0.12061   0.21311   0.80098   0.00000  Uiso   1.00
O255   O     0.17380   0.21482   0.76769   0.00000  Uiso   1.00
O256   O     0.34182   0.10667   0.34989   0.00000  Uiso   1.00
O257   O     0.35783   0.05206   0.32449   0.00000  Uiso   1.00
O258   O     0.15817   0.39334   0.65011   0.00000  Uiso   1.00
O259   O     0.14217   0.44794   0.67551   0.00000  Uiso   1.00
O260   O     0.13933   0.20488   0.31248   0.00000  Uiso   1.00
O261   O     0.46964   0.25000   0.33755   0.00000  Uiso   1.00
O262   O     0.10429   0.16605   0.34807   0.00000  Uiso   1.00
O263   O     0.36067   0.29512   0.68752   0.00000  Uiso   1.00
O264   O     0.39571   0.33395   0.65193   0.00000  Uiso   1.00
O265   O     0.16710   0.38840   0.34673   0.00000  Uiso   1.00
O266   O     0.14187   0.44252   0.32990   0.00000  Uiso   1.00
O267   O     0.33291   0.11160   0.65327   0.00000  Uiso   1.00
O268   O     0.35812   0.05748   0.67011   0.00000  Uiso   1.00
O269   O     0.47020   0.31945   0.36626   0.00000  Uiso   1.00
O270   O     0.49794   0.34771   0.41706   0.00000  Uiso   1.00
O271   O     0.02980   0.18055   0.63374   0.00000  Uiso   1.00
O272   O     0.03037   0.25000   0.66245   0.00000  Uiso   1.00
O273   O     0.00206   0.15229   0.58294   0.00000  Uiso   1.00
O274   O     0.17858   0.01905   0.36487   0.00000  Uiso   1.00
O275   O     0.15166   0.49995   0.42056   0.00000  Uiso   1.00
O276   O     0.32142   0.48095   0.63513   0.00000  Uiso   1.00
O277   O     0.34834   0.00005   0.57943   0.00000  Uiso   1.00
O278   O     0.02682   0.17998   0.36620   0.00000  Uiso   1.00
O279   O     0.00237   0.15210   0.41899   0.00000  Uiso   1.00
O280   O     0.47318   0.32002   0.63380   0.00000  Uiso   1.00
O281   O     0.49763   0.34790   0.58100   0.00000  Uiso   1.00
O282   O     0.31930   0.46902   0.36732   0.00000  Uiso   1.00
O283   O     0.00000   0.21964   0.83755   0.00000  Uiso   1.00
O284   O     0.34767   0.49813   0.41719   0.00000  Uiso   1.00
O285   O     0.18070   0.03098   0.63268   0.00000  Uiso   1.00
O286   O     0.15233   0.00187   0.58281   0.00000  Uiso   1.00
O287   O     0.22020   0.06945   0.86626   0.00000  Uiso   1.00
O288   O     0.24794   0.09771   0.91706   0.00000  Uiso   1.00
O289   O     0.27980   0.43055   0.13374   0.00000  Uiso   1.00
O290   O     0.25206   0.40229   0.08294   0.00000  Uiso   1.00
O291   O     0.42858   0.26905   0.86487   0.00000  Uiso   1.00
O292   O     0.40166   0.24995   0.92057   0.00000  Uiso   1.00
O293   O     0.07142   0.23095   0.13513   0.00000  Uiso   1.00
O294   O     0.00000   0.28037   0.16245   0.00000  Uiso   1.00
O295   O     0.09834   0.25005   0.07943   0.00000  Uiso   1.00
O296   O     0.27683   0.42998   0.86620   0.00000  Uiso   1.00
O297   O     0.25237   0.40210   0.91899   0.00000  Uiso   1.00
O298   O     0.22318   0.07002   0.13380   0.00000  Uiso   1.00
O299   O     0.24763   0.09790   0.08100   0.00000  Uiso   1.00
O300   O     0.06930   0.21902   0.86732   0.00000  Uiso   1.00
O301   O     0.09767   0.24813   0.91719   0.00000  Uiso   1.00
O302   O     0.43070   0.28098   0.13268   0.00000  Uiso   1.00
O303   O     0.40233   0.25187   0.08281   0.00000  Uiso   1.00
O304   O     0.28037   0.00000   0.83755   0.00000  Uiso   1.00
O305   O     0.21964   0.00000   0.16245   0.00000  Uiso   1.00
O306   O     0.00000   0.28037   0.83755   0.00000  Uiso   1.00
O307   O     0.00000   0.21964   0.16245   0.00000  Uiso   1.00
O308   O     0.21964   0.00000   0.83755   0.00000  Uiso   1.00
O309   O     0.25000   0.00000   0.75000   0.00000  Uiso   1.00
O310   O     0.28037   0.00000   0.16245   0.00000  Uiso   1.00
O311   O     0.20725   0.07308   0.27302   0.00000  Uiso   1.00
O312   O     0.29276   0.42693   0.72698   0.00000  Uiso   1.00
O313   O     0.42693   0.20725   0.27302   0.00000  Uiso   1.00
O314   O     0.07308   0.29276   0.72698   0.00000  Uiso   1.00
O315   O     0.29276   0.42693   0.27302   0.00000  Uiso   1.00
O316   O     0.20725   0.07308   0.72698   0.00000  Uiso   1.00
O317   O     0.07308   0.29276   0.27302   0.00000  Uiso   1.00
O318   O     0.42693   0.20725   0.72698   0.00000  Uiso   1.00
O319   O     0.20725   0.42693   0.72698   0.00000  Uiso   1.00
O320   O     0.00000   0.25000   0.25000   0.00000  Uiso   1.00
O321   O     0.29276   0.07308   0.27302   0.00000  Uiso   1.00
O322   O     0.42693   0.29276   0.72698   0.00000  Uiso   1.00
O323   O     0.07308   0.20725   0.27302   0.00000  Uiso   1.00
O324   O     0.29276   0.07308   0.72698   0.00000  Uiso   1.00
O325   O     0.20725   0.42693   0.27302   0.00000  Uiso   1.00
O326   O     0.07308   0.20725   0.72698   0.00000  Uiso   1.00
O327   O     0.42693   0.29276   0.27302   0.00000  Uiso   1.00
O328   O     0.45725   0.32308   0.77302   0.00000  Uiso   1.00
O329   O     0.04276   0.17693   0.22698   0.00000  Uiso   1.00
O330   O     0.17693   0.45725   0.77302   0.00000  Uiso   1.00
O331   O     0.00000   0.25000   0.75000   0.00000  Uiso   1.00
O332   O     0.32308   0.04276   0.22698   0.00000  Uiso   1.00
O333   O     0.04276   0.17693   0.77302   0.00000  Uiso   1.00
O334   O     0.45725   0.32308   0.22698   0.00000  Uiso   1.00
O335   O     0.32308   0.04276   0.77302   0.00000  Uiso   1.00
O336   O     0.17693   0.45725   0.22698   0.00000  Uiso   1.00
O337   O     0.45725   0.17693   0.22698   0.00000  Uiso   1.00
O338   O     0.04276   0.32308   0.77302   0.00000  Uiso   1.00
O339   O     0.17693   0.04276   0.22698   0.00000  Uiso   1.00
O340   O     0.32308   0.45725   0.77302   0.00000  Uiso   1.00
O341   O     0.04276   0.32308   0.22698   0.00000  Uiso   1.00
O342   O     0.25000   0.46964   0.33755   0.00000  Uiso   1.00
O343   O     0.45725   0.17693   0.77302   0.00000  Uiso   1.00
O344   O     0.32308   0.45725   0.22698   0.00000  Uiso   1.00
O345   O     0.17693   0.04276   0.77302   0.00000  Uiso   1.00
O346   O     0.13866   0.41106   0.15028   0.00000  Uiso   1.00
O347   O     0.19471   0.39639   0.17322   0.00000  Uiso   1.00
O348   O     0.36134   0.08894   0.84972   0.00000  Uiso   1.00
O349   O     0.30529   0.10361   0.82678   0.00000  Uiso   1.00
O350   O     0.05211   0.10610   0.17926   0.00000  Uiso   1.00
O351   O     0.07981   0.15758   0.15731   0.00000  Uiso   1.00
O352   O     0.44789   0.39390   0.82074   0.00000  Uiso   1.00
O353   O     0.25000   0.03037   0.66245   0.00000  Uiso   1.00
O354   O     0.42019   0.34242   0.84269   0.00000  Uiso   1.00
O355   O     0.35704   0.09018   0.15074   0.00000  Uiso   1.00
O356   O     0.30260   0.10860   0.17456   0.00000  Uiso   1.00
O357   O     0.14297   0.40981   0.84927   0.00000  Uiso   1.00
O358   O     0.19740   0.39140   0.82544   0.00000  Uiso   1.00
O359   O     0.44769   0.40081   0.31683   0.00000  Uiso   1.00
O360   O     0.47814   0.38659   0.26155   0.00000  Uiso   1.00
O361   O     0.05231   0.09919   0.68317   0.00000  Uiso   1.00
O362   O     0.02186   0.11341   0.73845   0.00000  Uiso   1.00
O363   O     0.12939   0.03689   0.69902   0.00000  Uiso   1.00
O364   O     0.03037   0.25000   0.33755   0.00000  Uiso   1.00
O365   O     0.07620   0.03518   0.73230   0.00000  Uiso   1.00
O366   O     0.37061   0.46311   0.30098   0.00000  Uiso   1.00
O367   O     0.42380   0.46482   0.26769   0.00000  Uiso   1.00
O368   O     0.09182   0.35666   0.84989   0.00000  Uiso   1.00
O369   O     0.10784   0.30206   0.82449   0.00000  Uiso   1.00
O370   O     0.40818   0.14333   0.15011   0.00000  Uiso   1.00
O371   O     0.39217   0.19794   0.17551   0.00000  Uiso   1.00
O372   O     0.38933   0.45488   0.81248   0.00000  Uiso   1.00
O373   O     0.35429   0.41605   0.84807   0.00000  Uiso   1.00
O374   O     0.11067   0.04512   0.18752   0.00000  Uiso   1.00
O375   O     0.46964   0.25000   0.66245   0.00000  Uiso   1.00
O376   O     0.14571   0.08395   0.15193   0.00000  Uiso   1.00
O377   O     0.41710   0.13840   0.84673   0.00000  Uiso   1.00
O378   O     0.39187   0.19252   0.82990   0.00000  Uiso   1.00
O379   O     0.08290   0.36160   0.15327   0.00000  Uiso   1.00
O380   O     0.10813   0.30748   0.17010   0.00000  Uiso   1.00
O381   O     0.38866   0.16106   0.65028   0.00000  Uiso   1.00
O382   O     0.44471   0.14638   0.67322   0.00000  Uiso   1.00
O383   O     0.11134   0.33894   0.34972   0.00000  Uiso   1.00
O384   O     0.05529   0.35361   0.32678   0.00000  Uiso   1.00
O385   O     0.30211   0.35610   0.67926   0.00000  Uiso   1.00
O386   O     0.25000   0.03037   0.33755   0.00000  Uiso   1.00
O387   O     0.32981   0.40758   0.65731   0.00000  Uiso   1.00
O388   O     0.19789   0.14390   0.32074   0.00000  Uiso   1.00
O389   O     0.17019   0.09242   0.34269   0.00000  Uiso   1.00
O390   O     0.10703   0.34019   0.65073   0.00000  Uiso   1.00
O391   O     0.05260   0.35860   0.67456   0.00000  Uiso   1.00
O392   O     0.39296   0.15982   0.34926   0.00000  Uiso   1.00
O393   O     0.44740   0.14140   0.32544   0.00000  Uiso   1.00
O394   O     0.19769   0.15081   0.81683   0.00000  Uiso   1.00
O395   O     0.22814   0.13659   0.76154   0.00000  Uiso   1.00
O396   O     0.30231   0.34919   0.18317   0.00000  Uiso   1.00
Zn397  Zn    0.20660   0.00000   0.21735   0.00000  Uiso   1.00
Zn398  Zn    0.04341   0.25000   0.28265   0.00000  Uiso   1.00
Zn399  Zn    0.25000   0.45660   0.71735   0.00000  Uiso   1.00
Zn400  Zn    0.25000   0.04341   0.28265   0.00000  Uiso   1.00
Zn401  Zn    0.04341   0.25000   0.71735   0.00000  Uiso   1.00
Zn402  Zn    0.45660   0.25000   0.28265   0.00000  Uiso   1.00
Zn403  Zn    0.25000   0.04341   0.71735   0.00000  Uiso   1.00
Zn404  Zn    0.25000   0.45660   0.28265   0.00000  Uiso   1.00
Zn405  Zn    0.29341   0.00000   0.78265   0.00000  Uiso   1.00
Zn406  Zn    0.00000   0.20660   0.21735   0.00000  Uiso   1.00
Zn407  Zn    0.00000   0.29341   0.78265   0.00000  Uiso   1.00
Zn408  Zn    0.29341   0.00000   0.21735   0.00000  Uiso   1.00
Zn409  Zn    0.20660   0.00000   0.78265   0.00000  Uiso   1.00
Zn410  Zn    0.00000   0.29341   0.21735   0.00000  Uiso   1.00
Zn411  Zn    0.00000   0.20660   0.78265   0.00000  Uiso   1.00
Zn412  Zn    0.45660   0.25000   0.71735   0.00000  Uiso   1.00
Br413  Br    0.57985   0.17202   0.45325   0.00000  Uiso   1.00
Br414  Br    0.67015   0.07798   0.04675   0.00000  Uiso   1.00
Br415  Br    0.57888   0.17056   0.95424   0.00000  Uiso   1.00
Br416  Br    0.92112   0.32944   0.04576   0.00000  Uiso   1.00
Br417  Br    0.66996   0.07780   0.95231   0.00000  Uiso   1.00
Br418  Br    0.83004   0.42220   0.04769   0.00000  Uiso   1.00
Br419  Br    0.92072   0.32782   0.95118   0.00000  Uiso   1.00
Br420  Br    0.57928   0.17218   0.04882   0.00000  Uiso   1.00
Br421  Br    0.92015   0.32798   0.54675   0.00000  Uiso   1.00
Br422  Br    0.82888   0.42056   0.45424   0.00000  Uiso   1.00
Br423  Br    0.67112   0.07944   0.54576   0.00000  Uiso   1.00
Br424  Br    0.91996   0.32780   0.45231   0.00000  Uiso   1.00
Br425  Br    0.58004   0.17220   0.54769   0.00000  Uiso   1.00
Br426  Br    0.67072   0.07782   0.45118   0.00000  Uiso   1.00
Br427  Br    0.82928   0.42218   0.54882   0.00000  Uiso   1.00
Br428  Br    0.82985   0.42202   0.95325   0.00000  Uiso   1.00
C429   C     0.98714   0.28067   0.41829   0.00000  Uiso   1.00
C430   C     0.76286   0.46933   0.08171   0.00000  Uiso   1.00
C431   C     0.72184   0.01815   0.54068   0.00000  Uiso   1.00
C432   C     0.98186   0.27797   0.45888   0.00000  Uiso   1.00
C433   C     0.51814   0.22203   0.54112   0.00000  Uiso   1.00
C434   C     0.72158   0.01707   0.45878   0.00000  Uiso   1.00
C435   C     0.77842   0.48293   0.54122   0.00000  Uiso   1.00
C436   C     0.76813   0.47202   0.95916   0.00000  Uiso   1.00
C437   C     0.73187   0.02798   0.04084   0.00000  Uiso   1.00
C438   C     0.52816   0.23185   0.95932   0.00000  Uiso   1.00
C439   C     0.97184   0.26815   0.04068   0.00000  Uiso   1.00
C440   C     0.73186   0.02797   0.95888   0.00000  Uiso   1.00
C441   C     0.96872   0.26110   0.91834   0.00000  Uiso   1.00
C442   C     0.76814   0.47203   0.04112   0.00000  Uiso   1.00
C443   C     0.97158   0.26707   0.95878   0.00000  Uiso   1.00
C444   C     0.52842   0.23293   0.04122   0.00000  Uiso   1.00
C445   C     0.59795   0.34824   0.25001   0.00000  Uiso   1.00
C446   C     0.90205   0.15176   0.74999   0.00000  Uiso   1.00
C447   C     0.65126   0.09749   0.25055   0.00000  Uiso   1.00
C448   C     0.84874   0.40251   0.74945   0.00000  Uiso   1.00
C449   C     0.90189   0.15193   0.25001   0.00000  Uiso   1.00
C450   C     0.59811   0.34807   0.74999   0.00000  Uiso   1.00
C451   C     0.84783   0.40165   0.25047   0.00000  Uiso   1.00
C452   C     0.53129   0.23890   0.08166   0.00000  Uiso   1.00
C453   C     0.65217   0.09836   0.74953   0.00000  Uiso   1.00
C454   C     0.59783   0.15165   0.75047   0.00000  Uiso   1.00
C455   C     0.90217   0.34836   0.24953   0.00000  Uiso   1.00
C456   C     0.65189   0.40193   0.75001   0.00000  Uiso   1.00
C457   C     0.84811   0.09807   0.24999   0.00000  Uiso   1.00
C458   C     0.90126   0.34749   0.75055   0.00000  Uiso   1.00
C459   C     0.59874   0.15251   0.24945   0.00000  Uiso   1.00
C460   C     0.84795   0.09824   0.75001   0.00000  Uiso   1.00
C461   C     0.65205   0.40176   0.24999   0.00000  Uiso   1.00
C462   C     0.50001   0.25001   0.47951   0.00000  Uiso   1.00
C463   C     0.76277   0.46923   0.91857   0.00000  Uiso   1.00
C464   C     0.99999   0.24999   0.52049   0.00000  Uiso   1.00
C465   C     0.74996   0.49976   0.47953   0.00000  Uiso   1.00
C466   C     0.75004   0.00024   0.52047   0.00000  Uiso   1.00
C467   C     0.75001   0.00001   0.97951   0.00000  Uiso   1.00
C468   C     0.74999   0.49999   0.02049   0.00000  Uiso   1.00
C469   C     0.99996   0.24976   0.97953   0.00000  Uiso   1.00
C470   C     0.50004   0.25025   0.02047   0.00000  Uiso   1.00
C471   C     0.65697   0.39896   0.17704   0.00000  Uiso   1.00
C472   C     0.84303   0.10104   0.82296   0.00000  Uiso   1.00
C473   C     0.57567   0.12930   0.18408   0.00000  Uiso   1.00
C474   C     0.73723   0.03077   0.08143   0.00000  Uiso   1.00
C475   C     0.92434   0.37070   0.81592   0.00000  Uiso   1.00
C476   C     0.84015   0.10364   0.17764   0.00000  Uiso   1.00
C477   C     0.65986   0.39636   0.82236   0.00000  Uiso   1.00
C478   C     0.94618   0.39072   0.28296   0.00000  Uiso   1.00
C479   C     0.55382   0.10928   0.71704   0.00000  Uiso   1.00
C480   C     0.60841   0.05247   0.72082   0.00000  Uiso   1.00
C481   C     0.89159   0.44753   0.27918   0.00000  Uiso   1.00
C482   C     0.60403   0.33981   0.82227   0.00000  Uiso   1.00
C483   C     0.89597   0.16019   0.17772   0.00000  Uiso   1.00
C484   C     0.87297   0.42587   0.81431   0.00000  Uiso   1.00
C485   C     0.53074   0.23694   0.91867   0.00000  Uiso   1.00
C486   C     0.62703   0.07413   0.18569   0.00000  Uiso   1.00
C487   C     0.89983   0.15604   0.82287   0.00000  Uiso   1.00
C488   C     0.60017   0.34396   0.17713   0.00000  Uiso   1.00
C489   C     0.90697   0.14896   0.67704   0.00000  Uiso   1.00
C490   C     0.59303   0.35104   0.32296   0.00000  Uiso   1.00
C491   C     0.82566   0.37930   0.68408   0.00000  Uiso   1.00
C492   C     0.67434   0.12070   0.31592   0.00000  Uiso   1.00
C493   C     0.59014   0.35364   0.67764   0.00000  Uiso   1.00
C494   C     0.90985   0.14636   0.32236   0.00000  Uiso   1.00
C495   C     0.69618   0.14072   0.78296   0.00000  Uiso   1.00
C496   C     0.96926   0.26306   0.08133   0.00000  Uiso   1.00
C497   C     0.80382   0.35928   0.21704   0.00000  Uiso   1.00
C498   C     0.85841   0.30247   0.22082   0.00000  Uiso   1.00
C499   C     0.64159   0.19753   0.77918   0.00000  Uiso   1.00
C500   C     0.85403   0.08981   0.32227   0.00000  Uiso   1.00
C501   C     0.64597   0.41019   0.67772   0.00000  Uiso   1.00
C502   C     0.62297   0.17587   0.31431   0.00000  Uiso   1.00
C503   C     0.87703   0.32413   0.68569   0.00000  Uiso   1.00
C504   C     0.64983   0.40604   0.32287   0.00000  Uiso   1.00
C505   C     0.85017   0.09396   0.67713   0.00000  Uiso   1.00
C506   C     0.98436   0.31668   0.39838   0.00000  Uiso   1.00
C507   C     0.50009   0.24999   0.39809   0.00000  Uiso   1.00
C508   C     0.51564   0.18332   0.60162   0.00000  Uiso   1.00
C509   C     0.68216   0.01079   0.39913   0.00000  Uiso   1.00
C510   C     0.81784   0.48921   0.60087   0.00000  Uiso   1.00
C511   C     0.51473   0.18300   0.39912   0.00000  Uiso   1.00
C512   C     0.98527   0.31700   0.60088   0.00000  Uiso   1.00
C513   C     0.81663   0.48400   0.39890   0.00000  Uiso   1.00
C514   C     0.68337   0.01600   0.60110   0.00000  Uiso   1.00
C515   C     0.73436   0.06668   0.89838   0.00000  Uiso   1.00
C516   C     0.76564   0.43332   0.10162   0.00000  Uiso   1.00
C517   C     0.93216   0.26079   0.89913   0.00000  Uiso   1.00
C518   C     0.99991   0.25001   0.60191   0.00000  Uiso   1.00
C519   C     0.56784   0.23921   0.10087   0.00000  Uiso   1.00
C520   C     0.76473   0.43301   0.89912   0.00000  Uiso   1.00
C521   C     0.73527   0.06700   0.10088   0.00000  Uiso   1.00
C522   C     0.56663   0.23400   0.89890   0.00000  Uiso   1.00
C523   C     0.93337   0.26600   0.10110   0.00000  Uiso   1.00
C524   C     0.74992   0.49950   0.39813   0.00000  Uiso   1.00
C525   C     0.51286   0.21933   0.58171   0.00000  Uiso   1.00
C526   C     0.75008   0.00050   0.60187   0.00000  Uiso   1.00
C527   C     0.75009   0.49999   0.89809   0.00000  Uiso   1.00
C528   C     0.74991   0.00001   0.10191   0.00000  Uiso   1.00
C529   C     0.99992   0.24950   0.89813   0.00000  Uiso   1.00
C530   C     0.50008   0.25050   0.10187   0.00000  Uiso   1.00
C531   C     0.54193   0.19867   0.47985   0.00000  Uiso   1.00
C532   C     0.95807   0.30133   0.52015   0.00000  Uiso   1.00
C533   C     0.80192   0.45863   0.48026   0.00000  Uiso   1.00
C534   C     0.69808   0.04137   0.51974   0.00000  Uiso   1.00
C535   C     0.95804   0.30131   0.47927   0.00000  Uiso   1.00
C536   C     0.71872   0.01110   0.41834   0.00000  Uiso   1.00
C537   C     0.54196   0.19869   0.52073   0.00000  Uiso   1.00
C538   C     0.69794   0.04077   0.47886   0.00000  Uiso   1.00
C539   C     0.80206   0.45923   0.52114   0.00000  Uiso   1.00
C540   C     0.79193   0.44867   0.97985   0.00000  Uiso   1.00
C541   C     0.70807   0.05133   0.02015   0.00000  Uiso   1.00
C542   C     0.55192   0.20863   0.98026   0.00000  Uiso   1.00
C543   C     0.94808   0.29137   0.01974   0.00000  Uiso   1.00
C544   C     0.70804   0.05131   0.97927   0.00000  Uiso   1.00
C545   C     0.79197   0.44869   0.02073   0.00000  Uiso   1.00
C546   C     0.94794   0.29077   0.97886   0.00000  Uiso   1.00
C547   C     0.78129   0.48890   0.58166   0.00000  Uiso   1.00
C548   C     0.55206   0.20923   0.02114   0.00000  Uiso   1.00
C549   C     0.75017   0.49991   0.35574   0.00000  Uiso   1.00
C550   C     0.74983   0.00009   0.64426   0.00000  Uiso   1.00
C551   C     0.50005   0.25002   0.35573   0.00000  Uiso   1.00
C552   C     0.99996   0.24998   0.64427   0.00000  Uiso   1.00
C553   C     0.50017   0.24991   0.85574   0.00000  Uiso   1.00
C554   C     0.99983   0.25009   0.14426   0.00000  Uiso   1.00
C555   C     0.75005   0.00002   0.85573   0.00000  Uiso   1.00
C556   C     0.74996   0.49998   0.14427   0.00000  Uiso   1.00
C557   C     0.67974   0.06979   0.25024   0.00000  Uiso   1.00
C558   C     0.51277   0.21923   0.41857   0.00000  Uiso   1.00
C559   C     0.82026   0.43021   0.74976   0.00000  Uiso   1.00
C560   C     0.93007   0.18003   0.25003   0.00000  Uiso   1.00
C561   C     0.56993   0.31997   0.74997   0.00000  Uiso   1.00
C562   C     0.81973   0.42976   0.24977   0.00000  Uiso   1.00
C563   C     0.68027   0.07024   0.75022   0.00000  Uiso   1.00
C564   C     0.57000   0.31995   0.24993   0.00000  Uiso   1.00
C565   C     0.93000   0.18005   0.75007   0.00000  Uiso   1.00
C566   C     0.68007   0.43003   0.75003   0.00000  Uiso   1.00
C567   C     0.81993   0.06997   0.24997   0.00000  Uiso   1.00
C568   C     0.92974   0.31979   0.75024   0.00000  Uiso   1.00
C569   C     0.98723   0.28077   0.58143   0.00000  Uiso   1.00
C570   C     0.57026   0.18021   0.24976   0.00000  Uiso   1.00
C571   C     0.82000   0.06995   0.74993   0.00000  Uiso   1.00
C572   C     0.68000   0.43005   0.25006   0.00000  Uiso   1.00
C573   C     0.56973   0.17976   0.74977   0.00000  Uiso   1.00
C574   C     0.93027   0.32024   0.25022   0.00000  Uiso   1.00
C575   C     0.63939   0.38772   0.21418   0.00000  Uiso   1.00
C576   C     0.86061   0.11228   0.78582   0.00000  Uiso   1.00
C577   C     0.60030   0.12718   0.21844   0.00000  Uiso   1.00
C578   C     0.89970   0.37282   0.78156   0.00000  Uiso   1.00
C579   C     0.85918   0.11370   0.21433   0.00000  Uiso   1.00
C580   C     0.78074   0.48694   0.41867   0.00000  Uiso   1.00
C581   C     0.64082   0.38629   0.78566   0.00000  Uiso   1.00
C582   C     0.91019   0.38328   0.26454   0.00000  Uiso   1.00
C583   C     0.58981   0.11672   0.73546   0.00000  Uiso   1.00
C584   C     0.61703   0.08981   0.73523   0.00000  Uiso   1.00
C585   C     0.88297   0.41019   0.26477   0.00000  Uiso   1.00
C586   C     0.61380   0.35911   0.78565   0.00000  Uiso   1.00
C587   C     0.88620   0.14089   0.21435   0.00000  Uiso   1.00
C588   C     0.87384   0.40040   0.78081   0.00000  Uiso   1.00
C589   C     0.62616   0.09960   0.21919   0.00000  Uiso   1.00
C590   C     0.88800   0.13904   0.78577   0.00000  Uiso   1.00
C591   C     0.71926   0.01306   0.58133   0.00000  Uiso   1.00
C592   C     0.61200   0.36096   0.21423   0.00000  Uiso   1.00
C593   C     0.88939   0.13772   0.71418   0.00000  Uiso   1.00
C594   C     0.61061   0.36228   0.28582   0.00000  Uiso   1.00
C595   C     0.85030   0.37718   0.71844   0.00000  Uiso   1.00
C596   C     0.64970   0.12282   0.28156   0.00000  Uiso   1.00
C597   C     0.60918   0.36371   0.71433   0.00000  Uiso   1.00
C598   C     0.89082   0.13630   0.28566   0.00000  Uiso   1.00
C599   C     0.66019   0.13328   0.76454   0.00000  Uiso   1.00
C600   C     0.83981   0.36672   0.23546   0.00000  Uiso   1.00
C601   C     0.86703   0.33981   0.23523   0.00000  Uiso   1.00
C602   C     0.73714   0.03067   0.91829   0.00000  Uiso   1.00
C603   C     0.63297   0.16019   0.76477   0.00000  Uiso   1.00
C604   C     0.86380   0.10911   0.28565   0.00000  Uiso   1.00
C605   C     0.63620   0.39089   0.71435   0.00000  Uiso   1.00
C606   C     0.62384   0.15040   0.28081   0.00000  Uiso   1.00
C607   C     0.87616   0.34960   0.71919   0.00000  Uiso   1.00
C608   C     0.63800   0.38904   0.28577   0.00000  Uiso   1.00
C609   C     0.86200   0.11096   0.71423   0.00000  Uiso   1.00
C610   C     0.51813   0.22202   0.45916   0.00000  Uiso   1.00
C611   C     0.98187   0.27798   0.54084   0.00000  Uiso   1.00
C612   C     0.77816   0.48185   0.45932   0.00000  Uiso   1.00
H613   H     0.70352   0.40537   0.14699   0.00000  Uiso   1.00
H614   H     0.92659   0.49001   0.27933   0.00000  Uiso   1.00
H615   H     0.59966   0.29193   0.85047   0.00000  Uiso   1.00
H616   H     0.90035   0.20807   0.14952   0.00000  Uiso   1.00
H617   H     0.85586   0.43554   0.86885   0.00000  Uiso   1.00
H618   H     0.64414   0.06446   0.13115   0.00000  Uiso   1.00
H619   H     0.90110   0.20085   0.85623   0.00000  Uiso   1.00
H620   H     0.59890   0.29916   0.14377   0.00000  Uiso   1.00
H621   H     0.95352   0.15537   0.64699   0.00000  Uiso   1.00
H622   H     0.54648   0.34463   0.35301   0.00000  Uiso   1.00
H623   H     0.81130   0.40616   0.63543   0.00000  Uiso   1.00
H624   H     0.79648   0.09463   0.85301   0.00000  Uiso   1.00
H625   H     0.68870   0.09384   0.36457   0.00000  Uiso   1.00
H626   H     0.54269   0.35037   0.64847   0.00000  Uiso   1.00
H627   H     0.95730   0.14964   0.35153   0.00000  Uiso   1.00
H628   H     0.75076   0.14237   0.77736   0.00000  Uiso   1.00
H629   H     0.74924   0.35763   0.22264   0.00000  Uiso   1.00
H630   H     0.82341   0.25999   0.22067   0.00000  Uiso   1.00
H631   H     0.67659   0.24001   0.77933   0.00000  Uiso   1.00
H632   H     0.84965   0.04193   0.35047   0.00000  Uiso   1.00
H633   H     0.65034   0.45807   0.64953   0.00000  Uiso   1.00
H634   H     0.60586   0.18554   0.36885   0.00000  Uiso   1.00
H635   H     0.56130   0.15616   0.13543   0.00000  Uiso   1.00
H636   H     0.89414   0.31446   0.63115   0.00000  Uiso   1.00
H637   H     0.65110   0.45084   0.35623   0.00000  Uiso   1.00
H638   H     0.84890   0.04915   0.64377   0.00000  Uiso   1.00
H639   H     0.99441   0.37064   0.40108   0.00000  Uiso   1.00
H640   H     0.50559   0.12936   0.59891   0.00000  Uiso   1.00
H641   H     0.62836   0.00082   0.40474   0.00000  Uiso   1.00
H642   H     0.87164   0.49918   0.59526   0.00000  Uiso   1.00
H643   H     0.50527   0.12899   0.40327   0.00000  Uiso   1.00
H644   H     0.99473   0.37101   0.59673   0.00000  Uiso   1.00
H645   H     0.87060   0.49413   0.40148   0.00000  Uiso   1.00
H646   H     0.93870   0.34384   0.86457   0.00000  Uiso   1.00
H647   H     0.62940   0.00587   0.59852   0.00000  Uiso   1.00
H648   H     0.74441   0.12064   0.90108   0.00000  Uiso   1.00
H649   H     0.75559   0.37936   0.09891   0.00000  Uiso   1.00
H650   H     0.87836   0.25082   0.90474   0.00000  Uiso   1.00
H651   H     0.62164   0.24918   0.09526   0.00000  Uiso   1.00
H652   H     0.75527   0.37899   0.90327   0.00000  Uiso   1.00
H653   H     0.74473   0.12101   0.09673   0.00000  Uiso   1.00
H654   H     0.62060   0.24413   0.90148   0.00000  Uiso   1.00
H655   H     0.87940   0.25587   0.09852   0.00000  Uiso   1.00
H656   H     0.79270   0.10037   0.14847   0.00000  Uiso   1.00
H657   H     0.70731   0.39963   0.85153   0.00000  Uiso   1.00
H658   H     0.50076   0.39237   0.27736   0.00000  Uiso   1.00
H659   H     0.99924   0.10763   0.72264   0.00000  Uiso   1.00
H660   H     0.57341   0.00999   0.72067   0.00000  Uiso   1.00
O661   O     0.75000   0.00000   0.25000   0.00000  Uiso   1.00
O662   O     0.75000   0.46964   0.66245   0.00000  Uiso   1.00
O663   O     0.77186   0.36341   0.23845   0.00000  Uiso   1.00
O664   O     0.87939   0.28689   0.19902   0.00000  Uiso   1.00
O665   O     0.82620   0.28518   0.23230   0.00000  Uiso   1.00
O666   O     0.62061   0.21311   0.80098   0.00000  Uiso   1.00
O667   O     0.67380   0.21482   0.76769   0.00000  Uiso   1.00
O668   O     0.84182   0.10667   0.34989   0.00000  Uiso   1.00
O669   O     0.85783   0.05206   0.32449   0.00000  Uiso   1.00
O670   O     0.65817   0.39334   0.65011   0.00000  Uiso   1.00
O671   O     0.64217   0.44794   0.67551   0.00000  Uiso   1.00
O672   O     0.63933   0.20488   0.31248   0.00000  Uiso   1.00
O673   O     0.96964   0.25000   0.33755   0.00000  Uiso   1.00
O674   O     0.60429   0.16605   0.34807   0.00000  Uiso   1.00
O675   O     0.86067   0.29512   0.68752   0.00000  Uiso   1.00
O676   O     0.89571   0.33395   0.65193   0.00000  Uiso   1.00
O677   O     0.66710   0.38840   0.34673   0.00000  Uiso   1.00
O678   O     0.64187   0.44252   0.32990   0.00000  Uiso   1.00
O679   O     0.83291   0.11160   0.65327   0.00000  Uiso   1.00
O680   O     0.85812   0.05748   0.67011   0.00000  Uiso   1.00
O681   O     0.97020   0.31945   0.36626   0.00000  Uiso   1.00
O682   O     0.99794   0.34771   0.41706   0.00000  Uiso   1.00
O683   O     0.52980   0.18055   0.63374   0.00000  Uiso   1.00
O684   O     0.53037   0.25000   0.66245   0.00000  Uiso   1.00
O685   O     0.50206   0.15229   0.58294   0.00000  Uiso   1.00
O686   O     0.67858   0.01905   0.36487   0.00000  Uiso   1.00
O687   O     0.65166   0.49995   0.42056   0.00000  Uiso   1.00
O688   O     0.82142   0.48095   0.63513   0.00000  Uiso   1.00
O689   O     0.84834   0.00005   0.57943   0.00000  Uiso   1.00
O690   O     0.52682   0.17998   0.36620   0.00000  Uiso   1.00
O691   O     0.50237   0.15210   0.41899   0.00000  Uiso   1.00
O692   O     0.97318   0.32002   0.63380   0.00000  Uiso   1.00
O693   O     0.99763   0.34790   0.58100   0.00000  Uiso   1.00
O694   O     0.81930   0.46902   0.36732   0.00000  Uiso   1.00
O695   O     0.50000   0.21964   0.83755   0.00000  Uiso   1.00
O696   O     0.84767   0.49813   0.41719   0.00000  Uiso   1.00
O697   O     0.68070   0.03098   0.63268   0.00000  Uiso   1.00
O698   O     0.65233   0.00187   0.58281   0.00000  Uiso   1.00
O699   O     0.72020   0.06945   0.86626   0.00000  Uiso   1.00
O700   O     0.74794   0.09771   0.91706   0.00000  Uiso   1.00
O701   O     0.77980   0.43055   0.13374   0.00000  Uiso   1.00
O702   O     0.75206   0.40229   0.08294   0.00000  Uiso   1.00
O703   O     0.92858   0.26905   0.86487   0.00000  Uiso   1.00
O704   O     0.90166   0.24995   0.92057   0.00000  Uiso   1.00
O705   O     0.57142   0.23095   0.13513   0.00000  Uiso   1.00
O706   O     0.50000   0.28037   0.16245   0.00000  Uiso   1.00
O707   O     0.59834   0.25005   0.07943   0.00000  Uiso   1.00
O708   O     0.77683   0.42998   0.86620   0.00000  Uiso   1.00
O709   O     0.75237   0.40210   0.91899   0.00000  Uiso   1.00
O710   O     0.72318   0.07002   0.13380   0.00000  Uiso   1.00
O711   O     0.74763   0.09790   0.08100   0.00000  Uiso   1.00
O712   O     0.56930   0.21902   0.86732   0.00000  Uiso   1.00
O713   O     0.59767   0.24813   0.91719   0.00000  Uiso   1.00
O714   O     0.93070   0.28098   0.13268   0.00000  Uiso   1.00
O715   O     0.90233   0.25187   0.08281   0.00000  Uiso   1.00
O716   O     0.78037   0.00000   0.83755   0.00000  Uiso   1.00
O717   O     0.71964   0.00000   0.16245   0.00000  Uiso   1.00
O718   O     0.50000   0.28037   0.83755   0.00000  Uiso   1.00
O719   O     0.50000   0.21964   0.16245   0.00000  Uiso   1.00
O720   O     0.71964   0.00000   0.83755   0.00000  Uiso   1.00
O721   O     0.75000   0.00000   0.75000   0.00000  Uiso   1.00
O722   O     0.78037   0.00000   0.16245   0.00000  Uiso   1.00
O723   O     0.70725   0.07308   0.27302   0.00000  Uiso   1.00
O724   O     0.79276   0.42693   0.72698   0.00000  Uiso   1.00
O725   O     0.92693   0.20725   0.27302   0.00000  Uiso   1.00
O726   O     0.57308   0.29276   0.72698   0.00000  Uiso   1.00
O727   O     0.79276   0.42693   0.27302   0.00000  Uiso   1.00
O728   O     0.70725   0.07308   0.72698   0.00000  Uiso   1.00
O729   O     0.57308   0.29276   0.27302   0.00000  Uiso   1.00
O730   O     0.92693   0.20725   0.72698   0.00000  Uiso   1.00
O731   O     0.70725   0.42693   0.72698   0.00000  Uiso   1.00
O732   O     0.50000   0.25000   0.25000   0.00000  Uiso   1.00
O733   O     0.79276   0.07308   0.27302   0.00000  Uiso   1.00
O734   O     0.92693   0.29276   0.72698   0.00000  Uiso   1.00
O735   O     0.57308   0.20725   0.27302   0.00000  Uiso   1.00
O736   O     0.79276   0.07308   0.72698   0.00000  Uiso   1.00
O737   O     0.70725   0.42693   0.27302   0.00000  Uiso   1.00
O738   O     0.57308   0.20725   0.72698   0.00000  Uiso   1.00
O739   O     0.92693   0.29276   0.27302   0.00000  Uiso   1.00
O740   O     0.95725   0.32308   0.77302   0.00000  Uiso   1.00
O741   O     0.54276   0.17693   0.22698   0.00000  Uiso   1.00
O742   O     0.67693   0.45725   0.77302   0.00000  Uiso   1.00
O743   O     0.50000   0.25000   0.75000   0.00000  Uiso   1.00
O744   O     0.82308   0.04276   0.22698   0.00000  Uiso   1.00
O745   O     0.54276   0.17693   0.77302   0.00000  Uiso   1.00
O746   O     0.95725   0.32308   0.22698   0.00000  Uiso   1.00
O747   O     0.82308   0.04276   0.77302   0.00000  Uiso   1.00
O748   O     0.67693   0.45725   0.22698   0.00000  Uiso   1.00
O749   O     0.95725   0.17693   0.22698   0.00000  Uiso   1.00
O750   O     0.54276   0.32308   0.77302   0.00000  Uiso   1.00
O751   O     0.67693   0.04276   0.22698   0.00000  Uiso   1.00
O752   O     0.82308   0.45725   0.77302   0.00000  Uiso   1.00
O753   O     0.54276   0.32308   0.22698   0.00000  Uiso   1.00
O754   O     0.75000   0.46964   0.33755   0.00000  Uiso   1.00
O755   O     0.95725   0.17693   0.77302   0.00000  Uiso   1.00
O756   O     0.82308   0.45725   0.22698   0.00000  Uiso   1.00
O757   O     0.67693   0.04276   0.77302   0.00000  Uiso   1.00
O758   O     0.63866   0.41106   0.15028   0.00000  Uiso   1.00
O759   O     0.69471   0.39639   0.17322   0.00000  Uiso   1.00
O760   O     0.86134   0.08894   0.84972   0.00000  Uiso   1.00
O761   O     0.80529   0.10361   0.82678   0.00000  Uiso   1.00
O762   O     0.55211   0.10610   0.17926   0.00000  Uiso   1.00
O763   O     0.57981   0.15758   0.15731   0.00000  Uiso   1.00
O764   O     0.94789   0.39390   0.82074   0.00000  Uiso   1.00
O765   O     0.75000   0.03037   0.66245   0.00000  Uiso   1.00
O766   O     0.92019   0.34242   0.84269   0.00000  Uiso   1.00
O767   O     0.85704   0.09018   0.15074   0.00000  Uiso   1.00
O768   O     0.80260   0.10860   0.17456   0.00000  Uiso   1.00
O769   O     0.64297   0.40981   0.84927   0.00000  Uiso   1.00
O770   O     0.69740   0.39140   0.82544   0.00000  Uiso   1.00
O771   O     0.94769   0.40081   0.31683   0.00000  Uiso   1.00
O772   O     0.97814   0.38659   0.26155   0.00000  Uiso   1.00
O773   O     0.55231   0.09919   0.68317   0.00000  Uiso   1.00
O774   O     0.52186   0.11341   0.73845   0.00000  Uiso   1.00
O775   O     0.62939   0.03689   0.69902   0.00000  Uiso   1.00
O776   O     0.53037   0.25000   0.33755   0.00000  Uiso   1.00
O777   O     0.57620   0.03518   0.73230   0.00000  Uiso   1.00
O778   O     0.87061   0.46311   0.30098   0.00000  Uiso   1.00
O779   O     0.92380   0.46482   0.26769   0.00000  Uiso   1.00
O780   O     0.59182   0.35666   0.84989   0.00000  Uiso   1.00
O781   O     0.60784   0.30206   0.82449   0.00000  Uiso   1.00
O782   O     0.90818   0.14333   0.15011   0.00000  Uiso   1.00
O783   O     0.89217   0.19794   0.17551   0.00000  Uiso   1.00
O784   O     0.88933   0.45488   0.81248   0.00000  Uiso   1.00
O785   O     0.85429   0.41605   0.84807   0.00000  Uiso   1.00
O786   O     0.61067   0.04512   0.18752   0.00000  Uiso   1.00
O787   O     0.96964   0.25000   0.66245   0.00000  Uiso   1.00
O788   O     0.64571   0.08395   0.15193   0.00000  Uiso   1.00
O789   O     0.91710   0.13840   0.84673   0.00000  Uiso   1.00
O790   O     0.89187   0.19252   0.82990   0.00000  Uiso   1.00
O791   O     0.58290   0.36160   0.15327   0.00000  Uiso   1.00
O792   O     0.60813   0.30748   0.17010   0.00000  Uiso   1.00
O793   O     0.88866   0.16106   0.65028   0.00000  Uiso   1.00
O794   O     0.94471   0.14638   0.67322   0.00000  Uiso   1.00
O795   O     0.61134   0.33894   0.34972   0.00000  Uiso   1.00
O796   O     0.55529   0.35361   0.32678   0.00000  Uiso   1.00
O797   O     0.80211   0.35610   0.67926   0.00000  Uiso   1.00
O798   O     0.75000   0.03037   0.33755   0.00000  Uiso   1.00
O799   O     0.82981   0.40758   0.65731   0.00000  Uiso   1.00
O800   O     0.69789   0.14390   0.32074   0.00000  Uiso   1.00
O801   O     0.67019   0.09242   0.34269   0.00000  Uiso   1.00
O802   O     0.60703   0.34019   0.65073   0.00000  Uiso   1.00
O803   O     0.55260   0.35860   0.67456   0.00000  Uiso   1.00
O804   O     0.89296   0.15982   0.34926   0.00000  Uiso   1.00
O805   O     0.94740   0.14140   0.32544   0.00000  Uiso   1.00
O806   O     0.69769   0.15081   0.81683   0.00000  Uiso   1.00
O807   O     0.72814   0.13659   0.76154   0.00000  Uiso   1.00
O808   O     0.80231   0.34919   0.18317   0.00000  Uiso   1.00
Zn809  Zn    0.70660   0.00000   0.21735   0.00000  Uiso   1.00
Zn810  Zn    0.54341   0.25000   0.28265   0.00000  Uiso   1.00
Zn811  Zn    0.75000   0.45660   0.71735   0.00000  Uiso   1.00
Zn812  Zn    0.75000   0.04341   0.28265   0.00000  Uiso   1.00
Zn813  Zn    0.54341   0.25000   0.71735   0.00000  Uiso   1.00
Zn814  Zn    0.95660   0.25000   0.28265   0.00000  Uiso   1.00
Zn815  Zn    0.75000   0.04341   0.71735   0.00000  Uiso   1.00
Zn816  Zn    0.75000   0.45660   0.28265   0.00000  Uiso   1.00
Zn817  Zn    0.79341   0.00000   0.78265   0.00000  Uiso   1.00
Zn818  Zn    0.50000   0.20660   0.21735   0.00000  Uiso   1.00
Zn819  Zn    0.50000   0.29341   0.78265   0.00000  Uiso   1.00
Zn820  Zn    0.79341   0.00000   0.21735   0.00000  Uiso   1.00
Zn821  Zn    0.70660   0.00000   0.78265   0.00000  Uiso   1.00
Zn822  Zn    0.50000   0.29341   0.21735   0.00000  Uiso   1.00
Zn823  Zn    0.50000   0.20660   0.78265   0.00000  Uiso   1.00
Zn824  Zn    0.95660   0.25000   0.71735   0.00000  Uiso   1.00
Br825  Br    0.07985   0.67202   0.45325   0.00000  Uiso   1.00
Br826  Br    0.17015   0.57798   0.04675   0.00000  Uiso   1.00
Br827  Br    0.07888   0.67056   0.95424   0.00000  Uiso   1.00
Br828  Br    0.42112   0.82944   0.04576   0.00000  Uiso   1.00
Br829  Br    0.16996   0.57780   0.95231   0.00000  Uiso   1.00
Br830  Br    0.33004   0.92220   0.04769   0.00000  Uiso   1.00
Br831  Br    0.42072   0.82782   0.95118   0.00000  Uiso   1.00
Br832  Br    0.07928   0.67218   0.04882   0.00000  Uiso   1.00
Br833  Br    0.42015   0.82798   0.54675   0.00000  Uiso   1.00
Br834  Br    0.32888   0.92056   0.45424   0.00000  Uiso   1.00
Br835  Br    0.17112   0.57944   0.54576   0.00000  Uiso   1.00
Br836  Br    0.41996   0.82780   0.45231   0.00000  Uiso   1.00
Br837  Br    0.08004   0.67220   0.54769   0.00000  Uiso   1.00
Br838  Br    0.17072   0.57782   0.45118   0.00000  Uiso   1.00
Br839  Br    0.32928   0.92218   0.54882   0.00000  Uiso   1.00
Br840  Br    0.32985   0.92202   0.95325   0.00000  Uiso   1.00
C841   C     0.48714   0.78067   0.41829   0.00000  Uiso   1.00
C842   C     0.26286   0.96933   0.08171   0.00000  Uiso   1.00
C843   C     0.22184   0.51815   0.54068   0.00000  Uiso   1.00
C844   C     0.48186   0.77797   0.45888   0.00000  Uiso   1.00
C845   C     0.01814   0.72203   0.54112   0.00000  Uiso   1.00
C846   C     0.22158   0.51707   0.45878   0.00000  Uiso   1.00
C847   C     0.27842   0.98293   0.54122   0.00000  Uiso   1.00
C848   C     0.26813   0.97202   0.95916   0.00000  Uiso   1.00
C849   C     0.23187   0.52798   0.04084   0.00000  Uiso   1.00
C850   C     0.02816   0.73185   0.95932   0.00000  Uiso   1.00
C851   C     0.47184   0.76815   0.04068   0.00000  Uiso   1.00
C852   C     0.23186   0.52797   0.95888   0.00000  Uiso   1.00
C853   C     0.46872   0.76110   0.91834   0.00000  Uiso   1.00
C854   C     0.26814   0.97203   0.04112   0.00000  Uiso   1.00
C855   C     0.47158   0.76707   0.95878   0.00000  Uiso   1.00
C856   C     0.02842   0.73293   0.04122   0.00000  Uiso   1.00
C857   C     0.09795   0.84824   0.25001   0.00000  Uiso   1.00
C858   C     0.40205   0.65176   0.74999   0.00000  Uiso   1.00
C859   C     0.15126   0.59749   0.25055   0.00000  Uiso   1.00
C860   C     0.34874   0.90251   0.74945   0.00000  Uiso   1.00
C861   C     0.40189   0.65193   0.25001   0.00000  Uiso   1.00
C862   C     0.09811   0.84807   0.74999   0.00000  Uiso   1.00
C863   C     0.34783   0.90165   0.25047   0.00000  Uiso   1.00
C864   C     0.03129   0.73890   0.08166   0.00000  Uiso   1.00
C865   C     0.15217   0.59836   0.74953   0.00000  Uiso   1.00
C866   C     0.09783   0.65165   0.75047   0.00000  Uiso   1.00
C867   C     0.40217   0.84836   0.24953   0.00000  Uiso   1.00
C868   C     0.15189   0.90193   0.75001   0.00000  Uiso   1.00
C869   C     0.34811   0.59807   0.24999   0.00000  Uiso   1.00
C870   C     0.40126   0.84749   0.75055   0.00000  Uiso   1.00
C871   C     0.09874   0.65251   0.24945   0.00000  Uiso   1.00
C872   C     0.34795   0.59824   0.75001   0.00000  Uiso   1.00
C873   C     0.15205   0.90176   0.24999   0.00000  Uiso   1.00
C874   C     0.00001   0.75001   0.47951   0.00000  Uiso   1.00
C875   C     0.26277   0.96923   0.91857   0.00000  Uiso   1.00
C876   C     0.49999   0.74999   0.52049   0.00000  Uiso   1.00
C877   C     0.24996   0.99976   0.47953   0.00000  Uiso   1.00
C878   C     0.25004   0.50024   0.52047   0.00000  Uiso   1.00
C879   C     0.25001   0.50001   0.97951   0.00000  Uiso   1.00
C880   C     0.24999   0.99999   0.02049   0.00000  Uiso   1.00
C881   C     0.49996   0.74976   0.97953   0.00000  Uiso   1.00
C882   C     0.00004   0.75025   0.02047   0.00000  Uiso   1.00
C883   C     0.15697   0.89896   0.17704   0.00000  Uiso   1.00
C884   C     0.34303   0.60104   0.82296   0.00000  Uiso   1.00
C885   C     0.07567   0.62930   0.18408   0.00000  Uiso   1.00
C886   C     0.23723   0.53077   0.08143   0.00000  Uiso   1.00
C887   C     0.42434   0.87070   0.81592   0.00000  Uiso   1.00
C888   C     0.34015   0.60364   0.17764   0.00000  Uiso   1.00
C889   C     0.15986   0.89636   0.82236   0.00000  Uiso   1.00
C890   C     0.44618   0.89072   0.28296   0.00000  Uiso   1.00
C891   C     0.05382   0.60928   0.71704   0.00000  Uiso   1.00
C892   C     0.10841   0.55247   0.72082   0.00000  Uiso   1.00
C893   C     0.39159   0.94753   0.27918   0.00000  Uiso   1.00
C894   C     0.10403   0.83981   0.82227   0.00000  Uiso   1.00
C895   C     0.39597   0.66019   0.17772   0.00000  Uiso   1.00
C896   C     0.37297   0.92587   0.81431   0.00000  Uiso   1.00
C897   C     0.03074   0.73694   0.91867   0.00000  Uiso   1.00
C898   C     0.12703   0.57413   0.18569   0.00000  Uiso   1.00
C899   C     0.39983   0.65604   0.82287   0.00000  Uiso   1.00
C900   C     0.10017   0.84396   0.17713   0.00000  Uiso   1.00
C901   C     0.40697   0.64896   0.67704   0.00000  Uiso   1.00
C902   C     0.09303   0.85104   0.32296   0.00000  Uiso   1.00
C903   C     0.32566   0.87930   0.68408   0.00000  Uiso   1.00
C904   C     0.17434   0.62070   0.31592   0.00000  Uiso   1.00
C905   C     0.09014   0.85364   0.67764   0.00000  Uiso   1.00
C906   C     0.40985   0.64636   0.32236   0.00000  Uiso   1.00
C907   C     0.19618   0.64072   0.78296   0.00000  Uiso   1.00
C908   C     0.46926   0.76306   0.08133   0.00000  Uiso   1.00
C909   C     0.30382   0.85928   0.21704   0.00000  Uiso   1.00
C910   C     0.35841   0.80247   0.22082   0.00000  Uiso   1.00
C911   C     0.14159   0.69753   0.77918   0.00000  Uiso   1.00
C912   C     0.35403   0.58981   0.32227   0.00000  Uiso   1.00
C913   C     0.14597   0.91019   0.67772   0.00000  Uiso   1.00
C914   C     0.12297   0.67587   0.31431   0.00000  Uiso   1.00
C915   C     0.37703   0.82413   0.68569   0.00000  Uiso   1.00
C916   C     0.14983   0.90604   0.32287   0.00000  Uiso   1.00
C917   C     0.35017   0.59396   0.67713   0.00000  Uiso   1.00
C918   C     0.48436   0.81668   0.39838   0.00000  Uiso   1.00
C919   C     0.00009   0.74999   0.39809   0.00000  Uiso   1.00
C920   C     0.01564   0.68332   0.60162   0.00000  Uiso   1.00
C921   C     0.18216   0.51079   0.39913   0.00000  Uiso   1.00
C922   C     0.31784   0.98921   0.60087   0.00000  Uiso   1.00
C923   C     0.01473   0.68300   0.39912   0.00000  Uiso   1.00
C924   C     0.48527   0.81700   0.60088   0.00000  Uiso   1.00
C925   C     0.31663   0.98400   0.39890   0.00000  Uiso   1.00
C926   C     0.18337   0.51600   0.60110   0.00000  Uiso   1.00
C927   C     0.23436   0.56668   0.89838   0.00000  Uiso   1.00
C928   C     0.26564   0.93332   0.10162   0.00000  Uiso   1.00
C929   C     0.43216   0.76079   0.89913   0.00000  Uiso   1.00
C930   C     0.49991   0.75001   0.60191   0.00000  Uiso   1.00
C931   C     0.06784   0.73921   0.10087   0.00000  Uiso   1.00
C932   C     0.26473   0.93301   0.89912   0.00000  Uiso   1.00
C933   C     0.23527   0.56700   0.10088   0.00000  Uiso   1.00
C934   C     0.06663   0.73400   0.89890   0.00000  Uiso   1.00
C935   C     0.43337   0.76600   0.10110   0.00000  Uiso   1.00
C936   C     0.24992   0.99950   0.39813   0.00000  Uiso   1.00
C937   C     0.01286   0.71933   0.58171   0.00000  Uiso   1.00
C938   C     0.25008   0.50050   0.60187   0.00000  Uiso   1.00
C939   C     0.25009   0.99999   0.89809   0.00000  Uiso   1.00
C940   C     0.24991   0.50001   0.10191   0.00000  Uiso   1.00
C941   C     0.49992   0.74950   0.89813   0.00000  Uiso   1.00
C942   C     0.00008   0.75050   0.10187   0.00000  Uiso   1.00
C943   C     0.04193   0.69867   0.47985   0.00000  Uiso   1.00
C944   C     0.45807   0.80133   0.52015   0.00000  Uiso   1.00
C945   C     0.30192   0.95863   0.48026   0.00000  Uiso   1.00
C946   C     0.19808   0.54137   0.51974   0.00000  Uiso   1.00
C947   C     0.45804   0.80131   0.47927   0.00000  Uiso   1.00
C948   C     0.21872   0.51110   0.41834   0.00000  Uiso   1.00
C949   C     0.04196   0.69869   0.52073   0.00000  Uiso   1.00
C950   C     0.19794   0.54077   0.47886   0.00000  Uiso   1.00
C951   C     0.30206   0.95923   0.52114   0.00000  Uiso   1.00
C952   C     0.29193   0.94867   0.97985   0.00000  Uiso   1.00
C953   C     0.20807   0.55133   0.02015   0.00000  Uiso   1.00
C954   C     0.05192   0.70863   0.98026   0.00000  Uiso   1.00
C955   C     0.44808   0.79137   0.01974   0.00000  Uiso   1.00
C956   C     0.20804   0.55131   0.97927   0.00000  Uiso   1.00
C957   C     0.29197   0.94869   0.02073   0.00000  Uiso   1.00
C958   C     0.44794   0.79077   0.97886   0.00000  Uiso   1.00
C959   C     0.28129   0.98890   0.58166   0.00000  Uiso   1.00
C960   C     0.05206   0.70923   0.02114   0.00000  Uiso   1.00
C961   C     0.25017   0.99991   0.35574   0.00000  Uiso   1.00
C962   C     0.24983   0.50009   0.64426   0.00000  Uiso   1.00
C963   C     0.00005   0.75002   0.35573   0.00000  Uiso   1.00
C964   C     0.49996   0.74998   0.64427   0.00000  Uiso   1.00
C965   C     0.00017   0.74991   0.85574   0.00000  Uiso   1.00
C966   C     0.49983   0.75009   0.14426   0.00000  Uiso   1.00
C967   C     0.25005   0.50002   0.85573   0.00000  Uiso   1.00
C968   C     0.24996   0.99998   0.14427   0.00000  Uiso   1.00
C969   C     0.17974   0.56979   0.25024   0.00000  Uiso   1.00
C970   C     0.01277   0.71923   0.41857   0.00000  Uiso   1.00
C971   C     0.32026   0.93021   0.74976   0.00000  Uiso   1.00
C972   C     0.43007   0.68003   0.25003   0.00000  Uiso   1.00
C973   C     0.06993   0.81997   0.74997   0.00000  Uiso   1.00
C974   C     0.31973   0.92976   0.24977   0.00000  Uiso   1.00
C975   C     0.18027   0.57024   0.75022   0.00000  Uiso   1.00
C976   C     0.07000   0.81995   0.24993   0.00000  Uiso   1.00
C977   C     0.43000   0.68005   0.75007   0.00000  Uiso   1.00
C978   C     0.18007   0.93003   0.75003   0.00000  Uiso   1.00
C979   C     0.31993   0.56997   0.24997   0.00000  Uiso   1.00
C980   C     0.42974   0.81979   0.75024   0.00000  Uiso   1.00
C981   C     0.48723   0.78077   0.58143   0.00000  Uiso   1.00
C982   C     0.07026   0.68021   0.24976   0.00000  Uiso   1.00
C983   C     0.32000   0.56995   0.74993   0.00000  Uiso   1.00
C984   C     0.18000   0.93005   0.25006   0.00000  Uiso   1.00
C985   C     0.06973   0.67976   0.74977   0.00000  Uiso   1.00
C986   C     0.43027   0.82024   0.25022   0.00000  Uiso   1.00
C987   C     0.13939   0.88772   0.21418   0.00000  Uiso   1.00
C988   C     0.36061   0.61228   0.78582   0.00000  Uiso   1.00
C989   C     0.10030   0.62718   0.21844   0.00000  Uiso   1.00
C990   C     0.39970   0.87282   0.78156   0.00000  Uiso   1.00
C991   C     0.35918   0.61370   0.21433   0.00000  Uiso   1.00
C992   C     0.28074   0.98694   0.41867   0.00000  Uiso   1.00
C993   C     0.14082   0.88629   0.78566   0.00000  Uiso   1.00
C994   C     0.41019   0.88328   0.26454   0.00000  Uiso   1.00
C995   C     0.08981   0.61672   0.73546   0.00000  Uiso   1.00
C996   C     0.11703   0.58981   0.73523   0.00000  Uiso   1.00
C997   C     0.38297   0.91019   0.26477   0.00000  Uiso   1.00
C998   C     0.11380   0.85911   0.78565   0.00000  Uiso   1.00
C999   C     0.38620   0.64089   0.21435   0.00000  Uiso   1.00
C1000  C     0.37384   0.90040   0.78081   0.00000  Uiso   1.00
C1001  C     0.12616   0.59960   0.21919   0.00000  Uiso   1.00
C1002  C     0.38800   0.63904   0.78577   0.00000  Uiso   1.00
C1003  C     0.21926   0.51306   0.58133   0.00000  Uiso   1.00
C1004  C     0.11200   0.86096   0.21423   0.00000  Uiso   1.00
C1005  C     0.38939   0.63772   0.71418   0.00000  Uiso   1.00
C1006  C     0.11061   0.86228   0.28582   0.00000  Uiso   1.00
C1007  C     0.35030   0.87718   0.71844   0.00000  Uiso   1.00
C1008  C     0.14970   0.62282   0.28156   0.00000  Uiso   1.00
C1009  C     0.10918   0.86371   0.71433   0.00000  Uiso   1.00
C1010  C     0.39082   0.63630   0.28566   0.00000  Uiso   1.00
C1011  C     0.16019   0.63328   0.76454   0.00000  Uiso   1.00
C1012  C     0.33981   0.86672   0.23546   0.00000  Uiso   1.00
C1013  C     0.36703   0.83981   0.23523   0.00000  Uiso   1.00
C1014  C     0.23714   0.53067   0.91829   0.00000  Uiso   1.00
C1015  C     0.13297   0.66019   0.76477   0.00000  Uiso   1.00
C1016  C     0.36380   0.60911   0.28565   0.00000  Uiso   1.00
C1017  C     0.13620   0.89089   0.71435   0.00000  Uiso   1.00
C1018  C     0.12384   0.65040   0.28081   0.00000  Uiso   1.00
C1019  C     0.37616   0.84960   0.71919   0.00000  Uiso   1.00
C1020  C     0.13800   0.88904   0.28577   0.00000  Uiso   1.00
C1021  C     0.36200   0.61096   0.71423   0.00000  Uiso   1.00
C1022  C     0.01813   0.72202   0.45916   0.00000  Uiso   1.00
C1023  C     0.48187   0.77798   0.54084   0.00000  Uiso   1.00
C1024  C     0.27816   0.98185   0.45932   0.00000  Uiso   1.00
H1025  H     0.20352   0.90537   0.14699   0.00000  Uiso   1.00
H1026  H     0.42659   0.99001   0.27933   0.00000  Uiso   1.00
H1027  H     0.09966   0.79193   0.85047   0.00000  Uiso   1.00
H1028  H     0.40035   0.70807   0.14952   0.00000  Uiso   1.00
H1029  H     0.35586   0.93554   0.86885   0.00000  Uiso   1.00
H1030  H     0.14414   0.56446   0.13115   0.00000  Uiso   1.00
H1031  H     0.40110   0.70085   0.85623   0.00000  Uiso   1.00
H1032  H     0.09890   0.79916   0.14377   0.00000  Uiso   1.00
H1033  H     0.45352   0.65537   0.64699   0.00000  Uiso   1.00
H1034  H     0.04648   0.84463   0.35301   0.00000  Uiso   1.00
H1035  H     0.31130   0.90616   0.63543   0.00000  Uiso   1.00
H1036  H     0.29648   0.59463   0.85301   0.00000  Uiso   1.00
H1037  H     0.18870   0.59384   0.36457   0.00000  Uiso   1.00
H1038  H     0.04269   0.85037   0.64847   0.00000  Uiso   1.00
H1039  H     0.45730   0.64964   0.35153   0.00000  Uiso   1.00
H1040  H     0.25076   0.64237   0.77736   0.00000  Uiso   1.00
H1041  H     0.24924   0.85763   0.22264   0.00000  Uiso   1.00
H1042  H     0.32341   0.75999   0.22067   0.00000  Uiso   1.00
H1043  H     0.17659   0.74001   0.77933   0.00000  Uiso   1.00
H1044  H     0.34965   0.54193   0.35047   0.00000  Uiso   1.00
H1045  H     0.15034   0.95807   0.64953   0.00000  Uiso   1.00
H1046  H     0.10586   0.68554   0.36885   0.00000  Uiso   1.00
H1047  H     0.06130   0.65616   0.13543   0.00000  Uiso   1.00
H1048  H     0.39414   0.81446   0.63115   0.00000  Uiso   1.00
H1049  H     0.15110   0.95084   0.35623   0.00000  Uiso   1.00
H1050  H     0.34890   0.54915   0.64377   0.00000  Uiso   1.00
H1051  H     0.49441   0.87064   0.40108   0.00000  Uiso   1.00
H1052  H     0.00559   0.62936   0.59891   0.00000  Uiso   1.00
H1053  H     0.12836   0.50082   0.40474   0.00000  Uiso   1.00
H1054  H     0.37164   0.99918   0.59526   0.00000  Uiso   1.00
H1055  H     0.00527   0.62899   0.40327   0.00000  Uiso   1.00
H1056  H     0.49473   0.87101   0.59673   0.00000  Uiso   1.00
H1057  H     0.37060   0.99413   0.40148   0.00000  Uiso   1.00
H1058  H     0.43870   0.84384   0.86457   0.00000  Uiso   1.00
H1059  H     0.12940   0.50587   0.59852   0.00000  Uiso   1.00
H1060  H     0.24441   0.62064   0.90108   0.00000  Uiso   1.00
H1061  H     0.25559   0.87936   0.09891   0.00000  Uiso   1.00
H1062  H     0.37836   0.75082   0.90474   0.00000  Uiso   1.00
H1063  H     0.12164   0.74918   0.09526   0.00000  Uiso   1.00
H1064  H     0.25527   0.87899   0.90327   0.00000  Uiso   1.00
H1065  H     0.24473   0.62101   0.09673   0.00000  Uiso   1.00
H1066  H     0.12060   0.74413   0.90148   0.00000  Uiso   1.00
H1067  H     0.37940   0.75587   0.09852   0.00000  Uiso   1.00
H1068  H     0.29270   0.60037   0.14847   0.00000  Uiso   1.00
H1069  H     0.20731   0.89963   0.85153   0.00000  Uiso   1.00
H1070  H     0.00076   0.89237   0.27736   0.00000  Uiso   1.00
H1071  H     0.49924   0.60763   0.72264   0.00000  Uiso   1.00
H1072  H     0.07341   0.50999   0.72067   0.00000  Uiso   1.00
O1073  O     0.25000   0.50000   0.25000   0.00000  Uiso   1.00
O1074  O     0.25000   0.96964   0.66245   0.00000  Uiso   1.00
O1075  O     0.27186   0.86341   0.23845   0.00000  Uiso   1.00
O1076  O     0.37939   0.78689   0.19902   0.00000  Uiso   1.00
O1077  O     0.32620   0.78518   0.23230   0.00000  Uiso   1.00
O1078  O     0.12061   0.71311   0.80098   0.00000  Uiso   1.00
O1079  O     0.17380   0.71482   0.76769   0.00000  Uiso   1.00
O1080  O     0.34182   0.60667   0.34989   0.00000  Uiso   1.00
O1081  O     0.35783   0.55206   0.32449   0.00000  Uiso   1.00
O1082  O     0.15817   0.89334   0.65011   0.00000  Uiso   1.00
O1083  O     0.14217   0.94794   0.67551   0.00000  Uiso   1.00
O1084  O     0.13933   0.70488   0.31248   0.00000  Uiso   1.00
O1085  O     0.46964   0.75000   0.33755   0.00000  Uiso   1.00
O1086  O     0.10429   0.66605   0.34807   0.00000  Uiso   1.00
O1087  O     0.36067   0.79512   0.68752   0.00000  Uiso   1.00
O1088  O     0.39571   0.83395   0.65193   0.00000  Uiso   1.00
O1089  O     0.16710   0.88840   0.34673   0.00000  Uiso   1.00
O1090  O     0.14187   0.94252   0.32990   0.00000  Uiso   1.00
O1091  O     0.33291   0.61160   0.65327   0.00000  Uiso   1.00
O1092  O     0.35812   0.55748   0.67011   0.00000  Uiso   1.00
O1093  O     0.47020   0.81945   0.36626   0.00000  Uiso   1.00
O1094  O     0.49794   0.84771   0.41706   0.00000  Uiso   1.00
O1095  O     0.02980   0.68055   0.63374   0.00000  Uiso   1.00
O1096  O     0.03037   0.75000   0.66245   0.00000  Uiso   1.00
O1097  O     0.00206   0.65229   0.58294   0.00000  Uiso   1.00
O1098  O     0.17858   0.51905   0.36487   0.00000  Uiso   1.00
O1099  O     0.15166   0.99995   0.42056   0.00000  Uiso   1.00
O1100  O     0.32142   0.98095   0.63513   0.00000  Uiso   1.00
O1101  O     0.34834   0.50005   0.57943   0.00000  Uiso   1.00
O1102  O     0.02682   0.67998   0.36620   0.00000  Uiso   1.00
O1103  O     0.00237   0.65210   0.41899   0.00000  Uiso   1.00
O1104  O     0.47318   0.82002   0.63380   0.00000  Uiso   1.00
O1105  O     0.49763   0.84790   0.58100   0.00000  Uiso   1.00
O1106  O     0.31930   0.96902   0.36732   0.00000  Uiso   1.00
O1107  O     0.00000   0.71964   0.83755   0.00000  Uiso   1.00
O1108  O     0.34767   0.99813   0.41719   0.00000  Uiso   1.00
O1109  O     0.18070   0.53098   0.63268   0.00000  Uiso   1.00
O1110  O     0.15233   0.50187   0.58281   0.00000  Uiso   1.00
O1111  O     0.22020   0.56945   0.86626   0.00000  Uiso   1.00
O1112  O     0.24794   0.59771   0.91706   0.00000  Uiso   1.00
O1113  O     0.27980   0.93055   0.13374   0.00000  Uiso   1.00
O1114  O     0.25206   0.90229   0.08294   0.00000  Uiso   1.00
O1115  O     0.42858   0.76905   0.86487   0.00000  Uiso   1.00
O1116  O     0.40166   0.74995   0.92057   0.00000  Uiso   1.00
O1117  O     0.07142   0.73095   0.13513   0.00000  Uiso   1.00
O1118  O     0.00000   0.78037   0.16245   0.00000  Uiso   1.00
O1119  O     0.09834   0.75005   0.07943   0.00000  Uiso   1.00
O1120  O     0.27683   0.92998   0.86620   0.00000  Uiso   1.00
O1121  O     0.25237   0.90210   0.91899   0.00000  Uiso   1.00
O1122  O     0.22318   0.57002   0.13380   0.00000  Uiso   1.00
O1123  O     0.24763   0.59790   0.08100   0.00000  Uiso   1.00
O1124  O     0.06930   0.71902   0.86732   0.00000  Uiso   1.00
O1125  O     0.09767   0.74813   0.91719   0.00000  Uiso   1.00
O1126  O     0.43070   0.78098   0.13268   0.00000  Uiso   1.00
O1127  O     0.40233   0.75187   0.08281   0.00000  Uiso   1.00
O1128  O     0.28037   0.50000   0.83755   0.00000  Uiso   1.00
O1129  O     0.21964   0.50000   0.16245   0.00000  Uiso   1.00
O1130  O     0.00000   0.78037   0.83755   0.00000  Uiso   1.00
O1131  O     0.00000   0.71964   0.16245   0.00000  Uiso   1.00
O1132  O     0.21964   0.50000   0.83755   0.00000  Uiso   1.00
O1133  O     0.25000   0.50000   0.75000   0.00000  Uiso   1.00
O1134  O     0.28037   0.50000   0.16245   0.00000  Uiso   1.00
O1135  O     0.20725   0.57308   0.27302   0.00000  Uiso   1.00
O1136  O     0.29276   0.92693   0.72698   0.00000  Uiso   1.00
O1137  O     0.42693   0.70725   0.27302   0.00000  Uiso   1.00
O1138  O     0.07308   0.79276   0.72698   0.00000  Uiso   1.00
O1139  O     0.29276   0.92693   0.27302   0.00000  Uiso   1.00
O1140  O     0.20725   0.57308   0.72698   0.00000  Uiso   1.00
O1141  O     0.07308   0.79276   0.27302   0.00000  Uiso   1.00
O1142  O     0.42693   0.70725   0.72698   0.00000  Uiso   1.00
O1143  O     0.20725   0.92693   0.72698   0.00000  Uiso   1.00
O1144  O     0.00000   0.75000   0.25000   0.00000  Uiso   1.00
O1145  O     0.29276   0.57308   0.27302   0.00000  Uiso   1.00
O1146  O     0.42693   0.79276   0.72698   0.00000  Uiso   1.00
O1147  O     0.07308   0.70725   0.27302   0.00000  Uiso   1.00
O1148  O     0.29276   0.57308   0.72698   0.00000  Uiso   1.00
O1149  O     0.20725   0.92693   0.27302   0.00000  Uiso   1.00
O1150  O     0.07308   0.70725   0.72698   0.00000  Uiso   1.00
O1151  O     0.42693   0.79276   0.27302   0.00000  Uiso   1.00
O1152  O     0.45725   0.82308   0.77302   0.00000  Uiso   1.00
O1153  O     0.04276   0.67693   0.22698   0.00000  Uiso   1.00
O1154  O     0.17693   0.95725   0.77302   0.00000  Uiso   1.00
O1155  O     0.00000   0.75000   0.75000   0.00000  Uiso   1.00
O1156  O     0.32308   0.54276   0.22698   0.00000  Uiso   1.00
O1157  O     0.04276   0.67693   0.77302   0.00000  Uiso   1.00
O1158  O     0.45725   0.82308   0.22698   0.00000  Uiso   1.00
O1159  O     0.32308   0.54276   0.77302   0.00000  Uiso   1.00
O1160  O     0.17693   0.95725   0.22698   0.00000  Uiso   1.00
O1161  O     0.45725   0.67693   0.22698   0.00000  Uiso   1.00
O1162  O     0.04276   0.82308   0.77302   0.00000  Uiso   1.00
O1163  O     0.17693   0.54276   0.22698   0.00000  Uiso   1.00
O1164  O     0.32308   0.95725   0.77302   0.00000  Uiso   1.00
O1165  O     0.04276   0.82308   0.22698   0.00000  Uiso   1.00
O1166  O     0.25000   0.96964   0.33755   0.00000  Uiso   1.00
O1167  O     0.45725   0.67693   0.77302   0.00000  Uiso   1.00
O1168  O     0.32308   0.95725   0.22698   0.00000  Uiso   1.00
O1169  O     0.17693   0.54276   0.77302   0.00000  Uiso   1.00
O1170  O     0.13866   0.91106   0.15028   0.00000  Uiso   1.00
O1171  O     0.19471   0.89639   0.17322   0.00000  Uiso   1.00
O1172  O     0.36134   0.58894   0.84972   0.00000  Uiso   1.00
O1173  O     0.30529   0.60361   0.82678   0.00000  Uiso   1.00
O1174  O     0.05211   0.60610   0.17926   0.00000  Uiso   1.00
O1175  O     0.07981   0.65758   0.15731   0.00000  Uiso   1.00
O1176  O     0.44789   0.89390   0.82074   0.00000  Uiso   1.00
O1177  O     0.25000   0.53037   0.66245   0.00000  Uiso   1.00
O1178  O     0.42019   0.84242   0.84269   0.00000  Uiso   1.00
O1179  O     0.35704   0.59018   0.15074   0.00000  Uiso   1.00
O1180  O     0.30260   0.60860   0.17456   0.00000  Uiso   1.00
O1181  O     0.14297   0.90981   0.84927   0.00000  Uiso   1.00
O1182  O     0.19740   0.89140   0.82544   0.00000  Uiso   1.00
O1183  O     0.44769   0.90081   0.31683   0.00000  Uiso   1.00
O1184  O     0.47814   0.88659   0.26155   0.00000  Uiso   1.00
O1185  O     0.05231   0.59919   0.68317   0.00000  Uiso   1.00
O1186  O     0.02186   0.61341   0.73845   0.00000  Uiso   1.00
O1187  O     0.12939   0.53689   0.69902   0.00000  Uiso   1.00
O1188  O     0.03037   0.75000   0.33755   0.00000  Uiso   1.00
O1189  O     0.07620   0.53518   0.73230   0.00000  Uiso   1.00
O1190  O     0.37061   0.96311   0.30098   0.00000  Uiso   1.00
O1191  O     0.42380   0.96482   0.26769   0.00000  Uiso   1.00
O1192  O     0.09182   0.85666   0.84989   0.00000  Uiso   1.00
O1193  O     0.10784   0.80206   0.82449   0.00000  Uiso   1.00
O1194  O     0.40818   0.64333   0.15011   0.00000  Uiso   1.00
O1195  O     0.39217   0.69794   0.17551   0.00000  Uiso   1.00
O1196  O     0.38933   0.95488   0.81248   0.00000  Uiso   1.00
O1197  O     0.35429   0.91605   0.84807   0.00000  Uiso   1.00
O1198  O     0.11067   0.54512   0.18752   0.00000  Uiso   1.00
O1199  O     0.46964   0.75000   0.66245   0.00000  Uiso   1.00
O1200  O     0.14571   0.58395   0.15193   0.00000  Uiso   1.00
O1201  O     0.41710   0.63840   0.84673   0.00000  Uiso   1.00
O1202  O     0.39187   0.69252   0.82990   0.00000  Uiso   1.00
O1203  O     0.08290   0.86160   0.15327   0.00000  Uiso   1.00
O1204  O     0.10813   0.80748   0.17010   0.00000  Uiso   1.00
O1205  O     0.38866   0.66106   0.65028   0.00000  Uiso   1.00
O1206  O     0.44471   0.64638   0.67322   0.00000  Uiso   1.00
O1207  O     0.11134   0.83894   0.34972   0.00000  Uiso   1.00
O1208  O     0.05529   0.85361   0.32678   0.00000  Uiso   1.00
O1209  O     0.30211   0.85610   0.67926   0.00000  Uiso   1.00
O1210  O     0.25000   0.53037   0.33755   0.00000  Uiso   1.00
O1211  O     0.32981   0.90758   0.65731   0.00000  Uiso   1.00
O1212  O     0.19789   0.64390   0.32074   0.00000  Uiso   1.00
O1213  O     0.17019   0.59242   0.34269   0.00000  Uiso   1.00
O1214  O     0.10703   0.84019   0.65073   0.00000  Uiso   1.00
O1215  O     0.05260   0.85860   0.67456   0.00000  Uiso   1.00
O1216  O     0.39296   0.65982   0.34926   0.00000  Uiso   1.00
O1217  O     0.44740   0.64140   0.32544   0.00000  Uiso   1.00
O1218  O     0.19769   0.65081   0.81683   0.00000  Uiso   1.00
O1219  O     0.22814   0.63659   0.76154   0.00000  Uiso   1.00
O1220  O     0.30231   0.84919   0.18317   0.00000  Uiso   1.00
Zn1221 Zn    0.20660   0.50000   0.21735   0.00000  Uiso   1.00
Zn1222 Zn    0.04341   0.75000   0.28265   0.00000  Uiso   1.00
Zn1223 Zn    0.25000   0.95660   0.71735   0.00000  Uiso   1.00
Zn1224 Zn    0.25000   0.54341   0.28265   0.00000  Uiso   1.00
Zn1225 Zn    0.04341   0.75000   0.71735   0.00000  Uiso   1.00
Zn1226 Zn    0.45660   0.75000   0.28265   0.00000  Uiso   1.00
Zn1227 Zn    0.25000   0.54341   0.71735   0.00000  Uiso   1.00
Zn1228 Zn    0.25000   0.95660   0.28265   0.00000  Uiso   1.00
Zn1229 Zn    0.29341   0.50000   0.78265   0.00000  Uiso   1.00
Zn1230 Zn    0.00000   0.70660   0.21735   0.00000  Uiso   1.00
Zn1231 Zn    0.00000   0.79341   0.78265   0.00000  Uiso   1.00
Zn1232 Zn    0.29341   0.50000   0.21735   0.00000  Uiso   1.00
Zn1233 Zn    0.20660   0.50000   0.78265   0.00000  Uiso   1.00
Zn1234 Zn    0.00000   0.79341   0.21735   0.00000  Uiso   1.00
Zn1235 Zn    0.00000   0.70660   0.78265   0.00000  Uiso   1.00
Zn1236 Zn    0.45660   0.75000   0.71735   0.00000  Uiso   1.00
Br1237 Br    0.57985   0.67202   0.45325   0.00000  Uiso   1.00
Br1238 Br    0.67015   0.57798   0.04675   0.00000  Uiso   1.00
Br1239 Br    0.57888   0.67056   0.95424   0.00000  Uiso   1.00
Br1240 Br    0.92112   0.82944   0.04576   0.00000  Uiso   1.00
Br1241 Br    0.66996   0.57780   0.95231   0.00000  Uiso   1.00
Br1242 Br    0.83004   0.92220   0.04769   0.00000  Uiso   1.00
Br1243 Br    0.92072   0.82782   0.95118   0.00000  Uiso   1.00
Br1244 Br    0.57928   0.67218   0.04882   0.00000  Uiso   1.00
Br1245 Br    0.92015   0.82798   0.54675   0.00000  Uiso   1.00
Br1246 Br    0.82888   0.92056   0.45424   0.00000  Uiso   1.00
Br1247 Br    0.67112   0.57944   0.54576   0.00000  Uiso   1.00
Br1248 Br    0.91996   0.82780   0.45231   0.00000  Uiso   1.00
Br1249 Br    0.58004   0.67220   0.54769   0.00000  Uiso   1.00
Br1250 Br    0.67072   0.57782   0.45118   0.00000  Uiso   1.00
Br1251 Br    0.82928   0.92218   0.54882   0.00000  Uiso   1.00
Br1252 Br    0.82985   0.92202   0.95325   0.00000  Uiso   1.00
C1253  C     0.98714   0.78067   0.41829   0.00000  Uiso   1.00
C1254  C     0.76286   0.96933   0.08171   0.00000  Uiso   1.00
C1255  C     0.72184   0.51815   0.54068   0.00000  Uiso   1.00
C1256  C     0.98186   0.77797   0.45888   0.00000  Uiso   1.00
C1257  C     0.51814   0.72203   0.54112   0.00000  Uiso   1.00
C1258  C     0.72158   0.51707   0.45878   0.00000  Uiso   1.00
C1259  C     0.77842   0.98293   0.54122   0.00000  Uiso   1.00
C1260  C     0.76813   0.97202   0.95916   0.00000  Uiso   1.00
C1261  C     0.73187   0.52798   0.04084   0.00000  Uiso   1.00
C1262  C     0.52816   0.73185   0.95932   0.00000  Uiso   1.00
C1263  C     0.97184   0.76815   0.04068   0.00000  Uiso   1.00
C1264  C     0.73186   0.52797   0.95888   0.00000  Uiso   1.00
C1265  C     0.96872   0.76110   0.91834   0.00000  Uiso   1.00
C1266  C     0.76814   0.97203   0.04112   0.00000  Uiso   1.00
C1267  C     0.97158   0.76707   0.95878   0.00000  Uiso   1.00
C1268  C     0.52842   0.73293   0.04122   0.00000  Uiso   1.00
C1269  C     0.59795   0.84824   0.25001   0.00000  Uiso   1.00
C1270  C     0.90205   0.65176   0.74999   0.00000  Uiso   1.00
C1271  C     0.65126   0.59749   0.25055   0.00000  Uiso   1.00
C1272  C     0.84874   0.90251   0.74945   0.00000  Uiso   1.00
C1273  C     0.90189   0.65193   0.25001   0.00000  Uiso   1.00
C1274  C     0.59811   0.84807   0.74999   0.00000  Uiso   1.00
C1275  C     0.84783   0.90165   0.25047   0.00000  Uiso   1.00
C1276  C     0.53129   0.73890   0.08166   0.00000  Uiso   1.00
C1277  C     0.65217   0.59836   0.74953   0.00000  Uiso   1.00
C1278  C     0.59783   0.65165   0.75047   0.00000  Uiso   1.00
C1279  C     0.90217   0.84836   0.24953   0.00000  Uiso   1.00
C1280  C     0.65189   0.90193   0.75001   0.00000  Uiso   1.00
C1281  C     0.84811   0.59807   0.24999   0.00000  Uiso   1.00
C1282  C     0.90126   0.84749   0.75055   0.00000  Uiso   1.00
C1283  C     0.59874   0.65251   0.24945   0.00000  Uiso   1.00
C1284  C     0.84795   0.59824   0.75001   0.00000  Uiso   1.00
C1285  C     0.65205   0.90176   0.24999   0.00000  Uiso   1.00
C1286  C     0.50001   0.75001   0.47951   0.00000  Uiso   1.00
C1287  C     0.76277   0.96923   0.91857   0.00000  Uiso   1.00
C1288  C     0.99999   0.74999   0.52049   0.00000  Uiso   1.00
C1289  C     0.74996   0.99976   0.47953   0.00000  Uiso   1.00
C1290  C     0.75004   0.50024   0.52047   0.00000  Uiso   1.00
C1291  C     0.75001   0.50001   0.97951   0.00000  Uiso   1.00
C1292  C     0.74999   0.99999   0.02049   0.00000  Uiso   1.00
C1293  C     0.99996   0.74976   0.97953   0.00000  Uiso   1.00
C1294  C     0.50004   0.75025   0.02047   0.00000  Uiso   1.00
C1295  C     0.65697   0.89896   0.17704   0.00000  Uiso   1.00
C1296  C     0.84303   0.60104   0.82296   0.00000  Uiso   1.00
C1297  C     0.57567   0.62930   0.18408   0.00000  Uiso   1.00
C1298  C     0.73723   0.53077   0.08143   0.00000  Uiso   1.00
C1299  C     0.92434   0.87070   0.81592   0.00000  Uiso   1.00
C1300  C     0.84015   0.60364   0.17764   0.00000  Uiso   1.00
C1301  C     0.65986   0.89636   0.82236   0.00000  Uiso   1.00
C1302  C     0.94618   0.89072   0.28296   0.00000  Uiso   1.00
C1303  C     0.55382   0.60928   0.71704   0.00000  Uiso   1.00
C1304  C     0.60841   0.55247   0.72082   0.00000  Uiso   1.00
C1305  C     0.89159   0.94753   0.27918   0.00000  Uiso   1.00
C1306  C     0.60403   0.83981   0.82227   0.00000  Uiso   1.00
C1307  C     0.89597   0.66019   0.17772   0.00000  Uiso   1.00
C1308  C     0.87297   0.92587   0.81431   0.00000  Uiso   1.00
C1309  C     0.53074   0.73694   0.91867   0.00000  Uiso   1.00
C1310  C     0.62703   0.57413   0.18569   0.00000  Uiso   1.00
C1311  C     0.89983   0.65604   0.82287   0.00000  Uiso   1.00
C1312  C     0.60017   0.84396   0.17713   0.00000  Uiso   1.00
C1313  C     0.90697   0.64896   0.67704   0.00000  Uiso   1.00
C1314  C     0.59303   0.85104   0.32296   0.00000  Uiso   1.00
C1315  C     0.82566   0.87930   0.68408   0.00000  Uiso   1.00
C1316  C     0.67434   0.62070   0.31592   0.00000  Uiso   1.00
C1317  C     0.59014   0.85364   0.67764   0.00000  Uiso   1.00
C1318  C     0.90985   0.64636   0.32236   0.00000  Uiso   1.00
C1319  C     0.69618   0.64072   0.78296   0.00000  Uiso   1.00
C1320  C     0.96926   0.76306   0.08133   0.00000  Uiso   1.00
C1321  C     0.80382   0.85928   0.21704   0.00000  Uiso   1.00
C1322  C     0.85841   0.80247   0.22082   0.00000  Uiso   1.00
C1323  C     0.64159   0.69753   0.77918   0.00000  Uiso   1.00
C1324  C     0.85403   0.58981   0.32227   0.00000  Uiso   1.00
C1325  C     0.64597   0.91019   0.67772   0.00000  Uiso   1.00
C1326  C     0.62297   0.67587   0.31431   0.00000  Uiso   1.00
C1327  C     0.87703   0.82413   0.68569   0.00000  Uiso   1.00
C1328  C     0.64983   0.90604   0.32287   0.00000  Uiso   1.00
C1329  C     0.85017   0.59396   0.67713   0.00000  Uiso   1.00
C1330  C     0.98436   0.81668   0.39838   0.00000  Uiso   1.00
C1331  C     0.50009   0.74999   0.39809   0.00000  Uiso   1.00
C1332  C     0.51564   0.68332   0.60162   0.00000  Uiso   1.00
C1333  C     0.68216   0.51079   0.39913   0.00000  Uiso   1.00
C1334  C     0.81784   0.98921   0.60087   0.00000  Uiso   1.00
C1335  C     0.51473   0.68300   0.39912   0.00000  Uiso   1.00
C1336  C     0.98527   0.81700   0.60088   0.00000  Uiso   1.00
C1337  C     0.81663   0.98400   0.39890   0.00000  Uiso   1.00
C1338  C     0.68337   0.51600   0.60110   0.00000  Uiso   1.00
C1339  C     0.73436   0.56668   0.89838   0.00000  Uiso   1.00
C1340  C     0.76564   0.93332   0.10162   0.00000  Uiso   1.00
C1341  C     0.93216   0.76079   0.89913   0.00000  Uiso   1.00
C1342  C     0.99991   0.75001   0.60191   0.00000  Uiso   1.00
C1343  C     0.56784   0.73921   0.10087   0.00000  Uiso   1.00
C1344  C     0.76473   0.93301   0.89912   0.00000  Uiso   1.00
C1345  C     0.73527   0.56700   0.10088   0.00000  Uiso   1.00
C1346  C     0.56663   0.73400   0.89890   0.00000  Uiso   1.00
C1347  C     0.93337   0.76600   0.10110   0.00000  Uiso   1.00
C1348  C     0.74992   0.99950   0.39813   0.00000  Uiso   1.00
C1349  C     0.51286   0.71933   0.58171   0.00000  Uiso   1.00
C1350  C     0.75008   0.50050   0.60187   0.00000  Uiso   1.00
C1351  C     0.75009   0.99999   0.89809   0.00000  Uiso   1.00
C1352  C     0.74991   0.50001   0.10191   0.00000  Uiso   1.00
C1353  C     0.99992   0.74950   0.89813   0.00000  Uiso   1.00
C1354  C     0.50008   0.75050   0.10187   0.00000  Uiso   1.00
C1355  C     0.54193   0.69867   0.47985   0.00000  Uiso   1.00
C1356  C     0.95807   0.80133   0.52015   0.00000  Uiso   1.00
C1357  C     0.80192   0.95863   0.48026   0.00000  Uiso   1.00
C1358  C     0.69808   0.54137   0.51974   0.00000  Uiso   1.00
C1359  C     0.95804   0.80131   0.47927   0.00000  Uiso   1.00
C1360  C     0.71872   0.51110   0.41834   0.00000  Uiso   1.00
C1361  C     0.54196   0.69869   0.52073   0.00000  Uiso   1.00
C1362  C     0.69794   0.54077   0.47886   0.00000  Uiso   1.00
C1363  C     0.80206   0.95923   0.52114   0.00000  Uiso   1.00
C1364  C     0.79193   0.94867   0.97985   0.00000  Uiso   1.00
C1365  C     0.70807   0.55133   0.02015   0.00000  Uiso   1.00
C1366  C     0.55192   0.70863   0.98026   0.00000  Uiso   1.00
C1367  C     0.94808   0.79137   0.01974   0.00000  Uiso   1.00
C1368  C     0.70804   0.55131   0.97927   0.00000  Uiso   1.00
C1369  C     0.79197   0.94869   0.02073   0.00000  Uiso   1.00
C1370  C     0.94794   0.79077   0.97886   0.00000  Uiso   1.00
C1371  C     0.78129   0.98890   0.58166   0.00000  Uiso   1.00
C1372  C     0.55206   0.70923   0.02114   0.00000  Uiso   1.00
C1373  C     0.75017   0.99991   0.35574   0.00000  Uiso   1.00
C1374  C     0.74983   0.50009   0.64426   0.00000  Uiso   1.00
C1375  C     0.50005   0.75002   0.35573   0.00000  Uiso   1.00
C1376  C     0.99996   0.74998   0.64427   0.00000  Uiso   1.00
C1377  C     0.50017   0.74991   0.85574   0.00000  Uiso   1.00
C1378  C     0.99983   0.75009   0.14426   0.00000  Uiso   1.00
C1379  C     0.75005   0.50002   0.85573   0.00000  Uiso   1.00
C1380  C     0.74996   0.99998   0.14427   0.00000  Uiso   1.00
C1381  C     0.67974   0.56979   0.25024   0.00000  Uiso   1.00
C1382  C     0.51277   0.71923   0.41857   0.00000  Uiso   1.00
C1383  C     0.82026   0.93021   0.74976   0.00000  Uiso   1.00
C1384  C     0.93007   0.68003   0.25003   0.00000  Uiso   1.00
C1385  C     0.56993   0.81997   0.74997   0.00000  Uiso   1.00
C1386  C     0.81973   0.92976   0.24977   0.00000  Uiso   1.00
C1387  C     0.68027   0.57024   0.75022   0.00000  Uiso   1.00
C1388  C     0.57000   0.81995   0.24993   0.00000  Uiso   1.00
C1389  C     0.93000   0.68005   0.75007   0.00000  Uiso   1.00
C1390  C     0.68007   0.93003   0.75003   0.00000  Uiso   1.00
C1391  C     0.81993   0.56997   0.24997   0.00000  Uiso   1.00
C1392  C     0.92974   0.81979   0.75024   0.00000  Uiso   1.00
C1393  C     0.98723   0.78077   0.58143   0.00000  Uiso   1.00
C1394  C     0.57026   0.68021   0.24976   0.00000  Uiso   1.00
C1395  C     0.82000   0.56995   0.74993   0.00000  Uiso   1.00
C1396  C     0.68000   0.93005   0.25006   0.00000  Uiso   1.00
C1397  C     0.56973   0.67976   0.74977   0.00000  Uiso   1.00
C1398  C     0.93027   0.82024   0.25022   0.00000  Uiso   1.00
C1399  C     0.63939   0.88772   0.21418   0.00000  Uiso   1.00
C1400  C     0.86061   0.61228   0.78582   0.00000  Uiso   1.00
C1401  C     0.60030   0.62718   0.21844   0.00000  Uiso   1.00
C1402  C     0.89970   0.87282   0.78156   0.00000  Uiso   1.00
C1403  C     0.85918   0.61370   0.21433   0.00000  Uiso   1.00
C1404  C     0.78074   0.98694   0.41867   0.00000  Uiso   1.00
C1405  C     0.64082   0.88629   0.78566   0.00000  Uiso   1.00
C1406  C     0.91019   0.88328   0.26454   0.00000  Uiso   1.00
C1407  C     0.58981   0.61672   0.73546   0.00000  Uiso   1.00
C1408  C     0.61703   0.58981   0.73523   0.00000  Uiso   1.00
C1409  C     0.88297   0.91019   0.26477   0.00000  Uiso   1.00
C1410  C     0.61380   0.85911   0.78565   0.00000  Uiso   1.00
C1411  C     0.88620   0.64089   0.21435   0.00000  Uiso   1.00
C1412  C     0.87384   0.90040   0.78081   0.00000  Uiso   1.00
C1413  C     0.62616   0.59960   0.21919   0.00000  Uiso   1.00
C1414  C     0.88800   0.63904   0.78577   0.00000  Uiso   1.00
C1415  C     0.71926   0.51306   0.58133   0.00000  Uiso   1.00
C1416  C     0.61200   0.86096   0.21423   0.00000  Uiso   1.00
C1417  C     0.88939   0.63772   0.71418   0.00000  Uiso   1.00
C1418  C     0.61061   0.86228   0.28582   0.00000  Uiso   1.00
C1419  C     0.85030   0.87718   0.71844   0.00000  Uiso   1.00
C1420  C     0.64970   0.62282   0.28156   0.00000  Uiso   1.00
C1421  C     0.60918   0.86371   0.71433   0.00000  Uiso   1.00
C1422  C     0.89082   0.63630   0.28566   0.00000  Uiso   1.00
C1423  C     0.66019   0.63328   0.76454   0.00000  Uiso   1.00
C1424  C     0.83981   0.86672   0.23546   0.00000  Uiso   1.00
C1425  C     0.86703   0.83981   0.23523   0.00000  Uiso   1.00
C1426  C     0.73714   0.53067   0.91829   0.00000  Uiso   1.00
C1427  C     0.63297   0.66019   0.76477   0.00000  Uiso   1.00
C1428  C     0.86380   0.60911   0.28565   0.00000  Uiso   1.00
C1429  C     0.63620   0.89089   0.71435   0.00000  Uiso   1.00
C1430  C     0.62384   0.65040   0.28081   0.00000  Uiso   1.00
C1431  C     0.87616   0.84960   0.71919   0.00000  Uiso   1.00
C1432  C     0.63800   0.88904   0.28577   0.00000  Uiso   1.00
C1433  C     0.86200   0.61096   0.71423   0.00000  Uiso   1.00
C1434  C     0.51813   0.72202   0.45916   0.00000  Uiso   1.00
C1435  C     0.98187   0.77798   0.54084   0.00000  Uiso   1.00
C1436  C     0.77816   0.98185   0.45932   0.00000  Uiso   1.00
H1437  H     0.70352   0.90537   0.14699   0.00000  Uiso   1.00
H1438  H     0.92659   0.99001   0.27933   0.00000  Uiso   1.00
H1439  H     0.59966   0.79193   0.85047   0.00000  Uiso   1.00
H1440  H     0.90035   0.70807   0.14952   0.00000  Uiso   1.00
H1441  H     0.85586   0.93554   0.86885   0.00000  Uiso   1.00
H1442  H     0.64414   0.56446   0.13115   0.00000  Uiso   1.00
H1443  H     0.90110   0.70085   0.85623   0.00000  Uiso   1.00
H1444  H     0.59890   0.79916   0.14377   0.00000  Uiso   1.00
H1445  H     0.95352   0.65537   0.64699   0.00000  Uiso   1.00
H1446  H     0.54648   0.84463   0.35301   0.00000  Uiso   1.00
H1447  H     0.81130   0.90616   0.63543   0.00000  Uiso   1.00
H1448  H     0.79648   0.59463   0.85301   0.00000  Uiso   1.00
H1449  H     0.68870   0.59384   0.36457   0.00000  Uiso   1.00
H1450  H     0.54269   0.85037   0.64847   0.00000  Uiso   1.00
H1451  H     0.95730   0.64964   0.35153   0.00000  Uiso   1.00
H1452  H     0.75076   0.64237   0.77736   0.00000  Uiso   1.00
H1453  H     0.74924   0.85763   0.22264   0.00000  Uiso   1.00
H1454  H     0.82341   0.75999   0.22067   0.00000  Uiso   1.00
H1455  H     0.67659   0.74001   0.77933   0.00000  Uiso   1.00
H1456  H     0.84965   0.54193   0.35047   0.00000  Uiso   1.00
H1457  H     0.65034   0.95807   0.64953   0.00000  Uiso   1.00
H1458  H     0.60586   0.68554   0.36885   0.00000  Uiso   1.00
H1459  H     0.56130   0.65616   0.13543   0.00000  Uiso   1.00
H1460  H     0.89414   0.81446   0.63115   0.00000  Uiso   1.00
H1461  H     0.65110   0.95084   0.35623   0.00000  Uiso   1.00
H1462  H     0.84890   0.54915   0.64377   0.00000  Uiso   1.00
H1463  H     0.99441   0.87064   0.40108   0.00000  Uiso   1.00
H1464  H     0.50559   0.62936   0.59891   0.00000  Uiso   1.00
H1465  H     0.62836   0.50082   0.40474   0.00000  Uiso   1.00
H1466  H     0.87164   0.99918   0.59526   0.00000  Uiso   1.00
H1467  H     0.50527   0.62899   0.40327   0.00000  Uiso   1.00
H1468  H     0.99473   0.87101   0.59673   0.00000  Uiso   1.00
H1469  H     0.87060   0.99413   0.40148   0.00000  Uiso   1.00
H1470  H     0.93870   0.84384   0.86457   0.00000  Uiso   1.00
H1471  H     0.62940   0.50587   0.59852   0.00000  Uiso   1.00
H1472  H     0.74441   0.62064   0.90108   0.00000  Uiso   1.00
H1473  H     0.75559   0.87936   0.09891   0.00000  Uiso   1.00
H1474  H     0.87836   0.75082   0.90474   0.00000  Uiso   1.00
H1475  H     0.62164   0.74918   0.09526   0.00000  Uiso   1.00
H1476  H     0.75527   0.87899   0.90327   0.00000  Uiso   1.00
H1477  H     0.74473   0.62101   0.09673   0.00000  Uiso   1.00
H1478  H     0.62060   0.74413   0.90148   0.00000  Uiso   1.00
H1479  H     0.87940   0.75587   0.09852   0.00000  Uiso   1.00
H1480  H     0.79270   0.60037   0.14847   0.00000  Uiso   1.00
H1481  H     0.70731   0.89963   0.85153   0.00000  Uiso   1.00
H1482  H     0.50076   0.89237   0.27736   0.00000  Uiso   1.00
H1483  H     0.99924   0.60763   0.72264   0.00000  Uiso   1.00
H1484  H     0.57341   0.50999   0.72067   0.00000  Uiso   1.00
O1485  O     0.75000   0.50000   0.25000   0.00000  Uiso   1.00
O1486  O     0.75000   0.96964   0.66245   0.00000  Uiso   1.00
O1487  O     0.77186   0.86341   0.23845   0.00000  Uiso   1.00
O1488  O     0.87939   0.78689   0.19902   0.00000  Uiso   1.00
O1489  O     0.82620   0.78518   0.23230   0.00000  Uiso   1.00
O1490  O     0.62061   0.71311   0.80098   0.00000  Uiso   1.00
O1491  O     0.67380   0.71482   0.76769   0.00000  Uiso   1.00
O1492  O     0.84182   0.60667   0.34989   0.00000  Uiso   1.00
O1493  O     0.85783   0.55206   0.32449   0.00000  Uiso   1.00
O1494  O     0.65817   0.89334   0.65011   0.00000  Uiso   1.00
O1495  O     0.64217   0.94794   0.67551   0.00000  Uiso   1.00
O1496  O     0.63933   0.70488   0.31248   0.00000  Uiso   1.00
O1497  O     0.96964   0.75000   0.33755   0.00000  Uiso   1.00
O1498  O     0.60429   0.66605   0.34807   0.00000  Uiso   1.00
O1499  O     0.86067   0.79512   0.68752   0.00000  Uiso   1.00
O1500  O     0.89571   0.83395   0.65193   0.00000  Uiso   1.00
O1501  O     0.66710   0.88840   0.34673   0.00000  Uiso   1.00
O1502  O     0.64187   0.94252   0.32990   0.00000  Uiso   1.00
O1503  O     0.83291   0.61160   0.65327   0.00000  Uiso   1.00
O1504  O     0.85812   0.55748   0.67011   0.00000  Uiso   1.00
O1505  O     0.97020   0.81945   0.36626   0.00000  Uiso   1.00
O1506  O     0.99794   0.84771   0.41706   0.00000  Uiso   1.00
O1507  O     0.52980   0.68055   0.63374   0.00000  Uiso   1.00
O1508  O     0.53037   0.75000   0.66245   0.00000  Uiso   1.00
O1509  O     0.50206   0.65229   0.58294   0.00000  Uiso   1.00
O1510  O     0.67858   0.51905   0.36487   0.00000  Uiso   1.00
O1511  O     0.65166   0.99995   0.42056   0.00000  Uiso   1.00
O1512  O     0.82142   0.98095   0.63513   0.00000  Uiso   1.00
O1513  O     0.84834   0.50005   0.57943   0.00000  Uiso   1.00
O1514  O     0.52682   0.67998   0.36620   0.00000  Uiso   1.00
O1515  O     0.50237   0.65210   0.41899   0.00000  Uiso   1.00
O1516  O     0.97318   0.82002   0.63380   0.00000  Uiso   1.00
O1517  O     0.99763   0.84790   0.58100   0.00000  Uiso   1.00
O1518  O     0.81930   0.96902   0.36732   0.00000  Uiso   1.00
O1519  O     0.50000   0.71964   0.83755   0.00000  Uiso   1.00
O1520  O     0.84767   0.99813   0.41719   0.00000  Uiso   1.00
O1521  O     0.68070   0.53098   0.63268   0.00000  Uiso   1.00
O1522  O     0.65233   0.50187   0.58281   0.00000  Uiso   1.00
O1523  O     0.72020   0.56945   0.86626   0.00000  Uiso   1.00
O1524  O     0.74794   0.59771   0.91706   0.00000  Uiso   1.00
O1525  O     0.77980   0.93055   0.13374   0.00000  Uiso   1.00
O1526  O     0.75206   0.90229   0.08294   0.00000  Uiso   1.00
O1527  O     0.92858   0.76905   0.86487   0.00000  Uiso   1.00
O1528  O     0.90166   0.74995   0.92057   0.00000  Uiso   1.00
O1529  O     0.57142   0.73095   0.13513   0.00000  Uiso   1.00
O1530  O     0.50000   0.78037   0.16245   0.00000  Uiso   1.00
O1531  O     0.59834   0.75005   0.07943   0.00000  Uiso   1.00
O1532  O     0.77683   0.92998   0.86620   0.00000  Uiso   1.00
O1533  O     0.75237   0.90210   0.91899   0.00000  Uiso   1.00
O1534  O     0.72318   0.57002   0.13380   0.00000  Uiso   1.00
O1535  O     0.74763   0.59790   0.08100   0.00000  Uiso   1.00
O1536  O     0.56930   0.71902   0.86732   0.00000  Uiso   1.00
O1537  O     0.59767   0.74813   0.91719   0.00000  Uiso   1.00
O1538  O     0.93070   0.78098   0.13268   0.00000  Uiso   1.00
O1539  O     0.90233   0.75187   0.08281   0.00000  Uiso   1.00
O1540  O     0.78037   0.50000   0.83755   0.00000  Uiso   1.00
O1541  O     0.71964   0.50000   0.16245   0.00000  Uiso   1.00
O1542  O     0.50000   0.78037   0.83755   0.00000  Uiso   1.00
O1543  O     0.50000   0.71964   0.16245   0.00000  Uiso   1.00
O1544  O     0.71964   0.50000   0.83755   0.00000  Uiso   1.00
O1545  O     0.75000   0.50000   0.75000   0.00000  Uiso   1.00
O1546  O     0.78037   0.50000   0.16245   0.00000  Uiso   1.00
O1547  O     0.70725   0.57308   0.27302   0.00000  Uiso   1.00
O1548  O     0.79276   0.92693   0.72698   0.00000  Uiso   1.00
O1549  O     0.92693   0.70725   0.27302   0.00000  Uiso   1.00
O1550  O     0.57308   0.79276   0.72698   0.00000  Uiso   1.00
O1551  O     0.79276   0.92693   0.27302   0.00000  Uiso   1.00
O1552  O     0.70725   0.57308   0.72698   0.00000  Uiso   1.00
O1553  O     0.57308   0.79276   0.27302   0.00000  Uiso   1.00
O1554  O     0.92693   0.70725   0.72698   0.00000  Uiso   1.00
O1555  O     0.70725   0.92693   0.72698   0.00000  Uiso   1.00
O1556  O     0.50000   0.75000   0.25000   0.00000  Uiso   1.00
O1557  O     0.79276   0.57308   0.27302   0.00000  Uiso   1.00
O1558  O     0.92693   0.79276   0.72698   0.00000  Uiso   1.00
O1559  O     0.57308   0.70725   0.27302   0.00000  Uiso   1.00
O1560  O     0.79276   0.57308   0.72698   0.00000  Uiso   1.00
O1561  O     0.70725   0.92693   0.27302   0.00000  Uiso   1.00
O1562  O     0.57308   0.70725   0.72698   0.00000  Uiso   1.00
O1563  O     0.92693   0.79276   0.27302   0.00000  Uiso   1.00
O1564  O     0.95725   0.82308   0.77302   0.00000  Uiso   1.00
O1565  O     0.54276   0.67693   0.22698   0.00000  Uiso   1.00
O1566  O     0.67693   0.95725   0.77302   0.00000  Uiso   1.00
O1567  O     0.50000   0.75000   0.75000   0.00000  Uiso   1.00
O1568  O     0.82308   0.54276   0.22698   0.00000  Uiso   1.00
O1569  O     0.54276   0.67693   0.77302   0.00000  Uiso   1.00
O1570  O     0.95725   0.82308   0.22698   0.00000  Uiso   1.00
O1571  O     0.82308   0.54276   0.77302   0.00000  Uiso   1.00
O1572  O     0.67693   0.95725   0.22698   0.00000  Uiso   1.00
O1573  O     0.95725   0.67693   0.22698   0.00000  Uiso   1.00
O1574  O     0.54276   0.82308   0.77302   0.00000  Uiso   1.00
O1575  O     0.67693   0.54276   0.22698   0.00000  Uiso   1.00
O1576  O     0.82308   0.95725   0.77302   0.00000  Uiso   1.00
O1577  O     0.54276   0.82308   0.22698   0.00000  Uiso   1.00
O1578  O     0.75000   0.96964   0.33755   0.00000  Uiso   1.00
O1579  O     0.95725   0.67693   0.77302   0.00000  Uiso   1.00
O1580  O     0.82308   0.95725   0.22698   0.00000  Uiso   1.00
O1581  O     0.67693   0.54276   0.77302   0.00000  Uiso   1.00
O1582  O     0.63866   0.91106   0.15028   0.00000  Uiso   1.00
O1583  O     0.69471   0.89639   0.17322   0.00000  Uiso   1.00
O1584  O     0.86134   0.58894   0.84972   0.00000  Uiso   1.00
O1585  O     0.80529   0.60361   0.82678   0.00000  Uiso   1.00
O1586  O     0.55211   0.60610   0.17926   0.00000  Uiso   1.00
O1587  O     0.57981   0.65758   0.15731   0.00000  Uiso   1.00
O1588  O     0.94789   0.89390   0.82074   0.00000  Uiso   1.00
O1589  O     0.75000   0.53037   0.66245   0.00000  Uiso   1.00
O1590  O     0.92019   0.84242   0.84269   0.00000  Uiso   1.00
O1591  O     0.85704   0.59018   0.15074   0.00000  Uiso   1.00
O1592  O     0.80260   0.60860   0.17456   0.00000  Uiso   1.00
O1593  O     0.64297   0.90981   0.84927   0.00000  Uiso   1.00
O1594  O     0.69740   0.89140   0.82544   0.00000  Uiso   1.00
O1595  O     0.94769   0.90081   0.31683   0.00000  Uiso   1.00
O1596  O     0.97814   0.88659   0.26155   0.00000  Uiso   1.00
O1597  O     0.55231   0.59919   0.68317   0.00000  Uiso   1.00
O1598  O     0.52186   0.61341   0.73845   0.00000  Uiso   1.00
O1599  O     0.62939   0.53689   0.69902   0.00000  Uiso   1.00
O1600  O     0.53037   0.75000   0.33755   0.00000  Uiso   1.00
O1601  O     0.57620   0.53518   0.73230   0.00000  Uiso   1.00
O1602  O     0.87061   0.96311   0.30098   0.00000  Uiso   1.00
O1603  O     0.92380   0.96482   0.26769   0.00000  Uiso   1.00
O1604  O     0.59182   0.85666   0.84989   0.00000  Uiso   1.00
O1605  O     0.60784   0.80206   0.82449   0.00000  Uiso   1.00
O1606  O     0.90818   0.64333   0.15011   0.00000  Uiso   1.00
O1607  O     0.89217   0.69794   0.17551   0.00000  Uiso   1.00
O1608  O     0.88933   0.95488   0.81248   0.00000  Uiso   1.00
O1609  O     0.85429   0.91605   0.84807   0.00000  Uiso   1.00
O1610  O     0.61067   0.54512   0.18752   0.00000  Uiso   1.00
O1611  O     0.96964   0.75000   0.66245   0.00000  Uiso   1.00
O1612  O     0.64571   0.58395   0.15193   0.00000  Uiso   1.00
O1613  O     0.91710   0.63840   0.84673   0.00000  Uiso   1.00
O1614  O     0.89187   0.69252   0.82990   0.00000  Uiso   1.00
O1615  O     0.58290   0.86160   0.15327   0.00000  Uiso   1.00
O1616  O     0.60813   0.80748   0.17010   0.00000  Uiso   1.00
O1617  O     0.88866   0.66106   0.65028   0.00000  Uiso   1.00
O1618  O     0.94471   0.64638   0.67322   0.00000  Uiso   1.00
O1619  O     0.61134   0.83894   0.34972   0.00000  Uiso   1.00
O1620  O     0.55529   0.85361   0.32678   0.00000  Uiso   1.00
O1621  O     0.80211   0.85610   0.67926   0.00000  Uiso   1.00
O1622  O     0.75000   0.53037   0.33755   0.00000  Uiso   1.00
O1623  O     0.82981   0.90758   0.65731   0.00000  Uiso   1.00
O1624  O     0.69789   0.64390   0.32074   0.00000  Uiso   1.00
O1625  O     0.67019   0.59242   0.34269   0.00000  Uiso   1.00
O1626  O     0.60703   0.84019   0.65073   0.00000  Uiso   1.00
O1627  O     0.55260   0.85860   0.67456   0.00000  Uiso   1.00
O1628  O     0.89296   0.65982   0.34926   0.00000  Uiso   1.00
O1629  O     0.94740   0.64140   0.32544   0.00000  Uiso   1.00
O1630  O     0.69769   0.65081   0.81683   0.00000  Uiso   1.00
O1631  O     0.72814   0.63659   0.76154   0.00000  Uiso   1.00
O1632  O     0.80231   0.84919   0.18317   0.00000  Uiso   1.00
Zn1633 Zn    0.70660   0.50000   0.21735   0.00000  Uiso   1.00
Zn1634 Zn    0.54341   0.75000   0.28265   0.00000  Uiso   1.00
Zn1635 Zn    0.75000   0.95660   0.71735   0.00000  Uiso   1.00
Zn1636 Zn    0.75000   0.54341   0.28265   0.00000  Uiso   1.00
Zn1637 Zn    0.54341   0.75000   0.71735   0.00000  Uiso   1.00
Zn1638 Zn    0.95660   0.75000   0.28265   0.00000  Uiso   1.00
Zn1639 Zn    0.75000   0.54341   0.71735   0.00000  Uiso   1.00
Zn1640 Zn    0.75000   0.95660   0.28265   0.00000  Uiso   1.00
Zn1641 Zn    0.79341   0.50000   0.78265   0.00000  Uiso   1.00
Zn1642 Zn    0.50000   0.70660   0.21735   0.00000  Uiso   1.00
Zn1643 Zn    0.50000   0.79341   0.78265   0.00000  Uiso   1.00
Zn1644 Zn    0.79341   0.50000   0.21735   0.00000  Uiso   1.00
Zn1645 Zn    0.70660   0.50000   0.78265   0.00000  Uiso   1.00
Zn1646 Zn    0.50000   0.79341   0.21735   0.00000  Uiso   1.00
Zn1647 Zn    0.50000   0.70660   0.78265   0.00000  Uiso   1.00
Zn1648 Zn    0.95660   0.75000   0.71735   0.00000  Uiso   1.00
loop_
_geom_bond_atom_site_label_1
_geom_bond_atom_site_label_2
_geom_bond_distance
_geom_bond_site_symmetry_2
_ccdc_geom_bond_type
Br1    C119    1.941   .     S
Br2    C129    1.941   .     S
Br3    C130    1.941   .     S
Br4    C131    1.941   .     S
Br5    C132    1.942   .     S
Br6    C133    1.942   .     S
Br7    C134    1.941   .     S
Br8    C136    1.941   .     S
Br9    C120    1.941   .     S
Br10   C121    1.941   .     S
Br11   C122    1.941   .     S
Br12   C123    1.942   .     S
Br13   C125    1.942   .     S
Br14   C126    1.941   .     S
Br15   C127    1.941   .     S
Br16   C128    1.941   .     S
C17    C20     1.412   .     A
C17    C94     1.493   .     S
C17    C507    1.411   .     S
C18    C104    1.493   .     S
C18    C30     1.412   .     A
C18    C940    1.411   .     S
C19    C122    1.418   .     A
C19    C179    1.412   .     A
C19    C54     1.416   .     A
C20    C123    1.418   .     A
C20    C462    1.417   .     S
C21    C113    1.412   .     A
C21    C125    1.418   .     A
C21    C464    1.417   1_455 S
C22    C126    1.416   .     A
C22    C124    1.411   .     A
C22    C877    1.415   1_545 S
C23    C127    1.416   .     A
C23    C135    1.411   .     A
C23    C878    1.415   .     S
C24    C51     1.412   .     A
C24    C128    1.418   .     A
C24    C879    1.416   .     S
C25    C62     1.412   .     A
C25    C129    1.418   .     A
C25    C880    1.416   1_545 S
C26    C130    1.418   .     A
C26    C73     1.412   .     A
C26    C469    1.416   1_455 S
C27    C84     1.412   .     A
C27    C131    1.418   .     A
C27    C470    1.416   .     S
C28    C132    1.418   .     A
C28    C190    1.412   .     A
C28    C55     1.417   .     A
C29    C105    1.495   .     S
C29    C117    1.412   .     A
C29    C31     1.411   .     A
C30    C56     1.417   .     A
C30    C133    1.418   .     A
C31    C57     1.415   .     A
C31    C134    1.416   .     A
C32    C58     1.415   .     A
C32    C136    1.416   .     A
C32    C40     1.411   .     A
C33    C180    1.413   .     A
C33    C182    1.412   .     A
C33    C152    1.458   .     S
C34    C153    1.458   .     S
C34    C181    1.412   .     A
C34    C178    1.413   .     A
C35    C145    1.465   .     S
C35    C177    1.419   .     A
C35    C184    1.418   .     A
C36    C183    1.418   .     A
C36    C176    1.419   .     A
C36    C147    1.465   .     S
C37    C175    1.412   .     A
C37    C186    1.412   .     A
C37    C148    1.459   .     S
C38    C174    1.412   .     A
C38    C149    1.459   .     S
C38    C185    1.412   .     A
C39    C150    1.466   .     S
C39    C188    1.414   .     A
C39    C173    1.415   .     A
C40    C107    1.495   .     S
C40    C118    1.412   .     A
C41    C187    1.414   .     A
C41    C172    1.415   .     A
C41    C151    1.466   .     S
C42    C161    1.466   .     S
C42    C171    1.414   .     A
C42    C191    1.415   .     A
C43    C170    1.414   .     A
C43    C162    1.466   .     S
C43    C189    1.415   .     A
C44    C154    1.459   .     S
C44    C193    1.412   .     A
C44    C169    1.412   .     A
C45    C167    1.412   .     A
C45    C155    1.459   .     S
C45    C192    1.412   .     A
C46    C156    1.465   .     S
C46    C166    1.418   .     A
C46    C195    1.419   .     A
C47    C165    1.418   .     A
C47    C194    1.418   .     A
C47    C158    1.465   .     S
C48    C164    1.412   .     A
C48    C159    1.458   .     S
C48    C197    1.413   .     A
C49    C160    1.458   .     S
C49    C163    1.412   .     A
C49    C196    1.413   .     A
C50    C198    1.416   .     A
C50    C432    1.417   1_455 S
C50    C464    1.408   1_455 S
C51    C115    1.412   .     A
C51    C108    1.493   .     S
C52    C199    1.416   .     A
C52    C433    1.417   .     S
C52    C462    1.408   .     S
C53    C200    1.416   .     A
C53    C846    1.415   .     S
C53    C878    1.407   .     S
C54    C847    1.415   1_545 S
C54    C877    1.407   1_545 S
C55    C848    1.416   1_545 S
C55    C880    1.408   1_546 S
C56    C849    1.416   .     S
C56    C879    1.408   1_554 S
C57    C438    1.416   .     S
C57    C470    1.407   1_556 S
C58    C439    1.416   1_455 S
C58    C469    1.407   1_454 S
C59    O346    1.222   .     D
C59    C163    1.489   .     S
C59    O347    1.398   .     S
C60    O348    1.222   .     D
C60    O349    1.398   .     S
C60    C164    1.489   .     S
C61    O351    1.395   .     S
C61    C165    1.488   .     S
C61    O350    1.223   .     D
C62    C109    1.493   .     S
C62    C116    1.412   .     A
C63    C166    1.488   .     S
C63    O354    1.395   .     S
C63    O352    1.223   .     D
C64    C167    1.486   .     S
C64    O356    1.397   .     S
C64    O355    1.222   .     D
C65    O358    1.397   .     S
C65    C169    1.486   .     S
C65    O357    1.222   .     D
C66    O360    1.398   .     S
C66    O359    1.223   .     D
C66    C170    1.489   .     S
C67    O362    1.398   .     S
C67    O361    1.223   .     D
C67    C171    1.489   .     S
C68    O365    1.398   .     S
C68    C172    1.492   .     S
C68    O363    1.223   .     D
C69    C173    1.492   .     S
C69    O367    1.398   .     S
C69    O366    1.223   .     D
C70    O369    1.398   .     S
C70    C174    1.487   .     S
C70    O368    1.222   .     D
C71    O370    1.222   .     D
C71    O371    1.398   .     S
C71    C175    1.487   .     S
C72    O372    1.223   .     D
C72    O373    1.396   .     S
C72    C176    1.486   .     S
C73    C110    1.491   .     S
C73    C529    1.412   1_455 S
C74    C177    1.486   .     S
C74    O376    1.396   .     S
C74    O374    1.223   .     D
C75    C178    1.484   .     S
C75    O377    1.223   .     D
C75    O378    1.396   .     S
C76    O379    1.223   .     D
C76    C180    1.484   .     S
C76    O380    1.396   .     S
C77    O382    1.398   .     S
C77    C181    1.489   .     S
C77    O381    1.222   .     D
C78    C182    1.489   .     S
C78    O383    1.222   .     D
C78    O384    1.398   .     S
C79    O387    1.395   .     S
C79    O385    1.223   .     D
C79    C183    1.488   .     S
C80    C184    1.488   .     S
C80    O389    1.395   .     S
C80    O388    1.223   .     D
C81    O391    1.397   .     S
C81    O390    1.222   .     D
C81    C185    1.486   .     S
C82    O393    1.397   .     S
C82    C186    1.486   .     S
C82    O392    1.222   .     D
C83    O395    1.398   .     S
C83    C187    1.489   .     S
C83    O394    1.223   .     D
C84    C111    1.491   .     S
C84    C530    1.412   .     S
C85    C188    1.489   .     S
C85    O251    1.398   .     S
C85    O396    1.223   .     D
C86    O253    1.398   .     S
C86    O252    1.223   .     D
C86    C189    1.492   .     S
C87    C191    1.492   .     S
C87    O255    1.398   .     S
C87    O254    1.223   .     D
C88    O257    1.398   .     S
C88    O256    1.222   .     D
C88    C192    1.487   .     S
C89    O259    1.398   .     S
C89    C193    1.487   .     S
C89    O258    1.222   .     D
C90    O260    1.223   .     D
C90    O262    1.396   .     S
C90    C194    1.486   .     S
C91    C195    1.486   .     S
C91    O263    1.223   .     D
C91    O264    1.396   .     S
C92    O266    1.396   .     S
C92    C196    1.484   .     S
C92    O265    1.223   .     D
C93    O268    1.396   .     S
C93    C197    1.484   .     S
C93    O267    1.223   .     D
C94    O269    1.223   .     D
C94    O270    1.399   .     S
C95    C146    1.412   .     A
C95    C139    1.456   .     S
C95    C429    1.411   1_455 S
C96    O271    1.223   .     D
C96    C113    1.493   .     S
C96    O273    1.399   .     S
C97    C124    1.495   .     S
C97    O274    1.222   .     D
C97    O1099   1.399   1_545 S
C98    O276    1.222   .     D
C98    C135    1.495   .     S
C98    O1101   1.399   .     S
C99    O278    1.222   .     D
C99    O279    1.399   .     S
C99    C146    1.493   .     S
C100   O281    1.399   .     S
C100   C157    1.493   .     S
C100   O280    1.222   .     D
C101   O282    1.222   .     D
C101   O284    1.399   .     S
C101   C168    1.491   .     S
C102   C179    1.491   .     S
C102   O285    1.222   .     D
C102   O286    1.399   .     S
C103   C190    1.493   .     S
C103   O287    1.223   .     D
C103   O288    1.399   .     S
C104   O289    1.223   .     D
C104   O290    1.399   .     S
C105   O291    1.222   .     D
C105   O292    1.399   .     S
C106   C157    1.412   .     A
C106   C140    1.456   .     S
C106   C525    1.411   .     S
C107   O295    1.399   .     S
C107   O293    1.222   .     D
C108   O297    1.399   .     S
C108   O296    1.222   .     D
C109   O299    1.399   .     S
C109   O298    1.222   .     D
C110   O300    1.222   .     D
C110   O301    1.399   .     S
C111   O302    1.222   .     D
C111   O303    1.399   .     S
C112   C137    1.456   .     S
C112   C168    1.412   .     A
C112   C948    1.412   .     S
C113   C518    1.411   1_455 S
C114   C179    1.412   .     A
C114   C138    1.456   .     S
C114   C959    1.412   1_545 S
C115   C967    1.456   .     S
C115   C1014   1.411   .     S
C116   C842    1.411   1_545 S
C116   C968    1.456   1_545 S
C117   C485    1.412   .     S
C117   C553    1.456   .     S
C118   C496    1.412   1_455 S
C118   C554    1.456   1_455 S
C119   C198    1.418   .     A
C119   C125    1.405   .     A
C120   C123    1.405   .     A
C120   C199    1.418   .     A
C121   C127    1.405   .     A
C121   C200    1.418   .     A
C122   C126    1.405   .     A
C124   C936    1.412   1_545 S
C128   C133    1.405   1_556 S
C129   C132    1.405   1_554 S
C130   C136    1.405   1_556 S
C131   C134    1.405   1_554 S
C132   C129    1.405   1_556 S
C133   C128    1.405   1_554 S
C134   C131    1.405   1_556 S
C135   C938    1.412   .     S
C136   C130    1.405   1_554 S
C137   O342    1.278   .     A
C137   O1210   1.281   .     S
C138   O353    1.278   .     A
C138   O1074   1.281   1_545 S
C139   O364    1.280   .     A
C139   O673    1.279   1_455 S
C140   O375    1.280   .     A
C140   O684    1.279   .     S
C141   O306    1.281   .     A
C141   O283    1.278   .     A
C141   C529    1.456   1_455 S
C142   O719    1.281   .     A
C142   C530    1.456   .     S
C142   O706    1.278   .     S
C143   C939    1.456   1_545 S
C143   O304    1.280   .     S
C143   O308    1.279   .     S
C144   C940    1.456   .     S
C144   O1129   1.280   .     S
C144   O1134   1.279   .     S
C145   O339    1.280   .     A
C145   O311    1.282   .     A
C146   C198    1.412   .     A
C147   O312    1.282   .     A
C147   O340    1.280   .     A
C148   O337    1.283   .     A
C148   O313    1.282   .     A
C149   O314    1.282   .     A
C149   O338    1.283   .     A
C150   O344    1.283   .     A
C150   O315    1.279   .     A
C151   O345    1.283   .     A
C151   O316    1.279   .     A
C152   O317    1.280   .     A
C152   O341    1.278   .     A
C153   O343    1.278   .     A
C153   O318    1.280   .     A
C154   O330    1.282   .     A
C154   O319    1.283   .     A
C155   O321    1.283   .     A
C155   O332    1.282   .     A
C156   O328    1.282   .     A
C156   O322    1.280   .     A
C157   C199    1.412   .     A
C158   O329    1.282   .     A
C158   O323    1.280   .     A
C159   O335    1.280   .     A
C159   O324    1.278   .     A
C160   O325    1.278   .     A
C160   O336    1.280   .     A
C161   O333    1.279   .     A
C161   O326    1.283   .     A
C162   O334    1.279   .     A
C162   O327    1.283   .     A
C163   C180    1.404   .     A
C164   C178    1.404   .     A
C165   C177    1.394   .     A
C166   C176    1.394   .     A
C167   C175    1.405   .     A
C168   C200    1.412   .     A
C169   C174    1.405   .     A
C170   C173    1.411   .     A
C171   C172    1.411   .     A
C181   C197    1.404   .     A
C182   C196    1.404   .     A
C183   C195    1.394   .     A
C184   C194    1.394   .     A
C185   C193    1.405   .     A
C186   C192    1.405   .     A
C187   C191    1.411   .     A
C188   C189    1.411   .     A
C190   C939    1.411   1_545 S
H201   O347    1.013   .     S
H202   O367    1.014   .     S
H203   O369    1.013   .     S
H204   O371    1.013   .     S
H205   O373    1.013   .     S
H206   O376    1.013   .     S
H207   O378    1.012   .     S
H208   O380    1.012   .     S
H209   O382    1.013   .     S
H210   O384    1.013   .     S
H211   O387    1.014   .     S
H212   O349    1.013   .     S
H213   O389    1.014   .     S
H214   O391    1.013   .     S
H215   O393    1.013   .     S
H216   O395    1.014   .     S
H217   O251    1.014   .     S
H218   O253    1.014   .     S
H219   O255    1.014   .     S
H220   O257    1.013   .     S
H221   O259    1.013   .     S
H222   O262    1.014   .     S
H223   O351    1.014   .     S
H224   O264    1.013   .     S
H225   O266    1.012   .     S
H226   O268    1.012   .     S
H227   O270    1.014   .     S
H228   O273    1.014   .     S
H229   O1099   1.014   1_545 S
H230   O1101   1.014   .     S
H231   O279    1.014   .     S
H232   O281    1.014   .     S
H233   O284    1.014   .     S
H234   O354    1.014   .     S
H235   O286    1.014   .     S
H236   O288    1.014   .     S
H237   O290    1.014   .     S
H238   O292    1.014   .     S
H239   O295    1.014   .     S
H240   O297    1.014   .     S
H241   O299    1.014   .     S
H242   O301    1.014   .     S
H243   O303    1.014   .     S
H244   O356    1.013   .     S
H245   O358    1.013   .     S
H246   O772    1.014   1_455 S
H247   O774    1.014   .     S
H248   O365    1.014   .     S
O249   Zn1228  1.949   1_545 S
O249   Zn397   1.948   .     S
O249   Zn400   1.952   .     S
O249   Zn408   1.954   .     S
O250   Zn399   1.945   .     S
O250   C962    1.281   .     S
O261   Zn402   1.945   .     S
O261   C551    1.279   .     S
O272   Zn401   1.945   .     S
O272   C552    1.279   1_455 S
O275   H1053   1.014   .     S
O275   C921    1.399   .     S
O277   C922    1.399   1_545 S
O277   H1054   1.014   1_545 S
O283   Zn411   1.947   .     S
O294   Zn410   1.947   .     S
O294   C554    1.278   1_455 S
O304   Zn405   1.948   .     S
O305   Zn397   1.948   .     S
O305   C968    1.280   1_545 S
O306   Zn407   1.945   .     S
O307   C554    1.281   1_455 A
O307   Zn406   1.945   .     S
O308   Zn409   1.945   .     S
O309   Zn403   1.949   .     S
O309   Zn409   1.954   .     S
O309   Zn405   1.948   .     S
O309   Zn1223  1.952   1_545 S
O310   Zn408   1.945   .     S
O310   C968    1.279   1_545 S
O311   Zn400   1.946   .     S
O312   Zn399   1.946   .     S
O313   Zn402   1.937   .     S
O314   Zn401   1.937   .     S
O315   Zn404   1.948   .     S
O316   Zn403   1.948   .     S
O317   Zn398   1.937   .     S
O318   Zn412   1.937   .     S
O319   Zn399   1.937   .     S
O320   Zn410   1.949   .     S
O320   Zn406   1.952   .     S
O320   Zn398   1.948   .     S
O320   Zn814   1.954   1_455 S
O321   Zn400   1.937   .     S
O322   Zn412   1.948   .     S
O323   Zn398   1.948   .     S
O324   Zn403   1.936   .     S
O325   Zn404   1.936   .     S
O326   Zn401   1.946   .     S
O327   Zn402   1.946   .     S
O328   Zn819   1.946   .     S
O329   Zn406   1.946   .     S
O330   Zn1233  1.937   .     S
O331   Zn401   1.954   .     S
O331   Zn411   1.949   .     S
O331   Zn407   1.952   .     S
O331   Zn824   1.948   1_455 S
O332   Zn408   1.937   .     S
O333   Zn411   1.948   .     S
O334   Zn822   1.948   .     S
O335   Zn405   1.937   .     S
O336   Zn1221  1.937   .     S
O337   Zn818   1.937   .     S
O338   Zn407   1.937   .     S
O339   Zn397   1.948   .     S
O340   Zn1229  1.948   .     S
O341   Zn410   1.936   .     S
O342   Zn404   1.947   .     S
O343   Zn823   1.936   .     S
O344   Zn1232  1.946   .     S
O345   Zn409   1.946   .     S
O353   Zn403   1.947   .     S
O360   H658    1.014   .     S
O362   H659    1.014   1_455 S
O364   Zn398   1.948   .     S
O375   Zn412   1.948   .     S
O386   Zn400   1.945   .     S
O386   C961    1.281   1_545 S
Zn397  O1160   1.937   1_545 S
Zn399  O1133   1.952   .     S
Zn402  O732    1.954   .     S
Zn404  O1073   1.949   .     S
Zn405  O1164   1.948   1_545 S
Zn406  O749    1.937   1_455 S
Zn407  O740    1.946   1_455 S
Zn408  O1168   1.946   1_545 S
Zn409  O1154   1.937   1_545 S
Zn410  O746    1.948   1_455 S
Zn411  O755    1.936   1_455 S
Zn412  O743    1.948   .     S
Br413  C531    1.941   .     S
Br414  C541    1.941   .     S
Br415  C542    1.941   .     S
Br416  C543    1.941   .     S
Br417  C544    1.942   .     S
Br418  C545    1.942   .     S
Br419  C546    1.941   .     S
Br420  C548    1.941   .     S
Br421  C532    1.941   .     S
Br422  C533    1.941   .     S
Br423  C534    1.941   .     S
Br424  C535    1.942   .     S
Br425  C537    1.942   .     S
Br426  C538    1.941   .     S
Br427  C539    1.941   .     S
Br428  C540    1.941   .     S
C429   C432    1.412   .     A
C429   C506    1.493   .     S
C429   C95     1.411   1_655 S
C430   C516    1.493   .     S
C430   C442    1.412   .     A
C430   C1352   1.411   .     S
C431   C534    1.418   .     A
C431   C591    1.412   .     A
C431   C466    1.416   .     A
C432   C535    1.418   .     A
C432   C50     1.417   1_655 S
C433   C525    1.412   .     A
C433   C537    1.418   .     A
C434   C538    1.416   .     A
C434   C536    1.411   .     A
C434   C1289   1.415   1_545 S
C435   C539    1.416   .     A
C435   C547    1.411   .     A
C435   C1290   1.415   .     S
C436   C463    1.412   .     A
C436   C540    1.418   .     A
C436   C1291   1.416   .     S
C437   C474    1.412   .     A
C437   C541    1.418   .     A
C437   C1292   1.416   1_545 S
C438   C542    1.418   .     A
C438   C485    1.412   .     A
C439   C496    1.412   .     A
C439   C543    1.418   .     A
C439   C58     1.416   1_655 S
C440   C544    1.418   .     A
C440   C602    1.412   .     A
C440   C467    1.417   .     A
C441   C517    1.495   .     S
C441   C529    1.412   .     A
C441   C443    1.411   .     A
C442   C468    1.417   .     A
C442   C545    1.418   .     A
C443   C469    1.415   .     A
C443   C546    1.416   .     A
C444   C470    1.415   .     A
C444   C548    1.416   .     A
C444   C452    1.411   .     A
C445   C592    1.413   .     A
C445   C594    1.412   .     A
C445   C564    1.458   .     S
C446   C565    1.458   .     S
C446   C593    1.412   .     A
C446   C590    1.413   .     A
C447   C557    1.465   .     S
C447   C589    1.419   .     A
C447   C596    1.418   .     A
C448   C595    1.418   .     A
C448   C588    1.419   .     A
C448   C559    1.465   .     S
C449   C587    1.412   .     A
C449   C598    1.412   .     A
C449   C560    1.459   .     S
C450   C586    1.412   .     A
C450   C561    1.459   .     S
C450   C597    1.412   .     A
C451   C562    1.466   .     S
C451   C600    1.414   .     A
C451   C585    1.415   .     A
C452   C519    1.495   .     S
C452   C530    1.412   .     A
C453   C599    1.414   .     A
C453   C584    1.415   .     A
C453   C563    1.466   .     S
C454   C573    1.466   .     S
C454   C583    1.414   .     A
C454   C603    1.415   .     A
C455   C582    1.414   .     A
C455   C574    1.466   .     S
C455   C601    1.415   .     A
C456   C566    1.459   .     S
C456   C605    1.412   .     A
C456   C581    1.412   .     A
C457   C579    1.412   .     A
C457   C567    1.459   .     S
C457   C604    1.412   .     A
C458   C568    1.465   .     S
C458   C578    1.418   .     A
C458   C607    1.419   .     A
C459   C577    1.418   .     A
C459   C606    1.418   .     A
C459   C570    1.465   .     S
C460   C576    1.412   .     A
C460   C571    1.458   .     S
C460   C609    1.413   .     A
C461   C572    1.458   .     S
C461   C575    1.412   .     A
C461   C608    1.413   .     A
C462   C610    1.416   .     A
C463   C527    1.412   .     A
C463   C520    1.493   .     S
C464   C611    1.416   .     A
C464   C21     1.417   1_655 S
C464   C50     1.408   1_655 S
C465   C612    1.416   .     A
C465   C1258   1.415   .     S
C465   C1290   1.407   .     S
C466   C1259   1.415   1_545 S
C466   C1289   1.407   1_545 S
C467   C1260   1.416   1_545 S
C467   C1292   1.408   1_546 S
C468   C1261   1.416   .     S
C468   C1291   1.408   1_554 S
C469   C26     1.416   1_655 S
C469   C58     1.407   1_656 S
C470   C57     1.407   1_554 S
C471   O758    1.222   .     D
C471   C575    1.489   .     S
C471   O759    1.398   .     S
C472   O760    1.222   .     D
C472   O761    1.398   .     S
C472   C576    1.489   .     S
C473   O763    1.395   .     S
C473   C577    1.488   .     S
C473   O762    1.223   .     D
C474   C521    1.493   .     S
C474   C528    1.412   .     A
C475   C578    1.488   .     S
C475   O766    1.395   .     S
C475   O764    1.223   .     D
C476   C579    1.486   .     S
C476   O768    1.397   .     S
C476   O767    1.222   .     D
C477   O770    1.397   .     S
C477   C581    1.486   .     S
C477   O769    1.222   .     D
C478   O772    1.398   .     S
C478   O771    1.223   .     D
C478   C582    1.489   .     S
C479   O774    1.398   .     S
C479   O773    1.223   .     D
C479   C583    1.489   .     S
C480   O777    1.398   .     S
C480   C584    1.492   .     S
C480   O775    1.223   .     D
C481   C585    1.492   .     S
C481   O779    1.398   .     S
C481   O778    1.223   .     D
C482   O781    1.398   .     S
C482   C586    1.487   .     S
C482   O780    1.222   .     D
C483   O782    1.222   .     D
C483   O783    1.398   .     S
C483   C587    1.487   .     S
C484   O784    1.223   .     D
C484   O785    1.396   .     S
C484   C588    1.486   .     S
C485   C522    1.491   .     S
C486   C589    1.486   .     S
C486   O788    1.396   .     S
C486   O786    1.223   .     D
C487   C590    1.484   .     S
C487   O789    1.223   .     D
C487   O790    1.396   .     S
C488   O791    1.223   .     D
C488   C592    1.484   .     S
C488   O792    1.396   .     S
C489   O794    1.398   .     S
C489   C593    1.489   .     S
C489   O793    1.222   .     D
C490   C594    1.489   .     S
C490   O795    1.222   .     D
C490   O796    1.398   .     S
C491   O799    1.395   .     S
C491   O797    1.223   .     D
C491   C595    1.488   .     S
C492   C596    1.488   .     S
C492   O801    1.395   .     S
C492   O800    1.223   .     D
C493   O803    1.397   .     S
C493   O802    1.222   .     D
C493   C597    1.486   .     S
C494   O805    1.397   .     S
C494   C598    1.486   .     S
C494   O804    1.222   .     D
C495   O807    1.398   .     S
C495   C599    1.489   .     S
C495   O806    1.223   .     D
C496   C523    1.491   .     S
C496   C118    1.412   1_655 S
C497   C600    1.489   .     S
C497   O663    1.398   .     S
C497   O808    1.223   .     D
C498   O665    1.398   .     S
C498   O664    1.223   .     D
C498   C601    1.492   .     S
C499   C603    1.492   .     S
C499   O667    1.398   .     S
C499   O666    1.223   .     D
C500   O669    1.398   .     S
C500   O668    1.222   .     D
C500   C604    1.487   .     S
C501   O671    1.398   .     S
C501   C605    1.487   .     S
C501   O670    1.222   .     D
C502   O672    1.223   .     D
C502   O674    1.396   .     S
C502   C606    1.486   .     S
C503   C607    1.486   .     S
C503   O675    1.223   .     D
C503   O676    1.396   .     S
C504   O678    1.396   .     S
C504   C608    1.484   .     S
C504   O677    1.223   .     D
C505   O680    1.396   .     S
C505   C609    1.484   .     S
C505   O679    1.223   .     D
C506   O681    1.223   .     D
C506   O682    1.399   .     S
C507   C558    1.412   .     A
C507   C551    1.456   .     S
C508   O683    1.223   .     D
C508   C525    1.493   .     S
C508   O685    1.399   .     S
C509   C536    1.495   .     S
C509   O686    1.222   .     D
C509   O1511   1.399   1_545 S
C510   O688    1.222   .     D
C510   C547    1.495   .     S
C510   O1513   1.399   .     S
C511   O690    1.222   .     D
C511   O691    1.399   .     S
C511   C558    1.493   .     S
C512   O693    1.399   .     S
C512   C569    1.493   .     S
C512   O692    1.222   .     D
C513   O694    1.222   .     D
C513   O696    1.399   .     S
C513   C580    1.491   .     S
C514   C591    1.491   .     S
C514   O697    1.222   .     D
C514   O698    1.399   .     S
C515   C602    1.493   .     S
C515   O699    1.223   .     D
C515   O700    1.399   .     S
C516   O701    1.223   .     D
C516   O702    1.399   .     S
C517   O703    1.222   .     D
C517   O704    1.399   .     S
C518   C569    1.412   .     A
C518   C552    1.456   .     S
C518   C113    1.411   1_655 S
C519   O707    1.399   .     S
C519   O705    1.222   .     D
C520   O709    1.399   .     S
C520   O708    1.222   .     D
C521   O711    1.399   .     S
C521   O710    1.222   .     D
C522   O712    1.222   .     D
C522   O713    1.399   .     S
C523   O714    1.222   .     D
C523   O715    1.399   .     S
C524   C549    1.456   .     S
C524   C580    1.412   .     A
C524   C1360   1.412   .     S
C526   C591    1.412   .     A
C526   C550    1.456   .     S
C526   C1371   1.412   1_545 S
C527   C1379   1.456   .     S
C527   C1426   1.411   .     S
C528   C1254   1.411   1_545 S
C528   C1380   1.456   1_545 S
C529   C73     1.412   1_655 S
C529   C141    1.456   1_655 S
C531   C610    1.418   .     A
C531   C537    1.405   .     A
C532   C535    1.405   .     A
C532   C611    1.418   .     A
C533   C539    1.405   .     A
C533   C612    1.418   .     A
C534   C538    1.405   .     A
C536   C1348   1.412   1_545 S
C540   C545    1.405   1_556 S
C541   C544    1.405   1_554 S
C542   C548    1.405   1_556 S
C543   C546    1.405   1_554 S
C544   C541    1.405   1_556 S
C545   C540    1.405   1_554 S
C546   C543    1.405   1_556 S
C547   C1350   1.412   .     S
C548   C542    1.405   1_554 S
C549   O754    1.278   .     A
C549   O1622   1.281   .     S
C550   O765    1.278   .     A
C550   O1486   1.281   1_545 S
C551   O776    1.280   .     A
C552   O787    1.280   .     A
C552   O272    1.279   1_655 S
C553   O718    1.281   .     A
C553   O695    1.278   .     A
C554   O307    1.281   1_655 A
C554   C118    1.456   1_655 S
C554   O294    1.278   1_655 S
C555   C1351   1.456   1_545 S
C555   O716    1.280   .     S
C555   O720    1.279   .     S
C556   C1352   1.456   .     S
C556   O1541   1.280   .     S
C556   O1546   1.279   .     S
C557   O751    1.280   .     A
C557   O723    1.282   .     A
C558   C610    1.412   .     A
C559   O724    1.282   .     A
C559   O752    1.280   .     A
C560   O749    1.283   .     A
C560   O725    1.282   .     A
C561   O726    1.282   .     A
C561   O750    1.283   .     A
C562   O756    1.283   .     A
C562   O727    1.279   .     A
C563   O757    1.283   .     A
C563   O728    1.279   .     A
C564   O729    1.280   .     A
C564   O753    1.278   .     A
C565   O755    1.278   .     A
C565   O730    1.280   .     A
C566   O742    1.282   .     A
C566   O731    1.283   .     A
C567   O733    1.283   .     A
C567   O744    1.282   .     A
C568   O740    1.282   .     A
C568   O734    1.280   .     A
C569   C611    1.412   .     A
C570   O741    1.282   .     A
C570   O735    1.280   .     A
C571   O747    1.280   .     A
C571   O736    1.278   .     A
C572   O737    1.278   .     A
C572   O748    1.280   .     A
C573   O745    1.279   .     A
C573   O738    1.283   .     A
C574   O746    1.279   .     A
C574   O739    1.283   .     A
C575   C592    1.404   .     A
C576   C590    1.404   .     A
C577   C589    1.394   .     A
C578   C588    1.394   .     A
C579   C587    1.405   .     A
C580   C612    1.412   .     A
C581   C586    1.405   .     A
C582   C585    1.411   .     A
C583   C584    1.411   .     A
C593   C609    1.404   .     A
C594   C608    1.404   .     A
C595   C607    1.394   .     A
C596   C606    1.394   .     A
C597   C605    1.405   .     A
C598   C604    1.405   .     A
C599   C603    1.411   .     A
C600   C601    1.411   .     A
C602   C1351   1.411   1_545 S
H613   O759    1.013   .     S
H614   O779    1.014   .     S
H615   O781    1.013   .     S
H616   O783    1.013   .     S
H617   O785    1.013   .     S
H618   O788    1.013   .     S
H619   O790    1.012   .     S
H620   O792    1.012   .     S
H621   O794    1.013   .     S
H622   O796    1.013   .     S
H623   O799    1.014   .     S
H624   O761    1.013   .     S
H625   O801    1.014   .     S
H626   O803    1.013   .     S
H627   O805    1.013   .     S
H628   O807    1.014   .     S
H629   O663    1.014   .     S
H630   O665    1.014   .     S
H631   O667    1.014   .     S
H632   O669    1.013   .     S
H633   O671    1.013   .     S
H634   O674    1.014   .     S
H635   O763    1.014   .     S
H636   O676    1.013   .     S
H637   O678    1.012   .     S
H638   O680    1.012   .     S
H639   O682    1.014   .     S
H640   O685    1.014   .     S
H641   O1511   1.014   1_545 S
H642   O1513   1.014   .     S
H643   O691    1.014   .     S
H644   O693    1.014   .     S
H645   O696    1.014   .     S
H646   O766    1.014   .     S
H647   O698    1.014   .     S
H648   O700    1.014   .     S
H649   O702    1.014   .     S
H650   O704    1.014   .     S
H651   O707    1.014   .     S
H652   O709    1.014   .     S
H653   O711    1.014   .     S
H654   O713    1.014   .     S
H655   O715    1.014   .     S
H656   O768    1.013   .     S
H657   O770    1.013   .     S
H659   O362    1.014   1_655 S
H660   O777    1.014   .     S
O661   Zn1640  1.949   1_545 S
O661   Zn809   1.948   .     S
O661   Zn812   1.952   .     S
O661   Zn820   1.954   .     S
O662   Zn811   1.945   .     S
O662   C1374   1.281   .     S
O673   Zn814   1.945   .     S
O673   C139    1.279   1_655 S
O684   Zn813   1.945   .     S
O687   H1465   1.014   .     S
O687   C1333   1.399   .     S
O689   C1334   1.399   1_545 S
O689   H1466   1.014   1_545 S
O695   Zn823   1.947   .     S
O706   Zn822   1.947   .     S
O716   Zn817   1.948   .     S
O717   Zn809   1.948   .     S
O717   C1380   1.280   1_545 S
O718   Zn819   1.945   .     S
O719   Zn818   1.945   .     S
O720   Zn821   1.945   .     S
O721   Zn815   1.949   .     S
O721   Zn821   1.954   .     S
O721   Zn817   1.948   .     S
O721   Zn1635  1.952   1_545 S
O722   Zn820   1.945   .     S
O722   C1380   1.279   1_545 S
O723   Zn812   1.946   .     S
O724   Zn811   1.946   .     S
O725   Zn814   1.937   .     S
O726   Zn813   1.937   .     S
O727   Zn816   1.948   .     S
O728   Zn815   1.948   .     S
O729   Zn810   1.937   .     S
O730   Zn824   1.937   .     S
O731   Zn811   1.937   .     S
O732   Zn822   1.949   .     S
O732   Zn818   1.952   .     S
O732   Zn810   1.948   .     S
O733   Zn812   1.937   .     S
O734   Zn824   1.948   .     S
O735   Zn810   1.948   .     S
O736   Zn815   1.936   .     S
O737   Zn816   1.936   .     S
O738   Zn813   1.946   .     S
O739   Zn814   1.946   .     S
O740   Zn407   1.946   1_655 S
O741   Zn818   1.946   .     S
O742   Zn1645  1.937   .     S
O743   Zn813   1.954   .     S
O743   Zn823   1.949   .     S
O743   Zn819   1.952   .     S
O744   Zn820   1.937   .     S
O745   Zn823   1.948   .     S
O746   Zn410   1.948   1_655 S
O747   Zn817   1.937   .     S
O748   Zn1633  1.937   .     S
O749   Zn406   1.937   1_655 S
O750   Zn819   1.937   .     S
O751   Zn809   1.948   .     S
O752   Zn1641  1.948   .     S
O753   Zn822   1.936   .     S
O754   Zn816   1.947   .     S
O755   Zn411   1.936   1_655 S
O756   Zn1644  1.946   .     S
O757   Zn821   1.946   .     S
O765   Zn815   1.947   .     S
O772   H246    1.014   1_655 S
O776   Zn810   1.948   .     S
O787   Zn824   1.948   .     S
O798   Zn812   1.945   .     S
O798   C1373   1.281   1_545 S
Zn809  O1572   1.937   1_545 S
Zn811  O1545   1.952   .     S
Zn814  O320    1.954   1_655 S
Zn816  O1485   1.949   .     S
Zn817  O1576   1.948   1_545 S
Zn820  O1580   1.946   1_545 S
Zn821  O1566   1.937   1_545 S
Zn824  O331    1.948   1_655 S
Br825  C943    1.941   .     S
Br826  C953    1.941   .     S
Br827  C954    1.941   .     S
Br828  C955    1.941   .     S
Br829  C956    1.942   .     S
Br830  C957    1.942   .     S
Br831  C958    1.941   .     S
Br832  C960    1.941   .     S
Br833  C944    1.941   .     S
Br834  C945    1.941   .     S
Br835  C946    1.941   .     S
Br836  C947    1.942   .     S
Br837  C949    1.942   .     S
Br838  C950    1.941   .     S
Br839  C951    1.941   .     S
Br840  C952    1.941   .     S
C841   C844    1.412   .     A
C841   C918    1.493   .     S
C841   C1331   1.411   .     S
C842   C928    1.493   .     S
C842   C854    1.412   .     A
C842   C116    1.411   1_565 S
C843   C946    1.418   .     A
C843   C1003   1.412   .     A
C843   C878    1.416   .     A
C844   C947    1.418   .     A
C844   C1286   1.417   .     S
C845   C937    1.412   .     A
C845   C949    1.418   .     A
C845   C1288   1.417   1_455 S
C846   C950    1.416   .     A
C846   C948    1.411   .     A
C847   C951    1.416   .     A
C847   C959    1.411   .     A
C847   C54     1.415   1_565 S
C848   C875    1.412   .     A
C848   C952    1.418   .     A
C848   C55     1.416   1_565 S
C849   C886    1.412   .     A
C849   C953    1.418   .     A
C850   C954    1.418   .     A
C850   C897    1.412   .     A
C850   C1293   1.416   1_455 S
C851   C908    1.412   .     A
C851   C955    1.418   .     A
C851   C1294   1.416   .     S
C852   C956    1.418   .     A
C852   C1014   1.412   .     A
C852   C879    1.417   .     A
C853   C929    1.495   .     S
C853   C941    1.412   .     A
C853   C855    1.411   .     A
C854   C880    1.417   .     A
C854   C957    1.418   .     A
C855   C881    1.415   .     A
C855   C958    1.416   .     A
C856   C882    1.415   .     A
C856   C960    1.416   .     A
C856   C864    1.411   .     A
C857   C1004   1.413   .     A
C857   C1006   1.412   .     A
C857   C976    1.458   .     S
C858   C977    1.458   .     S
C858   C1005   1.412   .     A
C858   C1002   1.413   .     A
C859   C969    1.465   .     S
C859   C1001   1.419   .     A
C859   C1008   1.418   .     A
C860   C1007   1.418   .     A
C860   C1000   1.419   .     A
C860   C971    1.465   .     S
C861   C999    1.412   .     A
C861   C1010   1.412   .     A
C861   C972    1.459   .     S
C862   C998    1.412   .     A
C862   C973    1.459   .     S
C862   C1009   1.412   .     A
C863   C974    1.466   .     S
C863   C1012   1.414   .     A
C863   C997    1.415   .     A
C864   C931    1.495   .     S
C864   C942    1.412   .     A
C865   C1011   1.414   .     A
C865   C996    1.415   .     A
C865   C975    1.466   .     S
C866   C985    1.466   .     S
C866   C995    1.414   .     A
C866   C1015   1.415   .     A
C867   C994    1.414   .     A
C867   C986    1.466   .     S
C867   C1013   1.415   .     A
C868   C978    1.459   .     S
C868   C1017   1.412   .     A
C868   C993    1.412   .     A
C869   C991    1.412   .     A
C869   C979    1.459   .     S
C869   C1016   1.412   .     A
C870   C980    1.465   .     S
C870   C990    1.418   .     A
C870   C1019   1.419   .     A
C871   C989    1.418   .     A
C871   C1018   1.418   .     A
C871   C982    1.465   .     S
C872   C988    1.412   .     A
C872   C983    1.458   .     S
C872   C1021   1.413   .     A
C873   C984    1.458   .     S
C873   C987    1.412   .     A
C873   C1020   1.413   .     A
C874   C1022   1.416   .     A
C874   C1256   1.417   1_455 S
C874   C1288   1.408   1_455 S
C875   C939    1.412   .     A
C875   C932    1.493   .     S
C876   C1023   1.416   .     A
C876   C1257   1.417   .     S
C876   C1286   1.408   .     S
C877   C1024   1.416   .     A
C877   C22     1.415   1_565 S
C877   C54     1.407   1_565 S
C879   C56     1.408   1_556 S
C880   C25     1.416   1_565 S
C880   C55     1.408   1_564 S
C881   C1262   1.416   .     S
C881   C1294   1.407   1_556 S
C882   C1263   1.416   1_455 S
C882   C1293   1.407   1_454 S
C883   O1170   1.222   .     D
C883   C987    1.489   .     S
C883   O1171   1.398   .     S
C884   O1172   1.222   .     D
C884   O1173   1.398   .     S
C884   C988    1.489   .     S
C885   O1175   1.395   .     S
C885   C989    1.488   .     S
C885   O1174   1.223   .     D
C886   C933    1.493   .     S
C886   C940    1.412   .     A
C887   C990    1.488   .     S
C887   O1178   1.395   .     S
C887   O1176   1.223   .     D
C888   C991    1.486   .     S
C888   O1180   1.397   .     S
C888   O1179   1.222   .     D
C889   O1182   1.397   .     S
C889   C993    1.486   .     S
C889   O1181   1.222   .     D
C890   O1184   1.398   .     S
C890   O1183   1.223   .     D
C890   C994    1.489   .     S
C891   O1186   1.398   .     S
C891   O1185   1.223   .     D
C891   C995    1.489   .     S
C892   O1189   1.398   .     S
C892   C996    1.492   .     S
C892   O1187   1.223   .     D
C893   C997    1.492   .     S
C893   O1191   1.398   .     S
C893   O1190   1.223   .     D
C894   O1193   1.398   .     S
C894   C998    1.487   .     S
C894   O1192   1.222   .     D
C895   O1194   1.222   .     D
C895   O1195   1.398   .     S
C895   C999    1.487   .     S
C896   O1196   1.223   .     D
C896   O1197   1.396   .     S
C896   C1000   1.486   .     S
C897   C934    1.491   .     S
C897   C1353   1.412   1_455 S
C898   C1001   1.486   .     S
C898   O1200   1.396   .     S
C898   O1198   1.223   .     D
C899   C1002   1.484   .     S
C899   O1201   1.223   .     D
C899   O1202   1.396   .     S
C900   O1203   1.223   .     D
C900   C1004   1.484   .     S
C900   O1204   1.396   .     S
C901   O1206   1.398   .     S
C901   C1005   1.489   .     S
C901   O1205   1.222   .     D
C902   C1006   1.489   .     S
C902   O1207   1.222   .     D
C902   O1208   1.398   .     S
C903   O1211   1.395   .     S
C903   O1209   1.223   .     D
C903   C1007   1.488   .     S
C904   C1008   1.488   .     S
C904   O1213   1.395   .     S
C904   O1212   1.223   .     D
C905   O1215   1.397   .     S
C905   O1214   1.222   .     D
C905   C1009   1.486   .     S
C906   O1217   1.397   .     S
C906   C1010   1.486   .     S
C906   O1216   1.222   .     D
C907   O1219   1.398   .     S
C907   C1011   1.489   .     S
C907   O1218   1.223   .     D
C908   C935    1.491   .     S
C908   C1354   1.412   .     S
C909   C1012   1.489   .     S
C909   O1075   1.398   .     S
C909   O1220   1.223   .     D
C910   O1077   1.398   .     S
C910   O1076   1.223   .     D
C910   C1013   1.492   .     S
C911   C1015   1.492   .     S
C911   O1079   1.398   .     S
C911   O1078   1.223   .     D
C912   O1081   1.398   .     S
C912   O1080   1.222   .     D
C912   C1016   1.487   .     S
C913   O1083   1.398   .     S
C913   C1017   1.487   .     S
C913   O1082   1.222   .     D
C914   O1084   1.223   .     D
C914   O1086   1.396   .     S
C914   C1018   1.486   .     S
C915   C1019   1.486   .     S
C915   O1087   1.223   .     D
C915   O1088   1.396   .     S
C916   O1090   1.396   .     S
C916   C1020   1.484   .     S
C916   O1089   1.223   .     D
C917   O1092   1.396   .     S
C917   C1021   1.484   .     S
C917   O1091   1.223   .     D
C918   O1093   1.223   .     D
C918   O1094   1.399   .     S
C919   C970    1.412   .     A
C919   C963    1.456   .     S
C919   C1253   1.411   1_455 S
C920   O1095   1.223   .     D
C920   C937    1.493   .     S
C920   O1097   1.399   .     S
C921   C948    1.495   .     S
C921   O1098   1.222   .     D
C922   O1100   1.222   .     D
C922   C959    1.495   .     S
C922   O277    1.399   1_565 S
C923   O1102   1.222   .     D
C923   O1103   1.399   .     S
C923   C970    1.493   .     S
C924   O1105   1.399   .     S
C924   C981    1.493   .     S
C924   O1104   1.222   .     D
C925   O1106   1.222   .     D
C925   O1108   1.399   .     S
C925   C992    1.491   .     S
C926   C1003   1.491   .     S
C926   O1109   1.222   .     D
C926   O1110   1.399   .     S
C927   C1014   1.493   .     S
C927   O1111   1.223   .     D
C927   O1112   1.399   .     S
C928   O1113   1.223   .     D
C928   O1114   1.399   .     S
C929   O1115   1.222   .     D
C929   O1116   1.399   .     S
C930   C981    1.412   .     A
C930   C964    1.456   .     S
C930   C1349   1.411   .     S
C931   O1119   1.399   .     S
C931   O1117   1.222   .     D
C932   O1121   1.399   .     S
C932   O1120   1.222   .     D
C933   O1123   1.399   .     S
C933   O1122   1.222   .     D
C934   O1124   1.222   .     D
C934   O1125   1.399   .     S
C935   O1126   1.222   .     D
C935   O1127   1.399   .     S
C936   C961    1.456   .     S
C936   C992    1.412   .     A
C936   C124    1.412   1_565 S
C937   C1342   1.411   1_455 S
C938   C1003   1.412   .     A
C938   C962    1.456   .     S
C939   C143    1.456   1_565 S
C939   C190    1.411   1_565 S
C941   C1309   1.412   .     S
C941   C1377   1.456   .     S
C942   C1320   1.412   1_455 S
C942   C1378   1.456   1_455 S
C943   C1022   1.418   .     A
C943   C949    1.405   .     A
C944   C947    1.405   .     A
C944   C1023   1.418   .     A
C945   C951    1.405   .     A
C945   C1024   1.418   .     A
C946   C950    1.405   .     A
C952   C957    1.405   1_556 S
C953   C956    1.405   1_554 S
C954   C960    1.405   1_556 S
C955   C958    1.405   1_554 S
C956   C953    1.405   1_556 S
C957   C952    1.405   1_554 S
C958   C955    1.405   1_556 S
C959   C114    1.412   1_565 S
C960   C954    1.405   1_554 S
C961   O1166   1.278   .     A
C961   O386    1.281   1_565 S
C962   O1177   1.278   .     A
C963   O1188   1.280   .     A
C963   O1497   1.279   1_455 S
C964   O1199   1.280   .     A
C964   O1508   1.279   .     S
C965   O1130   1.281   .     A
C965   O1107   1.278   .     A
C965   C1353   1.456   1_455 S
C966   O1543   1.281   .     A
C966   C1354   1.456   .     S
C966   O1530   1.278   .     S
C967   O1128   1.280   .     S
C967   O1132   1.279   .     S
C968   C116    1.456   1_565 S
C968   O305    1.280   1_565 S
C968   O310    1.279   1_565 S
C969   O1163   1.280   .     A
C969   O1135   1.282   .     A
C970   C1022   1.412   .     A
C971   O1136   1.282   .     A
C971   O1164   1.280   .     A
C972   O1161   1.283   .     A
C972   O1137   1.282   .     A
C973   O1138   1.282   .     A
C973   O1162   1.283   .     A
C974   O1168   1.283   .     A
C974   O1139   1.279   .     A
C975   O1169   1.283   .     A
C975   O1140   1.279   .     A
C976   O1141   1.280   .     A
C976   O1165   1.278   .     A
C977   O1167   1.278   .     A
C977   O1142   1.280   .     A
C978   O1154   1.282   .     A
C978   O1143   1.283   .     A
C979   O1145   1.283   .     A
C979   O1156   1.282   .     A
C980   O1152   1.282   .     A
C980   O1146   1.280   .     A
C981   C1023   1.412   .     A
C982   O1153   1.282   .     A
C982   O1147   1.280   .     A
C983   O1159   1.280   .     A
C983   O1148   1.278   .     A
C984   O1149   1.278   .     A
C984   O1160   1.280   .     A
C985   O1157   1.279   .     A
C985   O1150   1.283   .     A
C986   O1158   1.279   .     A
C986   O1151   1.283   .     A
C987   C1004   1.404   .     A
C988   C1002   1.404   .     A
C989   C1001   1.394   .     A
C990   C1000   1.394   .     A
C991   C999    1.405   .     A
C992   C1024   1.412   .     A
C993   C998    1.405   .     A
C994   C997    1.411   .     A
C995   C996    1.411   .     A
C1005  C1021   1.404   .     A
C1006  C1020   1.404   .     A
C1007  C1019   1.394   .     A
C1008  C1018   1.394   .     A
C1009  C1017   1.405   .     A
C1010  C1016   1.405   .     A
C1011  C1015   1.411   .     A
C1012  C1013   1.411   .     A
H1025  O1171   1.013   .     S
H1026  O1191   1.014   .     S
H1027  O1193   1.013   .     S
H1028  O1195   1.013   .     S
H1029  O1197   1.013   .     S
H1030  O1200   1.013   .     S
H1031  O1202   1.012   .     S
H1032  O1204   1.012   .     S
H1033  O1206   1.013   .     S
H1034  O1208   1.013   .     S
H1035  O1211   1.014   .     S
H1036  O1173   1.013   .     S
H1037  O1213   1.014   .     S
H1038  O1215   1.013   .     S
H1039  O1217   1.013   .     S
H1040  O1219   1.014   .     S
H1041  O1075   1.014   .     S
H1042  O1077   1.014   .     S
H1043  O1079   1.014   .     S
H1044  O1081   1.013   .     S
H1045  O1083   1.013   .     S
H1046  O1086   1.014   .     S
H1047  O1175   1.014   .     S
H1048  O1088   1.013   .     S
H1049  O1090   1.012   .     S
H1050  O1092   1.012   .     S
H1051  O1094   1.014   .     S
H1052  O1097   1.014   .     S
H1054  O277    1.014   1_565 S
H1055  O1103   1.014   .     S
H1056  O1105   1.014   .     S
H1057  O1108   1.014   .     S
H1058  O1178   1.014   .     S
H1059  O1110   1.014   .     S
H1060  O1112   1.014   .     S
H1061  O1114   1.014   .     S
H1062  O1116   1.014   .     S
H1063  O1119   1.014   .     S
H1064  O1121   1.014   .     S
H1065  O1123   1.014   .     S
H1066  O1125   1.014   .     S
H1067  O1127   1.014   .     S
H1068  O1180   1.013   .     S
H1069  O1182   1.013   .     S
H1070  O1596   1.014   1_455 S
H1071  O1598   1.014   .     S
H1072  O1189   1.014   .     S
O1073  Zn1221  1.948   .     S
O1073  Zn1224  1.952   .     S
O1073  Zn1232  1.954   .     S
O1074  Zn1223  1.945   .     S
O1074  C138    1.281   1_565 S
O1085  Zn1226  1.945   .     S
O1085  C1375   1.279   .     S
O1096  Zn1225  1.945   .     S
O1096  C1376   1.279   1_455 S
O1099  H229    1.014   1_565 S
O1099  C97     1.399   1_565 S
O1107  Zn1235  1.947   .     S
O1118  Zn1234  1.947   .     S
O1118  C1378   1.278   1_455 S
O1128  Zn1229  1.948   .     S
O1129  Zn1221  1.948   .     S
O1130  Zn1231  1.945   .     S
O1131  C1378   1.281   1_455 A
O1131  Zn1230  1.945   .     S
O1132  Zn1233  1.945   .     S
O1133  Zn1227  1.949   .     S
O1133  Zn1233  1.954   .     S
O1133  Zn1229  1.948   .     S
O1134  Zn1232  1.945   .     S
O1135  Zn1224  1.946   .     S
O1136  Zn1223  1.946   .     S
O1137  Zn1226  1.937   .     S
O1138  Zn1225  1.937   .     S
O1139  Zn1228  1.948   .     S
O1140  Zn1227  1.948   .     S
O1141  Zn1222  1.937   .     S
O1142  Zn1236  1.937   .     S
O1143  Zn1223  1.937   .     S
O1144  Zn1234  1.949   .     S
O1144  Zn1230  1.952   .     S
O1144  Zn1222  1.948   .     S
O1144  Zn1638  1.954   1_455 S
O1145  Zn1224  1.937   .     S
O1146  Zn1236  1.948   .     S
O1147  Zn1222  1.948   .     S
O1148  Zn1227  1.936   .     S
O1149  Zn1228  1.936   .     S
O1150  Zn1225  1.946   .     S
O1151  Zn1226  1.946   .     S
O1152  Zn1643  1.946   .     S
O1153  Zn1230  1.946   .     S
O1154  Zn409   1.937   1_565 S
O1155  Zn1225  1.954   .     S
O1155  Zn1235  1.949   .     S
O1155  Zn1231  1.952   .     S
O1155  Zn1648  1.948   1_455 S
O1156  Zn1232  1.937   .     S
O1157  Zn1235  1.948   .     S
O1158  Zn1646  1.948   .     S
O1159  Zn1229  1.937   .     S
O1160  Zn397   1.937   1_565 S
O1161  Zn1642  1.937   .     S
O1162  Zn1231  1.937   .     S
O1163  Zn1221  1.948   .     S
O1164  Zn405   1.948   1_565 S
O1165  Zn1234  1.936   .     S
O1166  Zn1228  1.947   .     S
O1167  Zn1647  1.936   .     S
O1168  Zn408   1.946   1_565 S
O1169  Zn1233  1.946   .     S
O1177  Zn1227  1.947   .     S
O1184  H1482   1.014   .     S
O1186  H1483   1.014   1_455 S
O1188  Zn1222  1.948   .     S
O1199  Zn1236  1.948   .     S
O1210  Zn1224  1.945   .     S
Zn1223 O309    1.952   1_565 S
Zn1226 O1556   1.954   .     S
Zn1228 O249    1.949   1_565 S
Zn1230 O1573   1.937   1_455 S
Zn1231 O1564   1.946   1_455 S
Zn1234 O1570   1.948   1_455 S
Zn1235 O1579   1.936   1_455 S
Zn1236 O1567   1.948   .     S
Br1237 C1355   1.941   .     S
Br1238 C1365   1.941   .     S
Br1239 C1366   1.941   .     S
Br1240 C1367   1.941   .     S
Br1241 C1368   1.942   .     S
Br1242 C1369   1.942   .     S
Br1243 C1370   1.941   .     S
Br1244 C1372   1.941   .     S
Br1245 C1356   1.941   .     S
Br1246 C1357   1.941   .     S
Br1247 C1358   1.941   .     S
Br1248 C1359   1.942   .     S
Br1249 C1361   1.942   .     S
Br1250 C1362   1.941   .     S
Br1251 C1363   1.941   .     S
Br1252 C1364   1.941   .     S
C1253  C1256   1.412   .     A
C1253  C1330   1.493   .     S
C1253  C919    1.411   1_655 S
C1254  C1340   1.493   .     S
C1254  C1266   1.412   .     A
C1254  C528    1.411   1_565 S
C1255  C1358   1.418   .     A
C1255  C1415   1.412   .     A
C1255  C1290   1.416   .     A
C1256  C1359   1.418   .     A
C1256  C874    1.417   1_655 S
C1257  C1349   1.412   .     A
C1257  C1361   1.418   .     A
C1258  C1362   1.416   .     A
C1258  C1360   1.411   .     A
C1259  C1363   1.416   .     A
C1259  C1371   1.411   .     A
C1259  C466    1.415   1_565 S
C1260  C1287   1.412   .     A
C1260  C1364   1.418   .     A
C1260  C467    1.416   1_565 S
C1261  C1298   1.412   .     A
C1261  C1365   1.418   .     A
C1262  C1366   1.418   .     A
C1262  C1309   1.412   .     A
C1263  C1320   1.412   .     A
C1263  C1367   1.418   .     A
C1263  C882    1.416   1_655 S
C1264  C1368   1.418   .     A
C1264  C1426   1.412   .     A
C1264  C1291   1.417   .     A
C1265  C1341   1.495   .     S
C1265  C1353   1.412   .     A
C1265  C1267   1.411   .     A
C1266  C1292   1.417   .     A
C1266  C1369   1.418   .     A
C1267  C1293   1.415   .     A
C1267  C1370   1.416   .     A
C1268  C1294   1.415   .     A
C1268  C1372   1.416   .     A
C1268  C1276   1.411   .     A
C1269  C1416   1.413   .     A
C1269  C1418   1.412   .     A
C1269  C1388   1.458   .     S
C1270  C1389   1.458   .     S
C1270  C1417   1.412   .     A
C1270  C1414   1.413   .     A
C1271  C1381   1.465   .     S
C1271  C1413   1.419   .     A
C1271  C1420   1.418   .     A
C1272  C1419   1.418   .     A
C1272  C1412   1.419   .     A
C1272  C1383   1.465   .     S
C1273  C1411   1.412   .     A
C1273  C1422   1.412   .     A
C1273  C1384   1.459   .     S
C1274  C1410   1.412   .     A
C1274  C1385   1.459   .     S
C1274  C1421   1.412   .     A
C1275  C1386   1.466   .     S
C1275  C1424   1.414   .     A
C1275  C1409   1.415   .     A
C1276  C1343   1.495   .     S
C1276  C1354   1.412   .     A
C1277  C1423   1.414   .     A
C1277  C1408   1.415   .     A
C1277  C1387   1.466   .     S
C1278  C1397   1.466   .     S
C1278  C1407   1.414   .     A
C1278  C1427   1.415   .     A
C1279  C1406   1.414   .     A
C1279  C1398   1.466   .     S
C1279  C1425   1.415   .     A
C1280  C1390   1.459   .     S
C1280  C1429   1.412   .     A
C1280  C1405   1.412   .     A
C1281  C1403   1.412   .     A
C1281  C1391   1.459   .     S
C1281  C1428   1.412   .     A
C1282  C1392   1.465   .     S
C1282  C1402   1.418   .     A
C1282  C1431   1.419   .     A
C1283  C1401   1.418   .     A
C1283  C1430   1.418   .     A
C1283  C1394   1.465   .     S
C1284  C1400   1.412   .     A
C1284  C1395   1.458   .     S
C1284  C1433   1.413   .     A
C1285  C1396   1.458   .     S
C1285  C1399   1.412   .     A
C1285  C1432   1.413   .     A
C1286  C1434   1.416   .     A
C1287  C1351   1.412   .     A
C1287  C1344   1.493   .     S
C1288  C1435   1.416   .     A
C1288  C845    1.417   1_655 S
C1288  C874    1.408   1_655 S
C1289  C1436   1.416   .     A
C1289  C434    1.415   1_565 S
C1289  C466    1.407   1_565 S
C1291  C468    1.408   1_556 S
C1292  C437    1.416   1_565 S
C1292  C467    1.408   1_564 S
C1293  C850    1.416   1_655 S
C1293  C882    1.407   1_656 S
C1294  C881    1.407   1_554 S
C1295  O1582   1.222   .     D
C1295  C1399   1.489   .     S
C1295  O1583   1.398   .     S
C1296  O1584   1.222   .     D
C1296  O1585   1.398   .     S
C1296  C1400   1.489   .     S
C1297  O1587   1.395   .     S
C1297  C1401   1.488   .     S
C1297  O1586   1.223   .     D
C1298  C1345   1.493   .     S
C1298  C1352   1.412   .     A
C1299  C1402   1.488   .     S
C1299  O1590   1.395   .     S
C1299  O1588   1.223   .     D
C1300  C1403   1.486   .     S
C1300  O1592   1.397   .     S
C1300  O1591   1.222   .     D
C1301  O1594   1.397   .     S
C1301  C1405   1.486   .     S
C1301  O1593   1.222   .     D
C1302  O1596   1.398   .     S
C1302  O1595   1.223   .     D
C1302  C1406   1.489   .     S
C1303  O1598   1.398   .     S
C1303  O1597   1.223   .     D
C1303  C1407   1.489   .     S
C1304  O1601   1.398   .     S
C1304  C1408   1.492   .     S
C1304  O1599   1.223   .     D
C1305  C1409   1.492   .     S
C1305  O1603   1.398   .     S
C1305  O1602   1.223   .     D
C1306  O1605   1.398   .     S
C1306  C1410   1.487   .     S
C1306  O1604   1.222   .     D
C1307  O1606   1.222   .     D
C1307  O1607   1.398   .     S
C1307  C1411   1.487   .     S
C1308  O1608   1.223   .     D
C1308  O1609   1.396   .     S
C1308  C1412   1.486   .     S
C1309  C1346   1.491   .     S
C1310  C1413   1.486   .     S
C1310  O1612   1.396   .     S
C1310  O1610   1.223   .     D
C1311  C1414   1.484   .     S
C1311  O1613   1.223   .     D
C1311  O1614   1.396   .     S
C1312  O1615   1.223   .     D
C1312  C1416   1.484   .     S
C1312  O1616   1.396   .     S
C1313  O1618   1.398   .     S
C1313  C1417   1.489   .     S
C1313  O1617   1.222   .     D
C1314  C1418   1.489   .     S
C1314  O1619   1.222   .     D
C1314  O1620   1.398   .     S
C1315  O1623   1.395   .     S
C1315  O1621   1.223   .     D
C1315  C1419   1.488   .     S
C1316  C1420   1.488   .     S
C1316  O1625   1.395   .     S
C1316  O1624   1.223   .     D
C1317  O1627   1.397   .     S
C1317  O1626   1.222   .     D
C1317  C1421   1.486   .     S
C1318  O1629   1.397   .     S
C1318  C1422   1.486   .     S
C1318  O1628   1.222   .     D
C1319  O1631   1.398   .     S
C1319  C1423   1.489   .     S
C1319  O1630   1.223   .     D
C1320  C1347   1.491   .     S
C1320  C942    1.412   1_655 S
C1321  C1424   1.489   .     S
C1321  O1487   1.398   .     S
C1321  O1632   1.223   .     D
C1322  O1489   1.398   .     S
C1322  O1488   1.223   .     D
C1322  C1425   1.492   .     S
C1323  C1427   1.492   .     S
C1323  O1491   1.398   .     S
C1323  O1490   1.223   .     D
C1324  O1493   1.398   .     S
C1324  O1492   1.222   .     D
C1324  C1428   1.487   .     S
C1325  O1495   1.398   .     S
C1325  C1429   1.487   .     S
C1325  O1494   1.222   .     D
C1326  O1496   1.223   .     D
C1326  O1498   1.396   .     S
C1326  C1430   1.486   .     S
C1327  C1431   1.486   .     S
C1327  O1499   1.223   .     D
C1327  O1500   1.396   .     S
C1328  O1502   1.396   .     S
C1328  C1432   1.484   .     S
C1328  O1501   1.223   .     D
C1329  O1504   1.396   .     S
C1329  C1433   1.484   .     S
C1329  O1503   1.223   .     D
C1330  O1505   1.223   .     D
C1330  O1506   1.399   .     S
C1331  C1382   1.412   .     A
C1331  C1375   1.456   .     S
C1332  O1507   1.223   .     D
C1332  C1349   1.493   .     S
C1332  O1509   1.399   .     S
C1333  C1360   1.495   .     S
C1333  O1510   1.222   .     D
C1334  O1512   1.222   .     D
C1334  C1371   1.495   .     S
C1334  O689    1.399   1_565 S
C1335  O1514   1.222   .     D
C1335  O1515   1.399   .     S
C1335  C1382   1.493   .     S
C1336  O1517   1.399   .     S
C1336  C1393   1.493   .     S
C1336  O1516   1.222   .     D
C1337  O1518   1.222   .     D
C1337  O1520   1.399   .     S
C1337  C1404   1.491   .     S
C1338  C1415   1.491   .     S
C1338  O1521   1.222   .     D
C1338  O1522   1.399   .     S
C1339  C1426   1.493   .     S
C1339  O1523   1.223   .     D
C1339  O1524   1.399   .     S
C1340  O1525   1.223   .     D
C1340  O1526   1.399   .     S
C1341  O1527   1.222   .     D
C1341  O1528   1.399   .     S
C1342  C1393   1.412   .     A
C1342  C1376   1.456   .     S
C1342  C937    1.411   1_655 S
C1343  O1531   1.399   .     S
C1343  O1529   1.222   .     D
C1344  O1533   1.399   .     S
C1344  O1532   1.222   .     D
C1345  O1535   1.399   .     S
C1345  O1534   1.222   .     D
C1346  O1536   1.222   .     D
C1346  O1537   1.399   .     S
C1347  O1538   1.222   .     D
C1347  O1539   1.399   .     S
C1348  C1373   1.456   .     S
C1348  C1404   1.412   .     A
C1348  C536    1.412   1_565 S
C1350  C1415   1.412   .     A
C1350  C1374   1.456   .     S
C1351  C555    1.456   1_565 S
C1351  C602    1.411   1_565 S
C1353  C897    1.412   1_655 S
C1353  C965    1.456   1_655 S
C1355  C1434   1.418   .     A
C1355  C1361   1.405   .     A
C1356  C1359   1.405   .     A
C1356  C1435   1.418   .     A
C1357  C1363   1.405   .     A
C1357  C1436   1.418   .     A
C1358  C1362   1.405   .     A
C1364  C1369   1.405   1_556 S
C1365  C1368   1.405   1_554 S
C1366  C1372   1.405   1_556 S
C1367  C1370   1.405   1_554 S
C1368  C1365   1.405   1_556 S
C1369  C1364   1.405   1_554 S
C1370  C1367   1.405   1_556 S
C1371  C526    1.412   1_565 S
C1372  C1366   1.405   1_554 S
C1373  O1578   1.278   .     A
C1373  O798    1.281   1_565 S
C1374  O1589   1.278   .     A
C1375  O1600   1.280   .     A
C1376  O1611   1.280   .     A
C1376  O1096   1.279   1_655 S
C1377  O1542   1.281   .     A
C1377  O1519   1.278   .     A
C1378  O1131   1.281   1_655 A
C1378  C942    1.456   1_655 S
C1378  O1118   1.278   1_655 S
C1379  O1540   1.280   .     S
C1379  O1544   1.279   .     S
C1380  C528    1.456   1_565 S
C1380  O717    1.280   1_565 S
C1380  O722    1.279   1_565 S
C1381  O1575   1.280   .     A
C1381  O1547   1.282   .     A
C1382  C1434   1.412   .     A
C1383  O1548   1.282   .     A
C1383  O1576   1.280   .     A
C1384  O1573   1.283   .     A
C1384  O1549   1.282   .     A
C1385  O1550   1.282   .     A
C1385  O1574   1.283   .     A
C1386  O1580   1.283   .     A
C1386  O1551   1.279   .     A
C1387  O1581   1.283   .     A
C1387  O1552   1.279   .     A
C1388  O1553   1.280   .     A
C1388  O1577   1.278   .     A
C1389  O1579   1.278   .     A
C1389  O1554   1.280   .     A
C1390  O1566   1.282   .     A
C1390  O1555   1.283   .     A
C1391  O1557   1.283   .     A
C1391  O1568   1.282   .     A
C1392  O1564   1.282   .     A
C1392  O1558   1.280   .     A
C1393  C1435   1.412   .     A
C1394  O1565   1.282   .     A
C1394  O1559   1.280   .     A
C1395  O1571   1.280   .     A
C1395  O1560   1.278   .     A
C1396  O1561   1.278   .     A
C1396  O1572   1.280   .     A
C1397  O1569   1.279   .     A
C1397  O1562   1.283   .     A
C1398  O1570   1.279   .     A
C1398  O1563   1.283   .     A
C1399  C1416   1.404   .     A
C1400  C1414   1.404   .     A
C1401  C1413   1.394   .     A
C1402  C1412   1.394   .     A
C1403  C1411   1.405   .     A
C1404  C1436   1.412   .     A
C1405  C1410   1.405   .     A
C1406  C1409   1.411   .     A
C1407  C1408   1.411   .     A
C1417  C1433   1.404   .     A
C1418  C1432   1.404   .     A
C1419  C1431   1.394   .     A
C1420  C1430   1.394   .     A
C1421  C1429   1.405   .     A
C1422  C1428   1.405   .     A
C1423  C1427   1.411   .     A
C1424  C1425   1.411   .     A
H1437  O1583   1.013   .     S
H1438  O1603   1.014   .     S
H1439  O1605   1.013   .     S
H1440  O1607   1.013   .     S
H1441  O1609   1.013   .     S
H1442  O1612   1.013   .     S
H1443  O1614   1.012   .     S
H1444  O1616   1.012   .     S
H1445  O1618   1.013   .     S
H1446  O1620   1.013   .     S
H1447  O1623   1.014   .     S
H1448  O1585   1.013   .     S
H1449  O1625   1.014   .     S
H1450  O1627   1.013   .     S
H1451  O1629   1.013   .     S
H1452  O1631   1.014   .     S
H1453  O1487   1.014   .     S
H1454  O1489   1.014   .     S
H1455  O1491   1.014   .     S
H1456  O1493   1.013   .     S
H1457  O1495   1.013   .     S
H1458  O1498   1.014   .     S
H1459  O1587   1.014   .     S
H1460  O1500   1.013   .     S
H1461  O1502   1.012   .     S
H1462  O1504   1.012   .     S
H1463  O1506   1.014   .     S
H1464  O1509   1.014   .     S
H1466  O689    1.014   1_565 S
H1467  O1515   1.014   .     S
H1468  O1517   1.014   .     S
H1469  O1520   1.014   .     S
H1470  O1590   1.014   .     S
H1471  O1522   1.014   .     S
H1472  O1524   1.014   .     S
H1473  O1526   1.014   .     S
H1474  O1528   1.014   .     S
H1475  O1531   1.014   .     S
H1476  O1533   1.014   .     S
H1477  O1535   1.014   .     S
H1478  O1537   1.014   .     S
H1479  O1539   1.014   .     S
H1480  O1592   1.013   .     S
H1481  O1594   1.013   .     S
H1483  O1186   1.014   1_655 S
H1484  O1601   1.014   .     S
O1485  Zn1633  1.948   .     S
O1485  Zn1636  1.952   .     S
O1485  Zn1644  1.954   .     S
O1486  Zn1635  1.945   .     S
O1486  C550    1.281   1_565 S
O1497  Zn1638  1.945   .     S
O1497  C963    1.279   1_655 S
O1508  Zn1637  1.945   .     S
O1511  H641    1.014   1_565 S
O1511  C509    1.399   1_565 S
O1519  Zn1647  1.947   .     S
O1530  Zn1646  1.947   .     S
O1540  Zn1641  1.948   .     S
O1541  Zn1633  1.948   .     S
O1542  Zn1643  1.945   .     S
O1543  Zn1642  1.945   .     S
O1544  Zn1645  1.945   .     S
O1545  Zn1639  1.949   .     S
O1545  Zn1645  1.954   .     S
O1545  Zn1641  1.948   .     S
O1546  Zn1644  1.945   .     S
O1547  Zn1636  1.946   .     S
O1548  Zn1635  1.946   .     S
O1549  Zn1638  1.937   .     S
O1550  Zn1637  1.937   .     S
O1551  Zn1640  1.948   .     S
O1552  Zn1639  1.948   .     S
O1553  Zn1634  1.937   .     S
O1554  Zn1648  1.937   .     S
O1555  Zn1635  1.937   .     S
O1556  Zn1646  1.949   .     S
O1556  Zn1642  1.952   .     S
O1556  Zn1634  1.948   .     S
O1557  Zn1636  1.937   .     S
O1558  Zn1648  1.948   .     S
O1559  Zn1634  1.948   .     S
O1560  Zn1639  1.936   .     S
O1561  Zn1640  1.936   .     S
O1562  Zn1637  1.946   .     S
O1563  Zn1638  1.946   .     S
O1564  Zn1231  1.946   1_655 S
O1565  Zn1642  1.946   .     S
O1566  Zn821   1.937   1_565 S
O1567  Zn1637  1.954   .     S
O1567  Zn1647  1.949   .     S
O1567  Zn1643  1.952   .     S
O1568  Zn1644  1.937   .     S
O1569  Zn1647  1.948   .     S
O1570  Zn1234  1.948   1_655 S
O1571  Zn1641  1.937   .     S
O1572  Zn809   1.937   1_565 S
O1573  Zn1230  1.937   1_655 S
O1574  Zn1643  1.937   .     S
O1575  Zn1633  1.948   .     S
O1576  Zn817   1.948   1_565 S
O1577  Zn1646  1.936   .     S
O1578  Zn1640  1.947   .     S
O1579  Zn1235  1.936   1_655 S
O1580  Zn820   1.946   1_565 S
O1581  Zn1645  1.946   .     S
O1589  Zn1639  1.947   .     S
O1596  H1070   1.014   1_655 S
O1600  Zn1634  1.948   .     S
O1611  Zn1648  1.948   .     S
O1622  Zn1636  1.945   .     S
Zn1635 O721    1.952   1_565 S
Zn1638 O1144   1.954   1_655 S
Zn1640 O661    1.949   1_565 S
Zn1648 O1155   1.948   1_655 S
