data_str_m3_o1_o16_pcu_sym.75
_audit_creation_date              2020-01-03
_audit_creation_method            'Materials Studio'
_symmetry_space_group_name_H-M    'P1'
_symmetry_Int_Tables_number       1
_symmetry_cell_setting            triclinic
loop_
_symmetry_equiv_pos_as_xyz
  x,y,z
_cell_length_a                    29.9501
_cell_length_b                    31.8872
_cell_length_c                    26.1100
_cell_angle_alpha                 91.5738
_cell_angle_beta                  71.8140
_cell_angle_gamma                 90.9275
loop_
_atom_site_label
_atom_site_type_symbol
_atom_site_fract_x
_atom_site_fract_y
_atom_site_fract_z
_atom_site_U_iso_or_equiv
_atom_site_adp_type
_atom_site_occupancy
C1     C     0.16682   0.24638   0.25069   0.00000  Uiso   1.00
C2     C     0.12857   0.14256   0.40511   0.00000  Uiso   1.00
C3     C     0.19607   0.31119   0.21014   0.00000  Uiso   1.00
C4     C     0.14145   0.16024   0.35059   0.00000  Uiso   1.00
C5     C     0.19531   0.02068   0.20947   0.00000  Uiso   1.00
C6     C     0.16475   0.04252   0.25292   0.00000  Uiso   1.00
C7     C     0.13462   0.02219   0.29834   0.00000  Uiso   1.00
C8     C     0.13625   0.31168   0.29953   0.00000  Uiso   1.00
C9     C     0.16653   0.29049   0.25418   0.00000  Uiso   1.00
C10    C     0.31738   0.13781   0.21906   0.00000  Uiso   1.00
C11    C     0.03126   0.13642   0.22139   0.00000  Uiso   1.00
C12    C     0.15047   0.13193   0.48553   0.00000  Uiso   1.00
C13    C     0.01686   0.19572   0.27943   0.00000  Uiso   1.00
C14    C     0.30227   0.19534   0.28086   0.00000  Uiso   1.00
C15    C     0.16609   0.08685   0.25074   0.00000  Uiso   1.00
C16    C     0.19241   0.16668   0.14811   0.00000  Uiso   1.00
C17    C     0.26720   0.15648   0.00314   0.00000  Uiso   1.00
C18    C     0.20715   0.16198   0.08963   0.00000  Uiso   1.00
C19    C     0.08147   0.13282   0.43366   0.00000  Uiso   1.00
C20    C     0.07011   0.11735   0.48602   0.00000  Uiso   1.00
C21    C     0.10366   0.11982   0.01331   0.00000  Uiso   1.00
C22    C     0.10362   0.04774   0.34547   0.00000  Uiso   1.00
C23    C     0.16382   0.13368   0.42916   0.00000  Uiso   1.00
C24    C     0.10776   0.28824   0.34918   0.00000  Uiso   1.00
C25    C     0.30336   0.10695   0.18189   0.00000  Uiso   1.00
C26    C     0.06231   0.09956   0.19590   0.00000  Uiso   1.00
C27    C     0.27136   0.22764   0.31761   0.00000  Uiso   1.00
C28    C     0.02315   0.09736   0.01290   0.00000  Uiso   1.00
C29    C     0.18508   0.14139   0.01070   0.00000  Uiso   1.00
C30    C     0.23312   0.14383   0.47931   0.00000  Uiso   1.00
C31    C     0.24622   0.13294   0.42472   0.00000  Uiso   1.00
C32    C     0.21177   0.12624   0.40003   0.00000  Uiso   1.00
C33    C     0.17283   0.15218   0.06523   0.00000  Uiso   1.00
C34    C     0.25438   0.16488   0.05840   0.00000  Uiso   1.00
F35    F     0.22342   0.04090   0.16585   0.00000  Uiso   1.00
F36    F     0.03223   0.22463   0.30930   0.00000  Uiso   1.00
F37    F     0.04752   0.13548   0.40951   0.00000  Uiso   1.00
F38    F     0.09171   0.10519   0.06421   0.00000  Uiso   1.00
F39    F     0.22506   0.10825   0.34988   0.00000  Uiso   1.00
H40    H     0.28115   0.17372   0.07664   0.00000  Uiso   1.00
H41    H     0.11644   0.30063   0.38513   0.00000  Uiso   1.00
H42    H     0.06966   0.29211   0.35531   0.00000  Uiso   1.00
H43    H     0.30249   0.07463   0.19699   0.00000  Uiso   1.00
H44    H     0.26964   0.11278   0.17650   0.00000  Uiso   1.00
H45    H     0.32862   0.10898   0.14068   0.00000  Uiso   1.00
H46    H     0.09788   0.10985   0.17264   0.00000  Uiso   1.00
H47    H     0.06297   0.07780   0.22802   0.00000  Uiso   1.00
H48    H     0.05051   0.08024   0.16682   0.00000  Uiso   1.00
H49    H     0.23411   0.22426   0.32183   0.00000  Uiso   1.00
H50    H     0.27424   0.22520   0.35883   0.00000  Uiso   1.00
H51    H     0.28294   0.12990   0.40114   0.00000  Uiso   1.00
H52    H     0.28300   0.25950   0.30255   0.00000  Uiso   1.00
H53    H     0.00342   0.11696   0.04805   0.00000  Uiso   1.00
H54    H     0.00211   0.09292   0.48492   0.00000  Uiso   1.00
H55    H     0.02829   0.06581   0.02707   0.00000  Uiso   1.00
H56    H     0.30361   0.15997   0.47904   0.00000  Uiso   1.00
H57    H     0.13632   0.15434   0.08896   0.00000  Uiso   1.00
H58    H     0.21905   0.29398   0.17584   0.00000  Uiso   1.00
H59    H     0.08048   0.06856   0.33186   0.00000  Uiso   1.00
H60    H     0.08008   0.02897   0.37814   0.00000  Uiso   1.00
H61    H     0.12663   0.06662   0.36317   0.00000  Uiso   1.00
H62    H     0.11498   0.25420   0.34702   0.00000  Uiso   1.00
N63    N     0.04760   0.16668   0.25002   0.00000  Uiso   1.00
N64    N     0.28573   0.16665   0.25001   0.00000  Uiso   1.00
O65    O     0.12846   0.22775   0.25001   0.00000  Uiso   1.00
O66    O     0.20490   0.22774   0.25001   0.00000  Uiso   1.00
O67    O     0.10947   0.16666   0.32681   0.00000  Uiso   1.00
O68    O     0.18591   0.16665   0.32681   0.00000  Uiso   1.00
O69    O     0.12843   0.10559   0.25000   0.00000  Uiso   1.00
O70    O     0.20488   0.10558   0.25000   0.00000  Uiso   1.00
O71    O     0.14742   0.16668   0.17319   0.00000  Uiso   1.00
O72    O     0.22387   0.16667   0.17319   0.00000  Uiso   1.00
Zn73   Zn    0.11562   0.16667   0.25000   0.00000  Uiso   1.00
Zn74   Zn    0.21771   0.16666   0.25000   0.00000  Uiso   1.00
C75    C     0.50016   0.24638   0.25069   0.00000  Uiso   1.00
C76    C     0.46191   0.14256   0.40511   0.00000  Uiso   1.00
C77    C     0.52941   0.31119   0.21014   0.00000  Uiso   1.00
C78    C     0.47478   0.16024   0.35059   0.00000  Uiso   1.00
C79    C     0.52864   0.02068   0.20947   0.00000  Uiso   1.00
C80    C     0.49809   0.04252   0.25292   0.00000  Uiso   1.00
C81    C     0.46795   0.02219   0.29834   0.00000  Uiso   1.00
C82    C     0.46958   0.31168   0.29953   0.00000  Uiso   1.00
C83    C     0.49987   0.29049   0.25418   0.00000  Uiso   1.00
C84    C     0.65071   0.13781   0.21906   0.00000  Uiso   1.00
C85    C     0.36460   0.13642   0.22139   0.00000  Uiso   1.00
C86    C     0.48380   0.13193   0.48553   0.00000  Uiso   1.00
C87    C     0.35019   0.19572   0.27943   0.00000  Uiso   1.00
C88    C     0.63561   0.19534   0.28086   0.00000  Uiso   1.00
C89    C     0.49943   0.08685   0.25074   0.00000  Uiso   1.00
C90    C     0.52574   0.16668   0.14811   0.00000  Uiso   1.00
C91    C     0.60054   0.15648   0.00314   0.00000  Uiso   1.00
C92    C     0.54048   0.16198   0.08963   0.00000  Uiso   1.00
C93    C     0.41480   0.13282   0.43366   0.00000  Uiso   1.00
C94    C     0.40345   0.11735   0.48602   0.00000  Uiso   1.00
C95    C     0.43699   0.11982   0.01331   0.00000  Uiso   1.00
C96    C     0.43696   0.04774   0.34547   0.00000  Uiso   1.00
C97    C     0.49716   0.13368   0.42916   0.00000  Uiso   1.00
C98    C     0.44110   0.28824   0.34918   0.00000  Uiso   1.00
C99    C     0.63670   0.10695   0.18189   0.00000  Uiso   1.00
C100   C     0.39565   0.09956   0.19590   0.00000  Uiso   1.00
C101   C     0.60470   0.22764   0.31761   0.00000  Uiso   1.00
C102   C     0.35648   0.09736   0.01290   0.00000  Uiso   1.00
C103   C     0.51842   0.14139   0.01070   0.00000  Uiso   1.00
C104   C     0.56645   0.14383   0.47931   0.00000  Uiso   1.00
C105   C     0.57955   0.13294   0.42472   0.00000  Uiso   1.00
C106   C     0.54510   0.12624   0.40003   0.00000  Uiso   1.00
C107   C     0.50616   0.15218   0.06523   0.00000  Uiso   1.00
C108   C     0.58771   0.16488   0.05840   0.00000  Uiso   1.00
F109   F     0.55676   0.04090   0.16585   0.00000  Uiso   1.00
F110   F     0.36556   0.22463   0.30930   0.00000  Uiso   1.00
F111   F     0.38085   0.13548   0.40951   0.00000  Uiso   1.00
F112   F     0.42505   0.10519   0.06421   0.00000  Uiso   1.00
F113   F     0.55839   0.10825   0.34988   0.00000  Uiso   1.00
H114   H     0.61448   0.17372   0.07664   0.00000  Uiso   1.00
H115   H     0.44977   0.30063   0.38513   0.00000  Uiso   1.00
H116   H     0.40300   0.29211   0.35531   0.00000  Uiso   1.00
H117   H     0.63582   0.07463   0.19699   0.00000  Uiso   1.00
H118   H     0.60298   0.11278   0.17650   0.00000  Uiso   1.00
H119   H     0.66195   0.10898   0.14068   0.00000  Uiso   1.00
H120   H     0.43121   0.10985   0.17264   0.00000  Uiso   1.00
H121   H     0.39630   0.07780   0.22802   0.00000  Uiso   1.00
H122   H     0.38384   0.08024   0.16682   0.00000  Uiso   1.00
H123   H     0.56745   0.22426   0.32183   0.00000  Uiso   1.00
H124   H     0.60757   0.22520   0.35883   0.00000  Uiso   1.00
H125   H     0.61627   0.12990   0.40114   0.00000  Uiso   1.00
H126   H     0.61633   0.25950   0.30255   0.00000  Uiso   1.00
H127   H     0.33675   0.11696   0.04805   0.00000  Uiso   1.00
H128   H     0.33545   0.09292   0.48492   0.00000  Uiso   1.00
H129   H     0.36162   0.06581   0.02707   0.00000  Uiso   1.00
H130   H     0.63694   0.15997   0.47904   0.00000  Uiso   1.00
H131   H     0.46966   0.15434   0.08896   0.00000  Uiso   1.00
H132   H     0.55238   0.29398   0.17584   0.00000  Uiso   1.00
H133   H     0.41381   0.06856   0.33186   0.00000  Uiso   1.00
H134   H     0.41341   0.02897   0.37814   0.00000  Uiso   1.00
H135   H     0.45997   0.06662   0.36317   0.00000  Uiso   1.00
H136   H     0.44832   0.25420   0.34702   0.00000  Uiso   1.00
N137   N     0.38093   0.16668   0.25002   0.00000  Uiso   1.00
N138   N     0.61906   0.16665   0.25001   0.00000  Uiso   1.00
O139   O     0.46179   0.22775   0.25001   0.00000  Uiso   1.00
O140   O     0.53823   0.22774   0.25001   0.00000  Uiso   1.00
O141   O     0.44280   0.16666   0.32681   0.00000  Uiso   1.00
O142   O     0.51924   0.16665   0.32681   0.00000  Uiso   1.00
O143   O     0.46177   0.10559   0.25000   0.00000  Uiso   1.00
O144   O     0.53821   0.10558   0.25000   0.00000  Uiso   1.00
O145   O     0.48076   0.16668   0.17319   0.00000  Uiso   1.00
O146   O     0.55720   0.16667   0.17319   0.00000  Uiso   1.00
Zn147  Zn    0.44896   0.16667   0.25000   0.00000  Uiso   1.00
Zn148  Zn    0.55104   0.16666   0.25000   0.00000  Uiso   1.00
C149   C     0.83349   0.24638   0.25069   0.00000  Uiso   1.00
C150   C     0.79524   0.14256   0.40511   0.00000  Uiso   1.00
C151   C     0.86274   0.31119   0.21014   0.00000  Uiso   1.00
C152   C     0.80812   0.16024   0.35059   0.00000  Uiso   1.00
C153   C     0.86198   0.02068   0.20947   0.00000  Uiso   1.00
C154   C     0.83142   0.04252   0.25292   0.00000  Uiso   1.00
C155   C     0.80128   0.02219   0.29834   0.00000  Uiso   1.00
C156   C     0.80292   0.31168   0.29953   0.00000  Uiso   1.00
C157   C     0.83320   0.29049   0.25418   0.00000  Uiso   1.00
C158   C     0.98404   0.13781   0.21906   0.00000  Uiso   1.00
C159   C     0.69793   0.13642   0.22139   0.00000  Uiso   1.00
C160   C     0.81713   0.13193   0.48553   0.00000  Uiso   1.00
C161   C     0.68353   0.19572   0.27943   0.00000  Uiso   1.00
C162   C     0.96894   0.19534   0.28086   0.00000  Uiso   1.00
C163   C     0.83276   0.08685   0.25074   0.00000  Uiso   1.00
C164   C     0.85908   0.16668   0.14811   0.00000  Uiso   1.00
C165   C     0.93387   0.15648   0.00314   0.00000  Uiso   1.00
C166   C     0.87381   0.16198   0.08963   0.00000  Uiso   1.00
C167   C     0.74814   0.13282   0.43366   0.00000  Uiso   1.00
C168   C     0.73678   0.11735   0.48602   0.00000  Uiso   1.00
C169   C     0.77032   0.11982   0.01331   0.00000  Uiso   1.00
C170   C     0.77029   0.04774   0.34547   0.00000  Uiso   1.00
C171   C     0.83049   0.13368   0.42916   0.00000  Uiso   1.00
C172   C     0.77443   0.28824   0.34918   0.00000  Uiso   1.00
C173   C     0.97003   0.10695   0.18189   0.00000  Uiso   1.00
C174   C     0.72898   0.09956   0.19590   0.00000  Uiso   1.00
C175   C     0.93803   0.22764   0.31761   0.00000  Uiso   1.00
C176   C     0.68982   0.09736   0.01290   0.00000  Uiso   1.00
C177   C     0.85175   0.14139   0.01070   0.00000  Uiso   1.00
C178   C     0.89979   0.14383   0.47931   0.00000  Uiso   1.00
C179   C     0.91289   0.13294   0.42472   0.00000  Uiso   1.00
C180   C     0.87843   0.12624   0.40003   0.00000  Uiso   1.00
C181   C     0.83949   0.15218   0.06523   0.00000  Uiso   1.00
C182   C     0.92105   0.16488   0.05840   0.00000  Uiso   1.00
F183   F     0.89009   0.04090   0.16585   0.00000  Uiso   1.00
F184   F     0.69890   0.22463   0.30930   0.00000  Uiso   1.00
F185   F     0.71418   0.13548   0.40951   0.00000  Uiso   1.00
F186   F     0.75838   0.10519   0.06421   0.00000  Uiso   1.00
F187   F     0.89172   0.10825   0.34988   0.00000  Uiso   1.00
H188   H     0.94782   0.17372   0.07664   0.00000  Uiso   1.00
H189   H     0.78310   0.30063   0.38513   0.00000  Uiso   1.00
H190   H     0.73633   0.29211   0.35531   0.00000  Uiso   1.00
H191   H     0.96915   0.07463   0.19699   0.00000  Uiso   1.00
H192   H     0.93631   0.11278   0.17650   0.00000  Uiso   1.00
H193   H     0.99529   0.10898   0.14068   0.00000  Uiso   1.00
H194   H     0.76454   0.10985   0.17264   0.00000  Uiso   1.00
H195   H     0.72963   0.07780   0.22802   0.00000  Uiso   1.00
H196   H     0.71717   0.08024   0.16682   0.00000  Uiso   1.00
H197   H     0.90078   0.22426   0.32183   0.00000  Uiso   1.00
H198   H     0.94090   0.22520   0.35883   0.00000  Uiso   1.00
H199   H     0.94960   0.12990   0.40114   0.00000  Uiso   1.00
H200   H     0.94967   0.25950   0.30255   0.00000  Uiso   1.00
H201   H     0.67009   0.11696   0.04805   0.00000  Uiso   1.00
H202   H     0.66878   0.09292   0.48492   0.00000  Uiso   1.00
H203   H     0.69496   0.06581   0.02707   0.00000  Uiso   1.00
H204   H     0.97027   0.15997   0.47904   0.00000  Uiso   1.00
H205   H     0.80299   0.15434   0.08896   0.00000  Uiso   1.00
H206   H     0.88571   0.29398   0.17584   0.00000  Uiso   1.00
H207   H     0.74714   0.06856   0.33186   0.00000  Uiso   1.00
H208   H     0.74674   0.02897   0.37814   0.00000  Uiso   1.00
H209   H     0.79330   0.06662   0.36317   0.00000  Uiso   1.00
H210   H     0.78165   0.25420   0.34702   0.00000  Uiso   1.00
N211   N     0.71426   0.16668   0.25002   0.00000  Uiso   1.00
N212   N     0.95239   0.16665   0.25001   0.00000  Uiso   1.00
O213   O     0.79512   0.22775   0.25001   0.00000  Uiso   1.00
O214   O     0.87157   0.22774   0.25001   0.00000  Uiso   1.00
O215   O     0.77613   0.16666   0.32681   0.00000  Uiso   1.00
O216   O     0.85258   0.16665   0.32681   0.00000  Uiso   1.00
O217   O     0.79510   0.10559   0.25000   0.00000  Uiso   1.00
O218   O     0.87154   0.10558   0.25000   0.00000  Uiso   1.00
O219   O     0.81409   0.16668   0.17319   0.00000  Uiso   1.00
O220   O     0.89053   0.16667   0.17319   0.00000  Uiso   1.00
Zn221  Zn    0.78229   0.16667   0.25000   0.00000  Uiso   1.00
Zn222  Zn    0.88438   0.16666   0.25000   0.00000  Uiso   1.00
C223   C     0.16682   0.57971   0.25069   0.00000  Uiso   1.00
C224   C     0.12857   0.47589   0.40511   0.00000  Uiso   1.00
C225   C     0.19607   0.64452   0.21014   0.00000  Uiso   1.00
C226   C     0.14145   0.49358   0.35059   0.00000  Uiso   1.00
C227   C     0.19531   0.35401   0.20947   0.00000  Uiso   1.00
C228   C     0.16475   0.37585   0.25292   0.00000  Uiso   1.00
C229   C     0.13462   0.35553   0.29834   0.00000  Uiso   1.00
C230   C     0.13625   0.64501   0.29953   0.00000  Uiso   1.00
C231   C     0.16653   0.62382   0.25418   0.00000  Uiso   1.00
C232   C     0.31738   0.47114   0.21906   0.00000  Uiso   1.00
C233   C     0.03126   0.46976   0.22139   0.00000  Uiso   1.00
C234   C     0.15047   0.46526   0.48553   0.00000  Uiso   1.00
C235   C     0.01686   0.52905   0.27943   0.00000  Uiso   1.00
C236   C     0.30227   0.52868   0.28086   0.00000  Uiso   1.00
C237   C     0.16609   0.42018   0.25074   0.00000  Uiso   1.00
C238   C     0.19241   0.50001   0.14811   0.00000  Uiso   1.00
C239   C     0.26720   0.48981   0.00314   0.00000  Uiso   1.00
C240   C     0.20715   0.49531   0.08963   0.00000  Uiso   1.00
C241   C     0.08147   0.46615   0.43366   0.00000  Uiso   1.00
C242   C     0.07011   0.45068   0.48602   0.00000  Uiso   1.00
C243   C     0.10366   0.45315   0.01331   0.00000  Uiso   1.00
C244   C     0.10362   0.38108   0.34547   0.00000  Uiso   1.00
C245   C     0.16382   0.46701   0.42916   0.00000  Uiso   1.00
C246   C     0.10776   0.62158   0.34918   0.00000  Uiso   1.00
C247   C     0.30336   0.44029   0.18189   0.00000  Uiso   1.00
C248   C     0.06231   0.43289   0.19590   0.00000  Uiso   1.00
C249   C     0.27136   0.56097   0.31761   0.00000  Uiso   1.00
C250   C     0.02315   0.43069   0.01290   0.00000  Uiso   1.00
C251   C     0.18508   0.47472   0.01070   0.00000  Uiso   1.00
C252   C     0.23312   0.47717   0.47931   0.00000  Uiso   1.00
C253   C     0.24622   0.46628   0.42472   0.00000  Uiso   1.00
C254   C     0.21177   0.45958   0.40003   0.00000  Uiso   1.00
C255   C     0.17283   0.48551   0.06523   0.00000  Uiso   1.00
C256   C     0.25438   0.49822   0.05840   0.00000  Uiso   1.00
F257   F     0.22342   0.37424   0.16585   0.00000  Uiso   1.00
F258   F     0.03223   0.55796   0.30930   0.00000  Uiso   1.00
F259   F     0.04752   0.46881   0.40951   0.00000  Uiso   1.00
F260   F     0.09171   0.43852   0.06421   0.00000  Uiso   1.00
F261   F     0.22506   0.44158   0.34988   0.00000  Uiso   1.00
H262   H     0.28115   0.50705   0.07664   0.00000  Uiso   1.00
H263   H     0.11644   0.63396   0.38513   0.00000  Uiso   1.00
H264   H     0.06966   0.62544   0.35531   0.00000  Uiso   1.00
H265   H     0.30249   0.40796   0.19699   0.00000  Uiso   1.00
H266   H     0.26964   0.44611   0.17650   0.00000  Uiso   1.00
H267   H     0.32862   0.44231   0.14068   0.00000  Uiso   1.00
H268   H     0.09788   0.44319   0.17264   0.00000  Uiso   1.00
H269   H     0.06297   0.41114   0.22802   0.00000  Uiso   1.00
H270   H     0.05051   0.41357   0.16682   0.00000  Uiso   1.00
H271   H     0.23411   0.55759   0.32183   0.00000  Uiso   1.00
H272   H     0.27424   0.55853   0.35883   0.00000  Uiso   1.00
H273   H     0.28294   0.46323   0.40114   0.00000  Uiso   1.00
H274   H     0.28300   0.59283   0.30255   0.00000  Uiso   1.00
H275   H     0.00342   0.45030   0.04805   0.00000  Uiso   1.00
H276   H     0.00211   0.42625   0.48492   0.00000  Uiso   1.00
H277   H     0.02829   0.39915   0.02707   0.00000  Uiso   1.00
H278   H     0.30361   0.49331   0.47904   0.00000  Uiso   1.00
H279   H     0.13632   0.48768   0.08896   0.00000  Uiso   1.00
H280   H     0.21905   0.62732   0.17584   0.00000  Uiso   1.00
H281   H     0.08048   0.40189   0.33186   0.00000  Uiso   1.00
H282   H     0.08008   0.36230   0.37814   0.00000  Uiso   1.00
H283   H     0.12663   0.39995   0.36317   0.00000  Uiso   1.00
H284   H     0.11498   0.58753   0.34702   0.00000  Uiso   1.00
N285   N     0.04760   0.50001   0.25002   0.00000  Uiso   1.00
N286   N     0.28573   0.49998   0.25001   0.00000  Uiso   1.00
O287   O     0.12846   0.56108   0.25001   0.00000  Uiso   1.00
O288   O     0.20490   0.56107   0.25001   0.00000  Uiso   1.00
O289   O     0.10947   0.50000   0.32681   0.00000  Uiso   1.00
O290   O     0.18591   0.49999   0.32681   0.00000  Uiso   1.00
O291   O     0.12843   0.43893   0.25000   0.00000  Uiso   1.00
O292   O     0.20488   0.43892   0.25000   0.00000  Uiso   1.00
O293   O     0.14742   0.50001   0.17319   0.00000  Uiso   1.00
O294   O     0.22387   0.50000   0.17319   0.00000  Uiso   1.00
Zn295  Zn    0.11562   0.50001   0.25000   0.00000  Uiso   1.00
Zn296  Zn    0.21771   0.49999   0.25000   0.00000  Uiso   1.00
C297   C     0.50016   0.57971   0.25069   0.00000  Uiso   1.00
C298   C     0.46191   0.47589   0.40511   0.00000  Uiso   1.00
C299   C     0.52941   0.64452   0.21014   0.00000  Uiso   1.00
C300   C     0.47478   0.49358   0.35059   0.00000  Uiso   1.00
C301   C     0.52864   0.35401   0.20947   0.00000  Uiso   1.00
C302   C     0.49809   0.37585   0.25292   0.00000  Uiso   1.00
C303   C     0.46795   0.35553   0.29834   0.00000  Uiso   1.00
C304   C     0.46958   0.64501   0.29953   0.00000  Uiso   1.00
C305   C     0.49987   0.62382   0.25418   0.00000  Uiso   1.00
C306   C     0.65071   0.47114   0.21906   0.00000  Uiso   1.00
C307   C     0.36460   0.46976   0.22139   0.00000  Uiso   1.00
C308   C     0.48380   0.46526   0.48553   0.00000  Uiso   1.00
C309   C     0.35019   0.52905   0.27943   0.00000  Uiso   1.00
C310   C     0.63561   0.52868   0.28086   0.00000  Uiso   1.00
C311   C     0.49943   0.42018   0.25074   0.00000  Uiso   1.00
C312   C     0.52574   0.50001   0.14811   0.00000  Uiso   1.00
C313   C     0.60054   0.48981   0.00314   0.00000  Uiso   1.00
C314   C     0.54048   0.49531   0.08963   0.00000  Uiso   1.00
C315   C     0.41480   0.46615   0.43366   0.00000  Uiso   1.00
C316   C     0.40345   0.45068   0.48602   0.00000  Uiso   1.00
C317   C     0.43699   0.45315   0.01331   0.00000  Uiso   1.00
C318   C     0.43696   0.38108   0.34547   0.00000  Uiso   1.00
C319   C     0.49716   0.46701   0.42916   0.00000  Uiso   1.00
C320   C     0.44110   0.62158   0.34918   0.00000  Uiso   1.00
C321   C     0.63670   0.44029   0.18189   0.00000  Uiso   1.00
C322   C     0.39565   0.43289   0.19590   0.00000  Uiso   1.00
C323   C     0.60470   0.56097   0.31761   0.00000  Uiso   1.00
C324   C     0.35648   0.43069   0.01290   0.00000  Uiso   1.00
C325   C     0.51842   0.47472   0.01070   0.00000  Uiso   1.00
C326   C     0.56645   0.47717   0.47931   0.00000  Uiso   1.00
C327   C     0.57955   0.46628   0.42472   0.00000  Uiso   1.00
C328   C     0.54510   0.45958   0.40003   0.00000  Uiso   1.00
C329   C     0.50616   0.48551   0.06523   0.00000  Uiso   1.00
C330   C     0.58771   0.49822   0.05840   0.00000  Uiso   1.00
F331   F     0.55676   0.37424   0.16585   0.00000  Uiso   1.00
F332   F     0.36556   0.55796   0.30930   0.00000  Uiso   1.00
F333   F     0.38085   0.46881   0.40951   0.00000  Uiso   1.00
F334   F     0.42505   0.43852   0.06421   0.00000  Uiso   1.00
F335   F     0.55839   0.44158   0.34988   0.00000  Uiso   1.00
H336   H     0.61448   0.50705   0.07664   0.00000  Uiso   1.00
H337   H     0.44977   0.63396   0.38513   0.00000  Uiso   1.00
H338   H     0.40300   0.62544   0.35531   0.00000  Uiso   1.00
H339   H     0.63582   0.40796   0.19699   0.00000  Uiso   1.00
H340   H     0.60298   0.44611   0.17650   0.00000  Uiso   1.00
H341   H     0.66195   0.44231   0.14068   0.00000  Uiso   1.00
H342   H     0.43121   0.44319   0.17264   0.00000  Uiso   1.00
H343   H     0.39630   0.41114   0.22802   0.00000  Uiso   1.00
H344   H     0.38384   0.41357   0.16682   0.00000  Uiso   1.00
H345   H     0.56745   0.55759   0.32183   0.00000  Uiso   1.00
H346   H     0.60757   0.55853   0.35883   0.00000  Uiso   1.00
H347   H     0.61627   0.46323   0.40114   0.00000  Uiso   1.00
H348   H     0.61633   0.59283   0.30255   0.00000  Uiso   1.00
H349   H     0.33675   0.45030   0.04805   0.00000  Uiso   1.00
H350   H     0.33545   0.42625   0.48492   0.00000  Uiso   1.00
H351   H     0.36162   0.39915   0.02707   0.00000  Uiso   1.00
H352   H     0.63694   0.49331   0.47904   0.00000  Uiso   1.00
H353   H     0.46966   0.48768   0.08896   0.00000  Uiso   1.00
H354   H     0.55238   0.62732   0.17584   0.00000  Uiso   1.00
H355   H     0.41381   0.40189   0.33186   0.00000  Uiso   1.00
H356   H     0.41341   0.36230   0.37814   0.00000  Uiso   1.00
H357   H     0.45997   0.39995   0.36317   0.00000  Uiso   1.00
H358   H     0.44832   0.58753   0.34702   0.00000  Uiso   1.00
N359   N     0.38093   0.50001   0.25002   0.00000  Uiso   1.00
N360   N     0.61906   0.49998   0.25001   0.00000  Uiso   1.00
O361   O     0.46179   0.56108   0.25001   0.00000  Uiso   1.00
O362   O     0.53823   0.56107   0.25001   0.00000  Uiso   1.00
O363   O     0.44280   0.50000   0.32681   0.00000  Uiso   1.00
O364   O     0.51924   0.49999   0.32681   0.00000  Uiso   1.00
O365   O     0.46177   0.43893   0.25000   0.00000  Uiso   1.00
O366   O     0.53821   0.43892   0.25000   0.00000  Uiso   1.00
O367   O     0.48076   0.50001   0.17319   0.00000  Uiso   1.00
O368   O     0.55720   0.50000   0.17319   0.00000  Uiso   1.00
Zn369  Zn    0.44896   0.50001   0.25000   0.00000  Uiso   1.00
Zn370  Zn    0.55104   0.49999   0.25000   0.00000  Uiso   1.00
C371   C     0.83349   0.57971   0.25069   0.00000  Uiso   1.00
C372   C     0.79524   0.47589   0.40511   0.00000  Uiso   1.00
C373   C     0.86274   0.64452   0.21014   0.00000  Uiso   1.00
C374   C     0.80812   0.49358   0.35059   0.00000  Uiso   1.00
C375   C     0.86198   0.35401   0.20947   0.00000  Uiso   1.00
C376   C     0.83142   0.37585   0.25292   0.00000  Uiso   1.00
C377   C     0.80128   0.35553   0.29834   0.00000  Uiso   1.00
C378   C     0.80292   0.64501   0.29953   0.00000  Uiso   1.00
C379   C     0.83320   0.62382   0.25418   0.00000  Uiso   1.00
C380   C     0.98404   0.47114   0.21906   0.00000  Uiso   1.00
C381   C     0.69793   0.46976   0.22139   0.00000  Uiso   1.00
C382   C     0.81713   0.46526   0.48553   0.00000  Uiso   1.00
C383   C     0.68353   0.52905   0.27943   0.00000  Uiso   1.00
C384   C     0.96894   0.52868   0.28086   0.00000  Uiso   1.00
C385   C     0.83276   0.42018   0.25074   0.00000  Uiso   1.00
C386   C     0.85908   0.50001   0.14811   0.00000  Uiso   1.00
C387   C     0.93387   0.48981   0.00314   0.00000  Uiso   1.00
C388   C     0.87381   0.49531   0.08963   0.00000  Uiso   1.00
C389   C     0.74814   0.46615   0.43366   0.00000  Uiso   1.00
C390   C     0.73678   0.45068   0.48602   0.00000  Uiso   1.00
C391   C     0.77032   0.45315   0.01331   0.00000  Uiso   1.00
C392   C     0.77029   0.38108   0.34547   0.00000  Uiso   1.00
C393   C     0.83049   0.46701   0.42916   0.00000  Uiso   1.00
C394   C     0.77443   0.62158   0.34918   0.00000  Uiso   1.00
C395   C     0.97003   0.44029   0.18189   0.00000  Uiso   1.00
C396   C     0.72898   0.43289   0.19590   0.00000  Uiso   1.00
C397   C     0.93803   0.56097   0.31761   0.00000  Uiso   1.00
C398   C     0.68982   0.43069   0.01290   0.00000  Uiso   1.00
C399   C     0.85175   0.47472   0.01070   0.00000  Uiso   1.00
C400   C     0.89979   0.47717   0.47931   0.00000  Uiso   1.00
C401   C     0.91289   0.46628   0.42472   0.00000  Uiso   1.00
C402   C     0.87843   0.45958   0.40003   0.00000  Uiso   1.00
C403   C     0.83949   0.48551   0.06523   0.00000  Uiso   1.00
C404   C     0.92105   0.49822   0.05840   0.00000  Uiso   1.00
F405   F     0.89009   0.37424   0.16585   0.00000  Uiso   1.00
F406   F     0.69890   0.55796   0.30930   0.00000  Uiso   1.00
F407   F     0.71418   0.46881   0.40951   0.00000  Uiso   1.00
F408   F     0.75838   0.43852   0.06421   0.00000  Uiso   1.00
F409   F     0.89172   0.44158   0.34988   0.00000  Uiso   1.00
H410   H     0.94782   0.50705   0.07664   0.00000  Uiso   1.00
H411   H     0.78310   0.63396   0.38513   0.00000  Uiso   1.00
H412   H     0.73633   0.62544   0.35531   0.00000  Uiso   1.00
H413   H     0.96915   0.40796   0.19699   0.00000  Uiso   1.00
H414   H     0.93631   0.44611   0.17650   0.00000  Uiso   1.00
H415   H     0.99529   0.44231   0.14068   0.00000  Uiso   1.00
H416   H     0.76454   0.44319   0.17264   0.00000  Uiso   1.00
H417   H     0.72963   0.41114   0.22802   0.00000  Uiso   1.00
H418   H     0.71717   0.41357   0.16682   0.00000  Uiso   1.00
H419   H     0.90078   0.55759   0.32183   0.00000  Uiso   1.00
H420   H     0.94090   0.55853   0.35883   0.00000  Uiso   1.00
H421   H     0.94960   0.46323   0.40114   0.00000  Uiso   1.00
H422   H     0.94967   0.59283   0.30255   0.00000  Uiso   1.00
H423   H     0.67009   0.45030   0.04805   0.00000  Uiso   1.00
H424   H     0.66878   0.42625   0.48492   0.00000  Uiso   1.00
H425   H     0.69496   0.39915   0.02707   0.00000  Uiso   1.00
H426   H     0.97027   0.49331   0.47904   0.00000  Uiso   1.00
H427   H     0.80299   0.48768   0.08896   0.00000  Uiso   1.00
H428   H     0.88571   0.62732   0.17584   0.00000  Uiso   1.00
H429   H     0.74714   0.40189   0.33186   0.00000  Uiso   1.00
H430   H     0.74674   0.36230   0.37814   0.00000  Uiso   1.00
H431   H     0.79330   0.39995   0.36317   0.00000  Uiso   1.00
H432   H     0.78165   0.58753   0.34702   0.00000  Uiso   1.00
N433   N     0.71426   0.50001   0.25002   0.00000  Uiso   1.00
N434   N     0.95239   0.49998   0.25001   0.00000  Uiso   1.00
O435   O     0.79512   0.56108   0.25001   0.00000  Uiso   1.00
O436   O     0.87157   0.56107   0.25001   0.00000  Uiso   1.00
O437   O     0.77613   0.50000   0.32681   0.00000  Uiso   1.00
O438   O     0.85258   0.49999   0.32681   0.00000  Uiso   1.00
O439   O     0.79510   0.43893   0.25000   0.00000  Uiso   1.00
O440   O     0.87154   0.43892   0.25000   0.00000  Uiso   1.00
O441   O     0.81409   0.50001   0.17319   0.00000  Uiso   1.00
O442   O     0.89053   0.50000   0.17319   0.00000  Uiso   1.00
Zn443  Zn    0.78229   0.50001   0.25000   0.00000  Uiso   1.00
Zn444  Zn    0.88438   0.49999   0.25000   0.00000  Uiso   1.00
C445   C     0.16682   0.91305   0.25069   0.00000  Uiso   1.00
C446   C     0.12857   0.80922   0.40511   0.00000  Uiso   1.00
C447   C     0.19607   0.97786   0.21014   0.00000  Uiso   1.00
C448   C     0.14145   0.82691   0.35059   0.00000  Uiso   1.00
C449   C     0.19531   0.68734   0.20947   0.00000  Uiso   1.00
C450   C     0.16475   0.70918   0.25292   0.00000  Uiso   1.00
C451   C     0.13462   0.68886   0.29834   0.00000  Uiso   1.00
C452   C     0.13625   0.97835   0.29953   0.00000  Uiso   1.00
C453   C     0.16653   0.95715   0.25418   0.00000  Uiso   1.00
C454   C     0.31738   0.80447   0.21906   0.00000  Uiso   1.00
C455   C     0.03126   0.80309   0.22139   0.00000  Uiso   1.00
C456   C     0.15047   0.79859   0.48553   0.00000  Uiso   1.00
C457   C     0.01686   0.86239   0.27943   0.00000  Uiso   1.00
C458   C     0.30227   0.86201   0.28086   0.00000  Uiso   1.00
C459   C     0.16609   0.75351   0.25074   0.00000  Uiso   1.00
C460   C     0.19241   0.83334   0.14811   0.00000  Uiso   1.00
C461   C     0.26720   0.82315   0.00314   0.00000  Uiso   1.00
C462   C     0.20715   0.82864   0.08963   0.00000  Uiso   1.00
C463   C     0.08147   0.79948   0.43366   0.00000  Uiso   1.00
C464   C     0.07011   0.78402   0.48602   0.00000  Uiso   1.00
C465   C     0.10366   0.78648   0.01331   0.00000  Uiso   1.00
C466   C     0.10362   0.71441   0.34547   0.00000  Uiso   1.00
C467   C     0.16382   0.80034   0.42916   0.00000  Uiso   1.00
C468   C     0.10776   0.95491   0.34918   0.00000  Uiso   1.00
C469   C     0.30336   0.77362   0.18189   0.00000  Uiso   1.00
C470   C     0.06231   0.76623   0.19590   0.00000  Uiso   1.00
C471   C     0.27136   0.89431   0.31761   0.00000  Uiso   1.00
C472   C     0.02315   0.76402   0.01290   0.00000  Uiso   1.00
C473   C     0.18508   0.80806   0.01070   0.00000  Uiso   1.00
C474   C     0.23312   0.81050   0.47931   0.00000  Uiso   1.00
C475   C     0.24622   0.79961   0.42472   0.00000  Uiso   1.00
C476   C     0.21177   0.79291   0.40003   0.00000  Uiso   1.00
C477   C     0.17283   0.81885   0.06523   0.00000  Uiso   1.00
C478   C     0.25438   0.83155   0.05840   0.00000  Uiso   1.00
F479   F     0.22342   0.70757   0.16585   0.00000  Uiso   1.00
F480   F     0.03223   0.89129   0.30930   0.00000  Uiso   1.00
F481   F     0.04752   0.80214   0.40951   0.00000  Uiso   1.00
F482   F     0.09171   0.77186   0.06421   0.00000  Uiso   1.00
F483   F     0.22506   0.77491   0.34988   0.00000  Uiso   1.00
H484   H     0.28115   0.84039   0.07664   0.00000  Uiso   1.00
H485   H     0.11644   0.96730   0.38513   0.00000  Uiso   1.00
H486   H     0.06966   0.95878   0.35531   0.00000  Uiso   1.00
H487   H     0.30249   0.74130   0.19699   0.00000  Uiso   1.00
H488   H     0.26964   0.77945   0.17650   0.00000  Uiso   1.00
H489   H     0.32862   0.77564   0.14068   0.00000  Uiso   1.00
H490   H     0.09788   0.77652   0.17264   0.00000  Uiso   1.00
H491   H     0.06297   0.74447   0.22802   0.00000  Uiso   1.00
H492   H     0.05051   0.74690   0.16682   0.00000  Uiso   1.00
H493   H     0.23411   0.89093   0.32183   0.00000  Uiso   1.00
H494   H     0.27424   0.89186   0.35883   0.00000  Uiso   1.00
H495   H     0.28294   0.79656   0.40114   0.00000  Uiso   1.00
H496   H     0.28300   0.92617   0.30255   0.00000  Uiso   1.00
H497   H     0.00342   0.78363   0.04805   0.00000  Uiso   1.00
H498   H     0.00211   0.75958   0.48492   0.00000  Uiso   1.00
H499   H     0.02829   0.73248   0.02707   0.00000  Uiso   1.00
H500   H     0.30361   0.82664   0.47904   0.00000  Uiso   1.00
H501   H     0.13632   0.82101   0.08896   0.00000  Uiso   1.00
H502   H     0.21905   0.96065   0.17584   0.00000  Uiso   1.00
H503   H     0.08048   0.73523   0.33186   0.00000  Uiso   1.00
H504   H     0.08008   0.69563   0.37814   0.00000  Uiso   1.00
H505   H     0.12663   0.73329   0.36317   0.00000  Uiso   1.00
H506   H     0.11498   0.92087   0.34702   0.00000  Uiso   1.00
N507   N     0.04760   0.83334   0.25002   0.00000  Uiso   1.00
N508   N     0.28573   0.83331   0.25001   0.00000  Uiso   1.00
O509   O     0.12846   0.89442   0.25001   0.00000  Uiso   1.00
O510   O     0.20490   0.89441   0.25001   0.00000  Uiso   1.00
O511   O     0.10947   0.83333   0.32681   0.00000  Uiso   1.00
O512   O     0.18591   0.83332   0.32681   0.00000  Uiso   1.00
O513   O     0.12843   0.77226   0.25000   0.00000  Uiso   1.00
O514   O     0.20488   0.77225   0.25000   0.00000  Uiso   1.00
O515   O     0.14742   0.83335   0.17319   0.00000  Uiso   1.00
O516   O     0.22387   0.83334   0.17319   0.00000  Uiso   1.00
Zn517  Zn    0.11562   0.83334   0.25000   0.00000  Uiso   1.00
Zn518  Zn    0.21771   0.83333   0.25000   0.00000  Uiso   1.00
C519   C     0.50016   0.91305   0.25069   0.00000  Uiso   1.00
C520   C     0.46191   0.80922   0.40511   0.00000  Uiso   1.00
C521   C     0.52941   0.97786   0.21014   0.00000  Uiso   1.00
C522   C     0.47478   0.82691   0.35059   0.00000  Uiso   1.00
C523   C     0.52864   0.68734   0.20947   0.00000  Uiso   1.00
C524   C     0.49809   0.70918   0.25292   0.00000  Uiso   1.00
C525   C     0.46795   0.68886   0.29834   0.00000  Uiso   1.00
C526   C     0.46958   0.97835   0.29953   0.00000  Uiso   1.00
C527   C     0.49987   0.95715   0.25418   0.00000  Uiso   1.00
C528   C     0.65071   0.80447   0.21906   0.00000  Uiso   1.00
C529   C     0.36460   0.80309   0.22139   0.00000  Uiso   1.00
C530   C     0.48380   0.79859   0.48553   0.00000  Uiso   1.00
C531   C     0.35019   0.86239   0.27943   0.00000  Uiso   1.00
C532   C     0.63561   0.86201   0.28086   0.00000  Uiso   1.00
C533   C     0.49943   0.75351   0.25074   0.00000  Uiso   1.00
C534   C     0.52574   0.83334   0.14811   0.00000  Uiso   1.00
C535   C     0.60054   0.82315   0.00314   0.00000  Uiso   1.00
C536   C     0.54048   0.82864   0.08963   0.00000  Uiso   1.00
C537   C     0.41480   0.79948   0.43366   0.00000  Uiso   1.00
C538   C     0.40345   0.78402   0.48602   0.00000  Uiso   1.00
C539   C     0.43699   0.78648   0.01331   0.00000  Uiso   1.00
C540   C     0.43696   0.71441   0.34547   0.00000  Uiso   1.00
C541   C     0.49716   0.80034   0.42916   0.00000  Uiso   1.00
C542   C     0.44110   0.95491   0.34918   0.00000  Uiso   1.00
C543   C     0.63670   0.77362   0.18189   0.00000  Uiso   1.00
C544   C     0.39565   0.76623   0.19590   0.00000  Uiso   1.00
C545   C     0.60470   0.89431   0.31761   0.00000  Uiso   1.00
C546   C     0.35648   0.76402   0.01290   0.00000  Uiso   1.00
C547   C     0.51842   0.80806   0.01070   0.00000  Uiso   1.00
C548   C     0.56645   0.81050   0.47931   0.00000  Uiso   1.00
C549   C     0.57955   0.79961   0.42472   0.00000  Uiso   1.00
C550   C     0.54510   0.79291   0.40003   0.00000  Uiso   1.00
C551   C     0.50616   0.81885   0.06523   0.00000  Uiso   1.00
C552   C     0.58771   0.83155   0.05840   0.00000  Uiso   1.00
F553   F     0.55676   0.70757   0.16585   0.00000  Uiso   1.00
F554   F     0.36556   0.89129   0.30930   0.00000  Uiso   1.00
F555   F     0.38085   0.80214   0.40951   0.00000  Uiso   1.00
F556   F     0.42505   0.77186   0.06421   0.00000  Uiso   1.00
F557   F     0.55839   0.77491   0.34988   0.00000  Uiso   1.00
H558   H     0.61448   0.84039   0.07664   0.00000  Uiso   1.00
H559   H     0.44977   0.96730   0.38513   0.00000  Uiso   1.00
H560   H     0.40300   0.95878   0.35531   0.00000  Uiso   1.00
H561   H     0.63582   0.74130   0.19699   0.00000  Uiso   1.00
H562   H     0.60298   0.77945   0.17650   0.00000  Uiso   1.00
H563   H     0.66195   0.77564   0.14068   0.00000  Uiso   1.00
H564   H     0.43121   0.77652   0.17264   0.00000  Uiso   1.00
H565   H     0.39630   0.74447   0.22802   0.00000  Uiso   1.00
H566   H     0.38384   0.74690   0.16682   0.00000  Uiso   1.00
H567   H     0.56745   0.89093   0.32183   0.00000  Uiso   1.00
H568   H     0.60757   0.89186   0.35883   0.00000  Uiso   1.00
H569   H     0.61627   0.79656   0.40114   0.00000  Uiso   1.00
H570   H     0.61633   0.92617   0.30255   0.00000  Uiso   1.00
H571   H     0.33675   0.78363   0.04805   0.00000  Uiso   1.00
H572   H     0.33545   0.75958   0.48492   0.00000  Uiso   1.00
H573   H     0.36162   0.73248   0.02707   0.00000  Uiso   1.00
H574   H     0.63694   0.82664   0.47904   0.00000  Uiso   1.00
H575   H     0.46966   0.82101   0.08896   0.00000  Uiso   1.00
H576   H     0.55238   0.96065   0.17584   0.00000  Uiso   1.00
H577   H     0.41381   0.73523   0.33186   0.00000  Uiso   1.00
H578   H     0.41341   0.69563   0.37814   0.00000  Uiso   1.00
H579   H     0.45997   0.73329   0.36317   0.00000  Uiso   1.00
H580   H     0.44832   0.92087   0.34702   0.00000  Uiso   1.00
N581   N     0.38093   0.83334   0.25002   0.00000  Uiso   1.00
N582   N     0.61906   0.83331   0.25001   0.00000  Uiso   1.00
O583   O     0.46179   0.89442   0.25001   0.00000  Uiso   1.00
O584   O     0.53823   0.89441   0.25001   0.00000  Uiso   1.00
O585   O     0.44280   0.83333   0.32681   0.00000  Uiso   1.00
O586   O     0.51924   0.83332   0.32681   0.00000  Uiso   1.00
O587   O     0.46177   0.77226   0.25000   0.00000  Uiso   1.00
O588   O     0.53821   0.77225   0.25000   0.00000  Uiso   1.00
O589   O     0.48076   0.83335   0.17319   0.00000  Uiso   1.00
O590   O     0.55720   0.83334   0.17319   0.00000  Uiso   1.00
Zn591  Zn    0.44896   0.83334   0.25000   0.00000  Uiso   1.00
Zn592  Zn    0.55104   0.83333   0.25000   0.00000  Uiso   1.00
C593   C     0.83349   0.91305   0.25069   0.00000  Uiso   1.00
C594   C     0.79524   0.80922   0.40511   0.00000  Uiso   1.00
C595   C     0.86274   0.97786   0.21014   0.00000  Uiso   1.00
C596   C     0.80812   0.82691   0.35059   0.00000  Uiso   1.00
C597   C     0.86198   0.68734   0.20947   0.00000  Uiso   1.00
C598   C     0.83142   0.70918   0.25292   0.00000  Uiso   1.00
C599   C     0.80128   0.68886   0.29834   0.00000  Uiso   1.00
C600   C     0.80292   0.97835   0.29953   0.00000  Uiso   1.00
C601   C     0.83320   0.95715   0.25418   0.00000  Uiso   1.00
C602   C     0.98404   0.80447   0.21906   0.00000  Uiso   1.00
C603   C     0.69793   0.80309   0.22139   0.00000  Uiso   1.00
C604   C     0.81713   0.79859   0.48553   0.00000  Uiso   1.00
C605   C     0.68353   0.86239   0.27943   0.00000  Uiso   1.00
C606   C     0.96894   0.86201   0.28086   0.00000  Uiso   1.00
C607   C     0.83276   0.75351   0.25074   0.00000  Uiso   1.00
C608   C     0.85908   0.83334   0.14811   0.00000  Uiso   1.00
C609   C     0.93387   0.82315   0.00314   0.00000  Uiso   1.00
C610   C     0.87381   0.82864   0.08963   0.00000  Uiso   1.00
C611   C     0.74814   0.79948   0.43366   0.00000  Uiso   1.00
C612   C     0.73678   0.78402   0.48602   0.00000  Uiso   1.00
C613   C     0.77032   0.78648   0.01331   0.00000  Uiso   1.00
C614   C     0.77029   0.71441   0.34547   0.00000  Uiso   1.00
C615   C     0.83049   0.80034   0.42916   0.00000  Uiso   1.00
C616   C     0.77443   0.95491   0.34918   0.00000  Uiso   1.00
C617   C     0.97003   0.77362   0.18189   0.00000  Uiso   1.00
C618   C     0.72898   0.76623   0.19590   0.00000  Uiso   1.00
C619   C     0.93803   0.89431   0.31761   0.00000  Uiso   1.00
C620   C     0.68982   0.76402   0.01290   0.00000  Uiso   1.00
C621   C     0.85175   0.80806   0.01070   0.00000  Uiso   1.00
C622   C     0.89979   0.81050   0.47931   0.00000  Uiso   1.00
C623   C     0.91289   0.79961   0.42472   0.00000  Uiso   1.00
C624   C     0.87843   0.79291   0.40003   0.00000  Uiso   1.00
C625   C     0.83949   0.81885   0.06523   0.00000  Uiso   1.00
C626   C     0.92105   0.83155   0.05840   0.00000  Uiso   1.00
F627   F     0.89009   0.70757   0.16585   0.00000  Uiso   1.00
F628   F     0.69890   0.89129   0.30930   0.00000  Uiso   1.00
F629   F     0.71418   0.80214   0.40951   0.00000  Uiso   1.00
F630   F     0.75838   0.77186   0.06421   0.00000  Uiso   1.00
F631   F     0.89172   0.77491   0.34988   0.00000  Uiso   1.00
H632   H     0.94782   0.84039   0.07664   0.00000  Uiso   1.00
H633   H     0.78310   0.96730   0.38513   0.00000  Uiso   1.00
H634   H     0.73633   0.95878   0.35531   0.00000  Uiso   1.00
H635   H     0.96915   0.74130   0.19699   0.00000  Uiso   1.00
H636   H     0.93631   0.77945   0.17650   0.00000  Uiso   1.00
H637   H     0.99529   0.77564   0.14068   0.00000  Uiso   1.00
H638   H     0.76454   0.77652   0.17264   0.00000  Uiso   1.00
H639   H     0.72963   0.74447   0.22802   0.00000  Uiso   1.00
H640   H     0.71717   0.74690   0.16682   0.00000  Uiso   1.00
H641   H     0.90078   0.89093   0.32183   0.00000  Uiso   1.00
H642   H     0.94090   0.89186   0.35883   0.00000  Uiso   1.00
H643   H     0.94960   0.79656   0.40114   0.00000  Uiso   1.00
H644   H     0.94967   0.92617   0.30255   0.00000  Uiso   1.00
H645   H     0.67009   0.78363   0.04805   0.00000  Uiso   1.00
H646   H     0.66878   0.75958   0.48492   0.00000  Uiso   1.00
H647   H     0.69496   0.73248   0.02707   0.00000  Uiso   1.00
H648   H     0.97027   0.82664   0.47904   0.00000  Uiso   1.00
H649   H     0.80299   0.82101   0.08896   0.00000  Uiso   1.00
H650   H     0.88571   0.96065   0.17584   0.00000  Uiso   1.00
H651   H     0.74714   0.73523   0.33186   0.00000  Uiso   1.00
H652   H     0.74674   0.69563   0.37814   0.00000  Uiso   1.00
H653   H     0.79330   0.73329   0.36317   0.00000  Uiso   1.00
H654   H     0.78165   0.92087   0.34702   0.00000  Uiso   1.00
N655   N     0.71426   0.83334   0.25002   0.00000  Uiso   1.00
N656   N     0.95239   0.83331   0.25001   0.00000  Uiso   1.00
O657   O     0.79512   0.89442   0.25001   0.00000  Uiso   1.00
O658   O     0.87157   0.89441   0.25001   0.00000  Uiso   1.00
O659   O     0.77613   0.83333   0.32681   0.00000  Uiso   1.00
O660   O     0.85258   0.83332   0.32681   0.00000  Uiso   1.00
O661   O     0.79510   0.77226   0.25000   0.00000  Uiso   1.00
O662   O     0.87154   0.77225   0.25000   0.00000  Uiso   1.00
O663   O     0.81409   0.83335   0.17319   0.00000  Uiso   1.00
O664   O     0.89053   0.83334   0.17319   0.00000  Uiso   1.00
Zn665  Zn    0.78229   0.83334   0.25000   0.00000  Uiso   1.00
Zn666  Zn    0.88438   0.83333   0.25000   0.00000  Uiso   1.00
C667   C     0.16682   0.24638   0.75069   0.00000  Uiso   1.00
C668   C     0.12857   0.14256   0.90511   0.00000  Uiso   1.00
C669   C     0.19607   0.31119   0.71014   0.00000  Uiso   1.00
C670   C     0.14145   0.16024   0.85059   0.00000  Uiso   1.00
C671   C     0.19531   0.02068   0.70947   0.00000  Uiso   1.00
C672   C     0.16475   0.04252   0.75292   0.00000  Uiso   1.00
C673   C     0.13462   0.02219   0.79834   0.00000  Uiso   1.00
C674   C     0.13625   0.31168   0.79953   0.00000  Uiso   1.00
C675   C     0.16653   0.29049   0.75418   0.00000  Uiso   1.00
C676   C     0.31738   0.13781   0.71906   0.00000  Uiso   1.00
C677   C     0.03126   0.13642   0.72139   0.00000  Uiso   1.00
C678   C     0.15047   0.13193   0.98553   0.00000  Uiso   1.00
C679   C     0.01686   0.19572   0.77943   0.00000  Uiso   1.00
C680   C     0.30227   0.19534   0.78086   0.00000  Uiso   1.00
C681   C     0.16609   0.08685   0.75074   0.00000  Uiso   1.00
C682   C     0.19241   0.16668   0.64811   0.00000  Uiso   1.00
C683   C     0.26720   0.15648   0.50314   0.00000  Uiso   1.00
C684   C     0.20715   0.16198   0.58963   0.00000  Uiso   1.00
C685   C     0.08147   0.13282   0.93366   0.00000  Uiso   1.00
C686   C     0.07011   0.11735   0.98602   0.00000  Uiso   1.00
C687   C     0.10366   0.11982   0.51331   0.00000  Uiso   1.00
C688   C     0.10362   0.04774   0.84547   0.00000  Uiso   1.00
C689   C     0.16382   0.13368   0.92916   0.00000  Uiso   1.00
C690   C     0.10776   0.28824   0.84918   0.00000  Uiso   1.00
C691   C     0.30336   0.10695   0.68189   0.00000  Uiso   1.00
C692   C     0.06231   0.09956   0.69590   0.00000  Uiso   1.00
C693   C     0.27136   0.22764   0.81761   0.00000  Uiso   1.00
C694   C     0.02315   0.09736   0.51290   0.00000  Uiso   1.00
C695   C     0.18508   0.14139   0.51070   0.00000  Uiso   1.00
C696   C     0.23312   0.14383   0.97931   0.00000  Uiso   1.00
C697   C     0.24622   0.13294   0.92472   0.00000  Uiso   1.00
C698   C     0.21177   0.12624   0.90003   0.00000  Uiso   1.00
C699   C     0.17283   0.15218   0.56523   0.00000  Uiso   1.00
C700   C     0.25438   0.16488   0.55840   0.00000  Uiso   1.00
F701   F     0.22342   0.04090   0.66585   0.00000  Uiso   1.00
F702   F     0.03223   0.22463   0.80930   0.00000  Uiso   1.00
F703   F     0.04752   0.13548   0.90951   0.00000  Uiso   1.00
F704   F     0.09171   0.10519   0.56421   0.00000  Uiso   1.00
F705   F     0.22506   0.10825   0.84988   0.00000  Uiso   1.00
H706   H     0.28115   0.17372   0.57664   0.00000  Uiso   1.00
H707   H     0.11644   0.30063   0.88513   0.00000  Uiso   1.00
H708   H     0.06966   0.29211   0.85531   0.00000  Uiso   1.00
H709   H     0.30249   0.07463   0.69699   0.00000  Uiso   1.00
H710   H     0.26964   0.11278   0.67650   0.00000  Uiso   1.00
H711   H     0.32862   0.10898   0.64068   0.00000  Uiso   1.00
H712   H     0.09788   0.10985   0.67264   0.00000  Uiso   1.00
H713   H     0.06297   0.07780   0.72802   0.00000  Uiso   1.00
H714   H     0.05051   0.08024   0.66682   0.00000  Uiso   1.00
H715   H     0.23411   0.22426   0.82183   0.00000  Uiso   1.00
H716   H     0.27424   0.22520   0.85883   0.00000  Uiso   1.00
H717   H     0.28294   0.12990   0.90114   0.00000  Uiso   1.00
H718   H     0.28300   0.25950   0.80255   0.00000  Uiso   1.00
H719   H     0.00342   0.11696   0.54805   0.00000  Uiso   1.00
H720   H     0.00211   0.09292   0.98492   0.00000  Uiso   1.00
H721   H     0.02829   0.06581   0.52707   0.00000  Uiso   1.00
H722   H     0.30361   0.15997   0.97904   0.00000  Uiso   1.00
H723   H     0.13632   0.15434   0.58896   0.00000  Uiso   1.00
H724   H     0.21905   0.29398   0.67584   0.00000  Uiso   1.00
H725   H     0.08048   0.06856   0.83186   0.00000  Uiso   1.00
H726   H     0.08008   0.02897   0.87814   0.00000  Uiso   1.00
H727   H     0.12663   0.06662   0.86317   0.00000  Uiso   1.00
H728   H     0.11498   0.25420   0.84702   0.00000  Uiso   1.00
N729   N     0.04760   0.16668   0.75002   0.00000  Uiso   1.00
N730   N     0.28573   0.16665   0.75001   0.00000  Uiso   1.00
O731   O     0.12846   0.22775   0.75001   0.00000  Uiso   1.00
O732   O     0.20490   0.22774   0.75001   0.00000  Uiso   1.00
O733   O     0.10947   0.16666   0.82681   0.00000  Uiso   1.00
O734   O     0.18591   0.16665   0.82681   0.00000  Uiso   1.00
O735   O     0.12843   0.10559   0.75000   0.00000  Uiso   1.00
O736   O     0.20488   0.10558   0.75000   0.00000  Uiso   1.00
O737   O     0.14742   0.16668   0.67319   0.00000  Uiso   1.00
O738   O     0.22387   0.16667   0.67319   0.00000  Uiso   1.00
Zn739  Zn    0.11562   0.16667   0.75000   0.00000  Uiso   1.00
Zn740  Zn    0.21771   0.16666   0.75000   0.00000  Uiso   1.00
C741   C     0.50016   0.24638   0.75069   0.00000  Uiso   1.00
C742   C     0.46191   0.14256   0.90511   0.00000  Uiso   1.00
C743   C     0.52941   0.31119   0.71014   0.00000  Uiso   1.00
C744   C     0.47478   0.16024   0.85059   0.00000  Uiso   1.00
C745   C     0.52864   0.02068   0.70947   0.00000  Uiso   1.00
C746   C     0.49809   0.04252   0.75292   0.00000  Uiso   1.00
C747   C     0.46795   0.02219   0.79834   0.00000  Uiso   1.00
C748   C     0.46958   0.31168   0.79953   0.00000  Uiso   1.00
C749   C     0.49987   0.29049   0.75418   0.00000  Uiso   1.00
C750   C     0.65071   0.13781   0.71906   0.00000  Uiso   1.00
C751   C     0.36460   0.13642   0.72139   0.00000  Uiso   1.00
C752   C     0.48380   0.13193   0.98553   0.00000  Uiso   1.00
C753   C     0.35019   0.19572   0.77943   0.00000  Uiso   1.00
C754   C     0.63561   0.19534   0.78086   0.00000  Uiso   1.00
C755   C     0.49943   0.08685   0.75074   0.00000  Uiso   1.00
C756   C     0.52574   0.16668   0.64811   0.00000  Uiso   1.00
C757   C     0.60054   0.15648   0.50314   0.00000  Uiso   1.00
C758   C     0.54048   0.16198   0.58963   0.00000  Uiso   1.00
C759   C     0.41480   0.13282   0.93366   0.00000  Uiso   1.00
C760   C     0.40345   0.11735   0.98602   0.00000  Uiso   1.00
C761   C     0.43699   0.11982   0.51331   0.00000  Uiso   1.00
C762   C     0.43696   0.04774   0.84547   0.00000  Uiso   1.00
C763   C     0.49716   0.13368   0.92916   0.00000  Uiso   1.00
C764   C     0.44110   0.28824   0.84918   0.00000  Uiso   1.00
C765   C     0.63670   0.10695   0.68189   0.00000  Uiso   1.00
C766   C     0.39565   0.09956   0.69590   0.00000  Uiso   1.00
C767   C     0.60470   0.22764   0.81761   0.00000  Uiso   1.00
C768   C     0.35648   0.09736   0.51290   0.00000  Uiso   1.00
C769   C     0.51842   0.14139   0.51070   0.00000  Uiso   1.00
C770   C     0.56645   0.14383   0.97931   0.00000  Uiso   1.00
C771   C     0.57955   0.13294   0.92472   0.00000  Uiso   1.00
C772   C     0.54510   0.12624   0.90003   0.00000  Uiso   1.00
C773   C     0.50616   0.15218   0.56523   0.00000  Uiso   1.00
C774   C     0.58771   0.16488   0.55840   0.00000  Uiso   1.00
F775   F     0.55676   0.04090   0.66585   0.00000  Uiso   1.00
F776   F     0.36556   0.22463   0.80930   0.00000  Uiso   1.00
F777   F     0.38085   0.13548   0.90951   0.00000  Uiso   1.00
F778   F     0.42505   0.10519   0.56421   0.00000  Uiso   1.00
F779   F     0.55839   0.10825   0.84988   0.00000  Uiso   1.00
H780   H     0.61448   0.17372   0.57664   0.00000  Uiso   1.00
H781   H     0.44977   0.30063   0.88513   0.00000  Uiso   1.00
H782   H     0.40300   0.29211   0.85531   0.00000  Uiso   1.00
H783   H     0.63582   0.07463   0.69699   0.00000  Uiso   1.00
H784   H     0.60298   0.11278   0.67650   0.00000  Uiso   1.00
H785   H     0.66195   0.10898   0.64068   0.00000  Uiso   1.00
H786   H     0.43121   0.10985   0.67264   0.00000  Uiso   1.00
H787   H     0.39630   0.07780   0.72802   0.00000  Uiso   1.00
H788   H     0.38384   0.08024   0.66682   0.00000  Uiso   1.00
H789   H     0.56745   0.22426   0.82183   0.00000  Uiso   1.00
H790   H     0.60757   0.22520   0.85883   0.00000  Uiso   1.00
H791   H     0.61627   0.12990   0.90114   0.00000  Uiso   1.00
H792   H     0.61633   0.25950   0.80255   0.00000  Uiso   1.00
H793   H     0.33675   0.11696   0.54805   0.00000  Uiso   1.00
H794   H     0.33545   0.09292   0.98492   0.00000  Uiso   1.00
H795   H     0.36162   0.06581   0.52707   0.00000  Uiso   1.00
H796   H     0.63694   0.15997   0.97904   0.00000  Uiso   1.00
H797   H     0.46966   0.15434   0.58896   0.00000  Uiso   1.00
H798   H     0.55238   0.29398   0.67584   0.00000  Uiso   1.00
H799   H     0.41381   0.06856   0.83186   0.00000  Uiso   1.00
H800   H     0.41341   0.02897   0.87814   0.00000  Uiso   1.00
H801   H     0.45997   0.06662   0.86317   0.00000  Uiso   1.00
H802   H     0.44832   0.25420   0.84702   0.00000  Uiso   1.00
N803   N     0.38093   0.16668   0.75002   0.00000  Uiso   1.00
N804   N     0.61906   0.16665   0.75001   0.00000  Uiso   1.00
O805   O     0.46179   0.22775   0.75001   0.00000  Uiso   1.00
O806   O     0.53823   0.22774   0.75001   0.00000  Uiso   1.00
O807   O     0.44280   0.16666   0.82681   0.00000  Uiso   1.00
O808   O     0.51924   0.16665   0.82681   0.00000  Uiso   1.00
O809   O     0.46177   0.10559   0.75000   0.00000  Uiso   1.00
O810   O     0.53821   0.10558   0.75000   0.00000  Uiso   1.00
O811   O     0.48076   0.16668   0.67319   0.00000  Uiso   1.00
O812   O     0.55720   0.16667   0.67319   0.00000  Uiso   1.00
Zn813  Zn    0.44896   0.16667   0.75000   0.00000  Uiso   1.00
Zn814  Zn    0.55104   0.16666   0.75000   0.00000  Uiso   1.00
C815   C     0.83349   0.24638   0.75069   0.00000  Uiso   1.00
C816   C     0.79524   0.14256   0.90511   0.00000  Uiso   1.00
C817   C     0.86274   0.31119   0.71014   0.00000  Uiso   1.00
C818   C     0.80812   0.16024   0.85059   0.00000  Uiso   1.00
C819   C     0.86198   0.02068   0.70947   0.00000  Uiso   1.00
C820   C     0.83142   0.04252   0.75292   0.00000  Uiso   1.00
C821   C     0.80128   0.02219   0.79834   0.00000  Uiso   1.00
C822   C     0.80292   0.31168   0.79953   0.00000  Uiso   1.00
C823   C     0.83320   0.29049   0.75418   0.00000  Uiso   1.00
C824   C     0.98404   0.13781   0.71906   0.00000  Uiso   1.00
C825   C     0.69793   0.13642   0.72139   0.00000  Uiso   1.00
C826   C     0.81713   0.13193   0.98553   0.00000  Uiso   1.00
C827   C     0.68353   0.19572   0.77943   0.00000  Uiso   1.00
C828   C     0.96894   0.19534   0.78086   0.00000  Uiso   1.00
C829   C     0.83276   0.08685   0.75074   0.00000  Uiso   1.00
C830   C     0.85908   0.16668   0.64811   0.00000  Uiso   1.00
C831   C     0.93387   0.15648   0.50314   0.00000  Uiso   1.00
C832   C     0.87381   0.16198   0.58963   0.00000  Uiso   1.00
C833   C     0.74814   0.13282   0.93366   0.00000  Uiso   1.00
C834   C     0.73678   0.11735   0.98602   0.00000  Uiso   1.00
C835   C     0.77032   0.11982   0.51331   0.00000  Uiso   1.00
C836   C     0.77029   0.04774   0.84547   0.00000  Uiso   1.00
C837   C     0.83049   0.13368   0.92916   0.00000  Uiso   1.00
C838   C     0.77443   0.28824   0.84918   0.00000  Uiso   1.00
C839   C     0.97003   0.10695   0.68189   0.00000  Uiso   1.00
C840   C     0.72898   0.09956   0.69590   0.00000  Uiso   1.00
C841   C     0.93803   0.22764   0.81761   0.00000  Uiso   1.00
C842   C     0.68982   0.09736   0.51290   0.00000  Uiso   1.00
C843   C     0.85175   0.14139   0.51070   0.00000  Uiso   1.00
C844   C     0.89979   0.14383   0.97931   0.00000  Uiso   1.00
C845   C     0.91289   0.13294   0.92472   0.00000  Uiso   1.00
C846   C     0.87843   0.12624   0.90003   0.00000  Uiso   1.00
C847   C     0.83949   0.15218   0.56523   0.00000  Uiso   1.00
C848   C     0.92105   0.16488   0.55840   0.00000  Uiso   1.00
F849   F     0.89009   0.04090   0.66585   0.00000  Uiso   1.00
F850   F     0.69890   0.22463   0.80930   0.00000  Uiso   1.00
F851   F     0.71418   0.13548   0.90951   0.00000  Uiso   1.00
F852   F     0.75838   0.10519   0.56421   0.00000  Uiso   1.00
F853   F     0.89172   0.10825   0.84988   0.00000  Uiso   1.00
H854   H     0.94782   0.17372   0.57664   0.00000  Uiso   1.00
H855   H     0.78310   0.30063   0.88513   0.00000  Uiso   1.00
H856   H     0.73633   0.29211   0.85531   0.00000  Uiso   1.00
H857   H     0.96915   0.07463   0.69699   0.00000  Uiso   1.00
H858   H     0.93631   0.11278   0.67650   0.00000  Uiso   1.00
H859   H     0.99529   0.10898   0.64068   0.00000  Uiso   1.00
H860   H     0.76454   0.10985   0.67264   0.00000  Uiso   1.00
H861   H     0.72963   0.07780   0.72802   0.00000  Uiso   1.00
H862   H     0.71717   0.08024   0.66682   0.00000  Uiso   1.00
H863   H     0.90078   0.22426   0.82183   0.00000  Uiso   1.00
H864   H     0.94090   0.22520   0.85883   0.00000  Uiso   1.00
H865   H     0.94960   0.12990   0.90114   0.00000  Uiso   1.00
H866   H     0.94967   0.25950   0.80255   0.00000  Uiso   1.00
H867   H     0.67009   0.11696   0.54805   0.00000  Uiso   1.00
H868   H     0.66878   0.09292   0.98492   0.00000  Uiso   1.00
H869   H     0.69496   0.06581   0.52707   0.00000  Uiso   1.00
H870   H     0.97027   0.15997   0.97904   0.00000  Uiso   1.00
H871   H     0.80299   0.15434   0.58896   0.00000  Uiso   1.00
H872   H     0.88571   0.29398   0.67584   0.00000  Uiso   1.00
H873   H     0.74714   0.06856   0.83186   0.00000  Uiso   1.00
H874   H     0.74674   0.02897   0.87814   0.00000  Uiso   1.00
H875   H     0.79330   0.06662   0.86317   0.00000  Uiso   1.00
H876   H     0.78165   0.25420   0.84702   0.00000  Uiso   1.00
N877   N     0.71426   0.16668   0.75002   0.00000  Uiso   1.00
N878   N     0.95239   0.16665   0.75001   0.00000  Uiso   1.00
O879   O     0.79512   0.22775   0.75001   0.00000  Uiso   1.00
O880   O     0.87157   0.22774   0.75001   0.00000  Uiso   1.00
O881   O     0.77613   0.16666   0.82681   0.00000  Uiso   1.00
O882   O     0.85258   0.16665   0.82681   0.00000  Uiso   1.00
O883   O     0.79510   0.10559   0.75000   0.00000  Uiso   1.00
O884   O     0.87154   0.10558   0.75000   0.00000  Uiso   1.00
O885   O     0.81409   0.16668   0.67319   0.00000  Uiso   1.00
O886   O     0.89053   0.16667   0.67319   0.00000  Uiso   1.00
Zn887  Zn    0.78229   0.16667   0.75000   0.00000  Uiso   1.00
Zn888  Zn    0.88438   0.16666   0.75000   0.00000  Uiso   1.00
C889   C     0.16682   0.57971   0.75069   0.00000  Uiso   1.00
C890   C     0.12857   0.47589   0.90511   0.00000  Uiso   1.00
C891   C     0.19607   0.64452   0.71014   0.00000  Uiso   1.00
C892   C     0.14145   0.49358   0.85059   0.00000  Uiso   1.00
C893   C     0.19531   0.35401   0.70947   0.00000  Uiso   1.00
C894   C     0.16475   0.37585   0.75292   0.00000  Uiso   1.00
C895   C     0.13462   0.35553   0.79834   0.00000  Uiso   1.00
C896   C     0.13625   0.64501   0.79953   0.00000  Uiso   1.00
C897   C     0.16653   0.62382   0.75418   0.00000  Uiso   1.00
C898   C     0.31738   0.47114   0.71906   0.00000  Uiso   1.00
C899   C     0.03126   0.46976   0.72139   0.00000  Uiso   1.00
C900   C     0.15047   0.46526   0.98553   0.00000  Uiso   1.00
C901   C     0.01686   0.52905   0.77943   0.00000  Uiso   1.00
C902   C     0.30227   0.52868   0.78086   0.00000  Uiso   1.00
C903   C     0.16609   0.42018   0.75074   0.00000  Uiso   1.00
C904   C     0.19241   0.50001   0.64811   0.00000  Uiso   1.00
C905   C     0.26720   0.48981   0.50314   0.00000  Uiso   1.00
C906   C     0.20715   0.49531   0.58963   0.00000  Uiso   1.00
C907   C     0.08147   0.46615   0.93366   0.00000  Uiso   1.00
C908   C     0.07011   0.45068   0.98602   0.00000  Uiso   1.00
C909   C     0.10366   0.45315   0.51331   0.00000  Uiso   1.00
C910   C     0.10362   0.38108   0.84547   0.00000  Uiso   1.00
C911   C     0.16382   0.46701   0.92916   0.00000  Uiso   1.00
C912   C     0.10776   0.62158   0.84918   0.00000  Uiso   1.00
C913   C     0.30336   0.44029   0.68189   0.00000  Uiso   1.00
C914   C     0.06231   0.43289   0.69590   0.00000  Uiso   1.00
C915   C     0.27136   0.56097   0.81761   0.00000  Uiso   1.00
C916   C     0.02315   0.43069   0.51290   0.00000  Uiso   1.00
C917   C     0.18508   0.47472   0.51070   0.00000  Uiso   1.00
C918   C     0.23312   0.47717   0.97931   0.00000  Uiso   1.00
C919   C     0.24622   0.46628   0.92472   0.00000  Uiso   1.00
C920   C     0.21177   0.45958   0.90003   0.00000  Uiso   1.00
C921   C     0.17283   0.48551   0.56523   0.00000  Uiso   1.00
C922   C     0.25438   0.49822   0.55840   0.00000  Uiso   1.00
F923   F     0.22342   0.37424   0.66585   0.00000  Uiso   1.00
F924   F     0.03223   0.55796   0.80930   0.00000  Uiso   1.00
F925   F     0.04752   0.46881   0.90951   0.00000  Uiso   1.00
F926   F     0.09171   0.43852   0.56421   0.00000  Uiso   1.00
F927   F     0.22506   0.44158   0.84988   0.00000  Uiso   1.00
H928   H     0.28115   0.50705   0.57664   0.00000  Uiso   1.00
H929   H     0.11644   0.63396   0.88513   0.00000  Uiso   1.00
H930   H     0.06966   0.62544   0.85531   0.00000  Uiso   1.00
H931   H     0.30249   0.40796   0.69699   0.00000  Uiso   1.00
H932   H     0.26964   0.44611   0.67650   0.00000  Uiso   1.00
H933   H     0.32862   0.44231   0.64068   0.00000  Uiso   1.00
H934   H     0.09788   0.44319   0.67264   0.00000  Uiso   1.00
H935   H     0.06297   0.41114   0.72802   0.00000  Uiso   1.00
H936   H     0.05051   0.41357   0.66682   0.00000  Uiso   1.00
H937   H     0.23411   0.55759   0.82183   0.00000  Uiso   1.00
H938   H     0.27424   0.55853   0.85883   0.00000  Uiso   1.00
H939   H     0.28294   0.46323   0.90114   0.00000  Uiso   1.00
H940   H     0.28300   0.59283   0.80255   0.00000  Uiso   1.00
H941   H     0.00342   0.45030   0.54805   0.00000  Uiso   1.00
H942   H     0.00211   0.42625   0.98492   0.00000  Uiso   1.00
H943   H     0.02829   0.39915   0.52707   0.00000  Uiso   1.00
H944   H     0.30361   0.49331   0.97904   0.00000  Uiso   1.00
H945   H     0.13632   0.48768   0.58896   0.00000  Uiso   1.00
H946   H     0.21905   0.62732   0.67584   0.00000  Uiso   1.00
H947   H     0.08048   0.40189   0.83186   0.00000  Uiso   1.00
H948   H     0.08008   0.36230   0.87814   0.00000  Uiso   1.00
H949   H     0.12663   0.39995   0.86317   0.00000  Uiso   1.00
H950   H     0.11498   0.58753   0.84702   0.00000  Uiso   1.00
N951   N     0.04760   0.50001   0.75002   0.00000  Uiso   1.00
N952   N     0.28573   0.49998   0.75001   0.00000  Uiso   1.00
O953   O     0.12846   0.56108   0.75001   0.00000  Uiso   1.00
O954   O     0.20490   0.56107   0.75001   0.00000  Uiso   1.00
O955   O     0.10947   0.50000   0.82681   0.00000  Uiso   1.00
O956   O     0.18591   0.49999   0.82681   0.00000  Uiso   1.00
O957   O     0.12843   0.43893   0.75000   0.00000  Uiso   1.00
O958   O     0.20488   0.43892   0.75000   0.00000  Uiso   1.00
O959   O     0.14742   0.50001   0.67319   0.00000  Uiso   1.00
O960   O     0.22387   0.50000   0.67319   0.00000  Uiso   1.00
Zn961  Zn    0.11562   0.50001   0.75000   0.00000  Uiso   1.00
Zn962  Zn    0.21771   0.49999   0.75000   0.00000  Uiso   1.00
C963   C     0.50016   0.57971   0.75069   0.00000  Uiso   1.00
C964   C     0.46191   0.47589   0.90511   0.00000  Uiso   1.00
C965   C     0.52941   0.64452   0.71014   0.00000  Uiso   1.00
C966   C     0.47478   0.49358   0.85059   0.00000  Uiso   1.00
C967   C     0.52864   0.35401   0.70947   0.00000  Uiso   1.00
C968   C     0.49809   0.37585   0.75292   0.00000  Uiso   1.00
C969   C     0.46795   0.35553   0.79834   0.00000  Uiso   1.00
C970   C     0.46958   0.64501   0.79953   0.00000  Uiso   1.00
C971   C     0.49987   0.62382   0.75418   0.00000  Uiso   1.00
C972   C     0.65071   0.47114   0.71906   0.00000  Uiso   1.00
C973   C     0.36460   0.46976   0.72139   0.00000  Uiso   1.00
C974   C     0.48380   0.46526   0.98553   0.00000  Uiso   1.00
C975   C     0.35019   0.52905   0.77943   0.00000  Uiso   1.00
C976   C     0.63561   0.52868   0.78086   0.00000  Uiso   1.00
C977   C     0.49943   0.42018   0.75074   0.00000  Uiso   1.00
C978   C     0.52574   0.50001   0.64811   0.00000  Uiso   1.00
C979   C     0.60054   0.48981   0.50314   0.00000  Uiso   1.00
C980   C     0.54048   0.49531   0.58963   0.00000  Uiso   1.00
C981   C     0.41480   0.46615   0.93366   0.00000  Uiso   1.00
C982   C     0.40345   0.45068   0.98602   0.00000  Uiso   1.00
C983   C     0.43699   0.45315   0.51331   0.00000  Uiso   1.00
C984   C     0.43696   0.38108   0.84547   0.00000  Uiso   1.00
C985   C     0.49716   0.46701   0.92916   0.00000  Uiso   1.00
C986   C     0.44110   0.62158   0.84918   0.00000  Uiso   1.00
C987   C     0.63670   0.44029   0.68189   0.00000  Uiso   1.00
C988   C     0.39565   0.43289   0.69590   0.00000  Uiso   1.00
C989   C     0.60470   0.56097   0.81761   0.00000  Uiso   1.00
C990   C     0.35648   0.43069   0.51290   0.00000  Uiso   1.00
C991   C     0.51842   0.47472   0.51070   0.00000  Uiso   1.00
C992   C     0.56645   0.47717   0.97931   0.00000  Uiso   1.00
C993   C     0.57955   0.46628   0.92472   0.00000  Uiso   1.00
C994   C     0.54510   0.45958   0.90003   0.00000  Uiso   1.00
C995   C     0.50616   0.48551   0.56523   0.00000  Uiso   1.00
C996   C     0.58771   0.49822   0.55840   0.00000  Uiso   1.00
F997   F     0.55676   0.37424   0.66585   0.00000  Uiso   1.00
F998   F     0.36556   0.55796   0.80930   0.00000  Uiso   1.00
F999   F     0.38085   0.46881   0.90951   0.00000  Uiso   1.00
F1000  F     0.42505   0.43852   0.56421   0.00000  Uiso   1.00
F1001  F     0.55839   0.44158   0.84988   0.00000  Uiso   1.00
H1002  H     0.61448   0.50705   0.57664   0.00000  Uiso   1.00
H1003  H     0.44977   0.63396   0.88513   0.00000  Uiso   1.00
H1004  H     0.40300   0.62544   0.85531   0.00000  Uiso   1.00
H1005  H     0.63582   0.40796   0.69699   0.00000  Uiso   1.00
H1006  H     0.60298   0.44611   0.67650   0.00000  Uiso   1.00
H1007  H     0.66195   0.44231   0.64068   0.00000  Uiso   1.00
H1008  H     0.43121   0.44319   0.67264   0.00000  Uiso   1.00
H1009  H     0.39630   0.41114   0.72802   0.00000  Uiso   1.00
H1010  H     0.38384   0.41357   0.66682   0.00000  Uiso   1.00
H1011  H     0.56745   0.55759   0.82183   0.00000  Uiso   1.00
H1012  H     0.60757   0.55853   0.85883   0.00000  Uiso   1.00
H1013  H     0.61627   0.46323   0.90114   0.00000  Uiso   1.00
H1014  H     0.61633   0.59283   0.80255   0.00000  Uiso   1.00
H1015  H     0.33675   0.45030   0.54805   0.00000  Uiso   1.00
H1016  H     0.33545   0.42625   0.98492   0.00000  Uiso   1.00
H1017  H     0.36162   0.39915   0.52707   0.00000  Uiso   1.00
H1018  H     0.63694   0.49331   0.97904   0.00000  Uiso   1.00
H1019  H     0.46966   0.48768   0.58896   0.00000  Uiso   1.00
H1020  H     0.55238   0.62732   0.67584   0.00000  Uiso   1.00
H1021  H     0.41381   0.40189   0.83186   0.00000  Uiso   1.00
H1022  H     0.41341   0.36230   0.87814   0.00000  Uiso   1.00
H1023  H     0.45997   0.39995   0.86317   0.00000  Uiso   1.00
H1024  H     0.44832   0.58753   0.84702   0.00000  Uiso   1.00
N1025  N     0.38093   0.50001   0.75002   0.00000  Uiso   1.00
N1026  N     0.61906   0.49998   0.75001   0.00000  Uiso   1.00
O1027  O     0.46179   0.56108   0.75001   0.00000  Uiso   1.00
O1028  O     0.53823   0.56107   0.75001   0.00000  Uiso   1.00
O1029  O     0.44280   0.50000   0.82681   0.00000  Uiso   1.00
O1030  O     0.51924   0.49999   0.82681   0.00000  Uiso   1.00
O1031  O     0.46177   0.43893   0.75000   0.00000  Uiso   1.00
O1032  O     0.53821   0.43892   0.75000   0.00000  Uiso   1.00
O1033  O     0.48076   0.50001   0.67319   0.00000  Uiso   1.00
O1034  O     0.55720   0.50000   0.67319   0.00000  Uiso   1.00
Zn1035 Zn    0.44896   0.50001   0.75000   0.00000  Uiso   1.00
Zn1036 Zn    0.55104   0.49999   0.75000   0.00000  Uiso   1.00
C1037  C     0.83349   0.57971   0.75069   0.00000  Uiso   1.00
C1038  C     0.79524   0.47589   0.90511   0.00000  Uiso   1.00
C1039  C     0.86274   0.64452   0.71014   0.00000  Uiso   1.00
C1040  C     0.80812   0.49358   0.85059   0.00000  Uiso   1.00
C1041  C     0.86198   0.35401   0.70947   0.00000  Uiso   1.00
C1042  C     0.83142   0.37585   0.75292   0.00000  Uiso   1.00
C1043  C     0.80128   0.35553   0.79834   0.00000  Uiso   1.00
C1044  C     0.80292   0.64501   0.79953   0.00000  Uiso   1.00
C1045  C     0.83320   0.62382   0.75418   0.00000  Uiso   1.00
C1046  C     0.98404   0.47114   0.71906   0.00000  Uiso   1.00
C1047  C     0.69793   0.46976   0.72139   0.00000  Uiso   1.00
C1048  C     0.81713   0.46526   0.98553   0.00000  Uiso   1.00
C1049  C     0.68353   0.52905   0.77943   0.00000  Uiso   1.00
C1050  C     0.96894   0.52868   0.78086   0.00000  Uiso   1.00
C1051  C     0.83276   0.42018   0.75074   0.00000  Uiso   1.00
C1052  C     0.85908   0.50001   0.64811   0.00000  Uiso   1.00
C1053  C     0.93387   0.48981   0.50314   0.00000  Uiso   1.00
C1054  C     0.87381   0.49531   0.58963   0.00000  Uiso   1.00
C1055  C     0.74814   0.46615   0.93366   0.00000  Uiso   1.00
C1056  C     0.73678   0.45068   0.98602   0.00000  Uiso   1.00
C1057  C     0.77032   0.45315   0.51331   0.00000  Uiso   1.00
C1058  C     0.77029   0.38108   0.84547   0.00000  Uiso   1.00
C1059  C     0.83049   0.46701   0.92916   0.00000  Uiso   1.00
C1060  C     0.77443   0.62158   0.84918   0.00000  Uiso   1.00
C1061  C     0.97003   0.44029   0.68189   0.00000  Uiso   1.00
C1062  C     0.72898   0.43289   0.69590   0.00000  Uiso   1.00
C1063  C     0.93803   0.56097   0.81761   0.00000  Uiso   1.00
C1064  C     0.68982   0.43069   0.51290   0.00000  Uiso   1.00
C1065  C     0.85175   0.47472   0.51070   0.00000  Uiso   1.00
C1066  C     0.89979   0.47717   0.97931   0.00000  Uiso   1.00
C1067  C     0.91289   0.46628   0.92472   0.00000  Uiso   1.00
C1068  C     0.87843   0.45958   0.90003   0.00000  Uiso   1.00
C1069  C     0.83949   0.48551   0.56523   0.00000  Uiso   1.00
C1070  C     0.92105   0.49822   0.55840   0.00000  Uiso   1.00
F1071  F     0.89009   0.37424   0.66585   0.00000  Uiso   1.00
F1072  F     0.69890   0.55796   0.80930   0.00000  Uiso   1.00
F1073  F     0.71418   0.46881   0.90951   0.00000  Uiso   1.00
F1074  F     0.75838   0.43852   0.56421   0.00000  Uiso   1.00
F1075  F     0.89172   0.44158   0.84988   0.00000  Uiso   1.00
H1076  H     0.94782   0.50705   0.57664   0.00000  Uiso   1.00
H1077  H     0.78310   0.63396   0.88513   0.00000  Uiso   1.00
H1078  H     0.73633   0.62544   0.85531   0.00000  Uiso   1.00
H1079  H     0.96915   0.40796   0.69699   0.00000  Uiso   1.00
H1080  H     0.93631   0.44611   0.67650   0.00000  Uiso   1.00
H1081  H     0.99529   0.44231   0.64068   0.00000  Uiso   1.00
H1082  H     0.76454   0.44319   0.67264   0.00000  Uiso   1.00
H1083  H     0.72963   0.41114   0.72802   0.00000  Uiso   1.00
H1084  H     0.71717   0.41357   0.66682   0.00000  Uiso   1.00
H1085  H     0.90078   0.55759   0.82183   0.00000  Uiso   1.00
H1086  H     0.94090   0.55853   0.85883   0.00000  Uiso   1.00
H1087  H     0.94960   0.46323   0.90114   0.00000  Uiso   1.00
H1088  H     0.94967   0.59283   0.80255   0.00000  Uiso   1.00
H1089  H     0.67009   0.45030   0.54805   0.00000  Uiso   1.00
H1090  H     0.66878   0.42625   0.98492   0.00000  Uiso   1.00
H1091  H     0.69496   0.39915   0.52707   0.00000  Uiso   1.00
H1092  H     0.97027   0.49331   0.97904   0.00000  Uiso   1.00
H1093  H     0.80299   0.48768   0.58896   0.00000  Uiso   1.00
H1094  H     0.88571   0.62732   0.67584   0.00000  Uiso   1.00
H1095  H     0.74714   0.40189   0.83186   0.00000  Uiso   1.00
H1096  H     0.74674   0.36230   0.87814   0.00000  Uiso   1.00
H1097  H     0.79330   0.39995   0.86317   0.00000  Uiso   1.00
H1098  H     0.78165   0.58753   0.84702   0.00000  Uiso   1.00
N1099  N     0.71426   0.50001   0.75002   0.00000  Uiso   1.00
N1100  N     0.95239   0.49998   0.75001   0.00000  Uiso   1.00
O1101  O     0.79512   0.56108   0.75001   0.00000  Uiso   1.00
O1102  O     0.87157   0.56107   0.75001   0.00000  Uiso   1.00
O1103  O     0.77613   0.50000   0.82681   0.00000  Uiso   1.00
O1104  O     0.85258   0.49999   0.82681   0.00000  Uiso   1.00
O1105  O     0.79510   0.43893   0.75000   0.00000  Uiso   1.00
O1106  O     0.87154   0.43892   0.75000   0.00000  Uiso   1.00
O1107  O     0.81409   0.50001   0.67319   0.00000  Uiso   1.00
O1108  O     0.89053   0.50000   0.67319   0.00000  Uiso   1.00
Zn1109 Zn    0.78229   0.50001   0.75000   0.00000  Uiso   1.00
Zn1110 Zn    0.88438   0.49999   0.75000   0.00000  Uiso   1.00
C1111  C     0.16682   0.91305   0.75069   0.00000  Uiso   1.00
C1112  C     0.12857   0.80922   0.90511   0.00000  Uiso   1.00
C1113  C     0.19607   0.97786   0.71014   0.00000  Uiso   1.00
C1114  C     0.14145   0.82691   0.85059   0.00000  Uiso   1.00
C1115  C     0.19531   0.68734   0.70947   0.00000  Uiso   1.00
C1116  C     0.16475   0.70918   0.75292   0.00000  Uiso   1.00
C1117  C     0.13462   0.68886   0.79834   0.00000  Uiso   1.00
C1118  C     0.13625   0.97835   0.79953   0.00000  Uiso   1.00
C1119  C     0.16653   0.95715   0.75418   0.00000  Uiso   1.00
C1120  C     0.31738   0.80447   0.71906   0.00000  Uiso   1.00
C1121  C     0.03126   0.80309   0.72139   0.00000  Uiso   1.00
C1122  C     0.15047   0.79859   0.98553   0.00000  Uiso   1.00
C1123  C     0.01686   0.86239   0.77943   0.00000  Uiso   1.00
C1124  C     0.30227   0.86201   0.78086   0.00000  Uiso   1.00
C1125  C     0.16609   0.75351   0.75074   0.00000  Uiso   1.00
C1126  C     0.19241   0.83334   0.64811   0.00000  Uiso   1.00
C1127  C     0.26720   0.82315   0.50314   0.00000  Uiso   1.00
C1128  C     0.20715   0.82864   0.58963   0.00000  Uiso   1.00
C1129  C     0.08147   0.79948   0.93366   0.00000  Uiso   1.00
C1130  C     0.07011   0.78402   0.98602   0.00000  Uiso   1.00
C1131  C     0.10366   0.78648   0.51331   0.00000  Uiso   1.00
C1132  C     0.10362   0.71441   0.84547   0.00000  Uiso   1.00
C1133  C     0.16382   0.80034   0.92916   0.00000  Uiso   1.00
C1134  C     0.10776   0.95491   0.84918   0.00000  Uiso   1.00
C1135  C     0.30336   0.77362   0.68189   0.00000  Uiso   1.00
C1136  C     0.06231   0.76623   0.69590   0.00000  Uiso   1.00
C1137  C     0.27136   0.89431   0.81761   0.00000  Uiso   1.00
C1138  C     0.02315   0.76402   0.51290   0.00000  Uiso   1.00
C1139  C     0.18508   0.80806   0.51070   0.00000  Uiso   1.00
C1140  C     0.23312   0.81050   0.97931   0.00000  Uiso   1.00
C1141  C     0.24622   0.79961   0.92472   0.00000  Uiso   1.00
C1142  C     0.21177   0.79291   0.90003   0.00000  Uiso   1.00
C1143  C     0.17283   0.81885   0.56523   0.00000  Uiso   1.00
C1144  C     0.25438   0.83155   0.55840   0.00000  Uiso   1.00
F1145  F     0.22342   0.70757   0.66585   0.00000  Uiso   1.00
F1146  F     0.03223   0.89129   0.80930   0.00000  Uiso   1.00
F1147  F     0.04752   0.80214   0.90951   0.00000  Uiso   1.00
F1148  F     0.09171   0.77186   0.56421   0.00000  Uiso   1.00
F1149  F     0.22506   0.77491   0.84988   0.00000  Uiso   1.00
H1150  H     0.28115   0.84039   0.57664   0.00000  Uiso   1.00
H1151  H     0.11644   0.96730   0.88513   0.00000  Uiso   1.00
H1152  H     0.06966   0.95878   0.85531   0.00000  Uiso   1.00
H1153  H     0.30249   0.74130   0.69699   0.00000  Uiso   1.00
H1154  H     0.26964   0.77945   0.67650   0.00000  Uiso   1.00
H1155  H     0.32862   0.77564   0.64068   0.00000  Uiso   1.00
H1156  H     0.09788   0.77652   0.67264   0.00000  Uiso   1.00
H1157  H     0.06297   0.74447   0.72802   0.00000  Uiso   1.00
H1158  H     0.05051   0.74690   0.66682   0.00000  Uiso   1.00
H1159  H     0.23411   0.89093   0.82183   0.00000  Uiso   1.00
H1160  H     0.27424   0.89186   0.85883   0.00000  Uiso   1.00
H1161  H     0.28294   0.79656   0.90114   0.00000  Uiso   1.00
H1162  H     0.28300   0.92617   0.80255   0.00000  Uiso   1.00
H1163  H     0.00342   0.78363   0.54805   0.00000  Uiso   1.00
H1164  H     0.00211   0.75958   0.98492   0.00000  Uiso   1.00
H1165  H     0.02829   0.73248   0.52707   0.00000  Uiso   1.00
H1166  H     0.30361   0.82664   0.97904   0.00000  Uiso   1.00
H1167  H     0.13632   0.82101   0.58896   0.00000  Uiso   1.00
H1168  H     0.21905   0.96065   0.67584   0.00000  Uiso   1.00
H1169  H     0.08048   0.73523   0.83186   0.00000  Uiso   1.00
H1170  H     0.08008   0.69563   0.87814   0.00000  Uiso   1.00
H1171  H     0.12663   0.73329   0.86317   0.00000  Uiso   1.00
H1172  H     0.11498   0.92087   0.84702   0.00000  Uiso   1.00
N1173  N     0.04760   0.83334   0.75002   0.00000  Uiso   1.00
N1174  N     0.28573   0.83331   0.75001   0.00000  Uiso   1.00
O1175  O     0.12846   0.89442   0.75001   0.00000  Uiso   1.00
O1176  O     0.20490   0.89441   0.75001   0.00000  Uiso   1.00
O1177  O     0.10947   0.83333   0.82681   0.00000  Uiso   1.00
O1178  O     0.18591   0.83332   0.82681   0.00000  Uiso   1.00
O1179  O     0.12843   0.77226   0.75000   0.00000  Uiso   1.00
O1180  O     0.20488   0.77225   0.75000   0.00000  Uiso   1.00
O1181  O     0.14742   0.83335   0.67319   0.00000  Uiso   1.00
O1182  O     0.22387   0.83334   0.67319   0.00000  Uiso   1.00
Zn1183 Zn    0.11562   0.83334   0.75000   0.00000  Uiso   1.00
Zn1184 Zn    0.21771   0.83333   0.75000   0.00000  Uiso   1.00
C1185  C     0.50016   0.91305   0.75069   0.00000  Uiso   1.00
C1186  C     0.46191   0.80922   0.90511   0.00000  Uiso   1.00
C1187  C     0.52941   0.97786   0.71014   0.00000  Uiso   1.00
C1188  C     0.47478   0.82691   0.85059   0.00000  Uiso   1.00
C1189  C     0.52864   0.68734   0.70947   0.00000  Uiso   1.00
C1190  C     0.49809   0.70918   0.75292   0.00000  Uiso   1.00
C1191  C     0.46795   0.68886   0.79834   0.00000  Uiso   1.00
C1192  C     0.46958   0.97835   0.79953   0.00000  Uiso   1.00
C1193  C     0.49987   0.95715   0.75418   0.00000  Uiso   1.00
C1194  C     0.65071   0.80447   0.71906   0.00000  Uiso   1.00
C1195  C     0.36460   0.80309   0.72139   0.00000  Uiso   1.00
C1196  C     0.48380   0.79859   0.98553   0.00000  Uiso   1.00
C1197  C     0.35019   0.86239   0.77943   0.00000  Uiso   1.00
C1198  C     0.63561   0.86201   0.78086   0.00000  Uiso   1.00
C1199  C     0.49943   0.75351   0.75074   0.00000  Uiso   1.00
C1200  C     0.52574   0.83334   0.64811   0.00000  Uiso   1.00
C1201  C     0.60054   0.82315   0.50314   0.00000  Uiso   1.00
C1202  C     0.54048   0.82864   0.58963   0.00000  Uiso   1.00
C1203  C     0.41480   0.79948   0.93366   0.00000  Uiso   1.00
C1204  C     0.40345   0.78402   0.98602   0.00000  Uiso   1.00
C1205  C     0.43699   0.78648   0.51331   0.00000  Uiso   1.00
C1206  C     0.43696   0.71441   0.84547   0.00000  Uiso   1.00
C1207  C     0.49716   0.80034   0.92916   0.00000  Uiso   1.00
C1208  C     0.44110   0.95491   0.84918   0.00000  Uiso   1.00
C1209  C     0.63670   0.77362   0.68189   0.00000  Uiso   1.00
C1210  C     0.39565   0.76623   0.69590   0.00000  Uiso   1.00
C1211  C     0.60470   0.89431   0.81761   0.00000  Uiso   1.00
C1212  C     0.35648   0.76402   0.51290   0.00000  Uiso   1.00
C1213  C     0.51842   0.80806   0.51070   0.00000  Uiso   1.00
C1214  C     0.56645   0.81050   0.97931   0.00000  Uiso   1.00
C1215  C     0.57955   0.79961   0.92472   0.00000  Uiso   1.00
C1216  C     0.54510   0.79291   0.90003   0.00000  Uiso   1.00
C1217  C     0.50616   0.81885   0.56523   0.00000  Uiso   1.00
C1218  C     0.58771   0.83155   0.55840   0.00000  Uiso   1.00
F1219  F     0.55676   0.70757   0.66585   0.00000  Uiso   1.00
F1220  F     0.36556   0.89129   0.80930   0.00000  Uiso   1.00
F1221  F     0.38085   0.80214   0.90951   0.00000  Uiso   1.00
F1222  F     0.42505   0.77186   0.56421   0.00000  Uiso   1.00
F1223  F     0.55839   0.77491   0.84988   0.00000  Uiso   1.00
H1224  H     0.61448   0.84039   0.57664   0.00000  Uiso   1.00
H1225  H     0.44977   0.96730   0.88513   0.00000  Uiso   1.00
H1226  H     0.40300   0.95878   0.85531   0.00000  Uiso   1.00
H1227  H     0.63582   0.74130   0.69699   0.00000  Uiso   1.00
H1228  H     0.60298   0.77945   0.67650   0.00000  Uiso   1.00
H1229  H     0.66195   0.77564   0.64068   0.00000  Uiso   1.00
H1230  H     0.43121   0.77652   0.67264   0.00000  Uiso   1.00
H1231  H     0.39630   0.74447   0.72802   0.00000  Uiso   1.00
H1232  H     0.38384   0.74690   0.66682   0.00000  Uiso   1.00
H1233  H     0.56745   0.89093   0.82183   0.00000  Uiso   1.00
H1234  H     0.60757   0.89186   0.85883   0.00000  Uiso   1.00
H1235  H     0.61627   0.79656   0.90114   0.00000  Uiso   1.00
H1236  H     0.61633   0.92617   0.80255   0.00000  Uiso   1.00
H1237  H     0.33675   0.78363   0.54805   0.00000  Uiso   1.00
H1238  H     0.33545   0.75958   0.98492   0.00000  Uiso   1.00
H1239  H     0.36162   0.73248   0.52707   0.00000  Uiso   1.00
H1240  H     0.63694   0.82664   0.97904   0.00000  Uiso   1.00
H1241  H     0.46966   0.82101   0.58896   0.00000  Uiso   1.00
H1242  H     0.55238   0.96065   0.67584   0.00000  Uiso   1.00
H1243  H     0.41381   0.73523   0.83186   0.00000  Uiso   1.00
H1244  H     0.41341   0.69563   0.87814   0.00000  Uiso   1.00
H1245  H     0.45997   0.73329   0.86317   0.00000  Uiso   1.00
H1246  H     0.44832   0.92087   0.84702   0.00000  Uiso   1.00
N1247  N     0.38093   0.83334   0.75002   0.00000  Uiso   1.00
N1248  N     0.61906   0.83331   0.75001   0.00000  Uiso   1.00
O1249  O     0.46179   0.89442   0.75001   0.00000  Uiso   1.00
O1250  O     0.53823   0.89441   0.75001   0.00000  Uiso   1.00
O1251  O     0.44280   0.83333   0.82681   0.00000  Uiso   1.00
O1252  O     0.51924   0.83332   0.82681   0.00000  Uiso   1.00
O1253  O     0.46177   0.77226   0.75000   0.00000  Uiso   1.00
O1254  O     0.53821   0.77225   0.75000   0.00000  Uiso   1.00
O1255  O     0.48076   0.83335   0.67319   0.00000  Uiso   1.00
O1256  O     0.55720   0.83334   0.67319   0.00000  Uiso   1.00
Zn1257 Zn    0.44896   0.83334   0.75000   0.00000  Uiso   1.00
Zn1258 Zn    0.55104   0.83333   0.75000   0.00000  Uiso   1.00
C1259  C     0.83349   0.91305   0.75069   0.00000  Uiso   1.00
C1260  C     0.79524   0.80922   0.90511   0.00000  Uiso   1.00
C1261  C     0.86274   0.97786   0.71014   0.00000  Uiso   1.00
C1262  C     0.80812   0.82691   0.85059   0.00000  Uiso   1.00
C1263  C     0.86198   0.68734   0.70947   0.00000  Uiso   1.00
C1264  C     0.83142   0.70918   0.75292   0.00000  Uiso   1.00
C1265  C     0.80128   0.68886   0.79834   0.00000  Uiso   1.00
C1266  C     0.80292   0.97835   0.79953   0.00000  Uiso   1.00
C1267  C     0.83320   0.95715   0.75418   0.00000  Uiso   1.00
C1268  C     0.98404   0.80447   0.71906   0.00000  Uiso   1.00
C1269  C     0.69793   0.80309   0.72139   0.00000  Uiso   1.00
C1270  C     0.81713   0.79859   0.98553   0.00000  Uiso   1.00
C1271  C     0.68353   0.86239   0.77943   0.00000  Uiso   1.00
C1272  C     0.96894   0.86201   0.78086   0.00000  Uiso   1.00
C1273  C     0.83276   0.75351   0.75074   0.00000  Uiso   1.00
C1274  C     0.85908   0.83334   0.64811   0.00000  Uiso   1.00
C1275  C     0.93387   0.82315   0.50314   0.00000  Uiso   1.00
C1276  C     0.87381   0.82864   0.58963   0.00000  Uiso   1.00
C1277  C     0.74814   0.79948   0.93366   0.00000  Uiso   1.00
C1278  C     0.73678   0.78402   0.98602   0.00000  Uiso   1.00
C1279  C     0.77032   0.78648   0.51331   0.00000  Uiso   1.00
C1280  C     0.77029   0.71441   0.84547   0.00000  Uiso   1.00
C1281  C     0.83049   0.80034   0.92916   0.00000  Uiso   1.00
C1282  C     0.77443   0.95491   0.84918   0.00000  Uiso   1.00
C1283  C     0.97003   0.77362   0.68189   0.00000  Uiso   1.00
C1284  C     0.72898   0.76623   0.69590   0.00000  Uiso   1.00
C1285  C     0.93803   0.89431   0.81761   0.00000  Uiso   1.00
C1286  C     0.68982   0.76402   0.51290   0.00000  Uiso   1.00
C1287  C     0.85175   0.80806   0.51070   0.00000  Uiso   1.00
C1288  C     0.89979   0.81050   0.97931   0.00000  Uiso   1.00
C1289  C     0.91289   0.79961   0.92472   0.00000  Uiso   1.00
C1290  C     0.87843   0.79291   0.90003   0.00000  Uiso   1.00
C1291  C     0.83949   0.81885   0.56523   0.00000  Uiso   1.00
C1292  C     0.92105   0.83155   0.55840   0.00000  Uiso   1.00
F1293  F     0.89009   0.70757   0.66585   0.00000  Uiso   1.00
F1294  F     0.69890   0.89129   0.80930   0.00000  Uiso   1.00
F1295  F     0.71418   0.80214   0.90951   0.00000  Uiso   1.00
F1296  F     0.75838   0.77186   0.56421   0.00000  Uiso   1.00
F1297  F     0.89172   0.77491   0.84988   0.00000  Uiso   1.00
H1298  H     0.94782   0.84039   0.57664   0.00000  Uiso   1.00
H1299  H     0.78310   0.96730   0.88513   0.00000  Uiso   1.00
H1300  H     0.73633   0.95878   0.85531   0.00000  Uiso   1.00
H1301  H     0.96915   0.74130   0.69699   0.00000  Uiso   1.00
H1302  H     0.93631   0.77945   0.67650   0.00000  Uiso   1.00
H1303  H     0.99529   0.77564   0.64068   0.00000  Uiso   1.00
H1304  H     0.76454   0.77652   0.67264   0.00000  Uiso   1.00
H1305  H     0.72963   0.74447   0.72802   0.00000  Uiso   1.00
H1306  H     0.71717   0.74690   0.66682   0.00000  Uiso   1.00
H1307  H     0.90078   0.89093   0.82183   0.00000  Uiso   1.00
H1308  H     0.94090   0.89186   0.85883   0.00000  Uiso   1.00
H1309  H     0.94960   0.79656   0.90114   0.00000  Uiso   1.00
H1310  H     0.94967   0.92617   0.80255   0.00000  Uiso   1.00
H1311  H     0.67009   0.78363   0.54805   0.00000  Uiso   1.00
H1312  H     0.66878   0.75958   0.98492   0.00000  Uiso   1.00
H1313  H     0.69496   0.73248   0.52707   0.00000  Uiso   1.00
H1314  H     0.97027   0.82664   0.97904   0.00000  Uiso   1.00
H1315  H     0.80299   0.82101   0.58896   0.00000  Uiso   1.00
H1316  H     0.88571   0.96065   0.67584   0.00000  Uiso   1.00
H1317  H     0.74714   0.73523   0.83186   0.00000  Uiso   1.00
H1318  H     0.74674   0.69563   0.87814   0.00000  Uiso   1.00
H1319  H     0.79330   0.73329   0.86317   0.00000  Uiso   1.00
H1320  H     0.78165   0.92087   0.84702   0.00000  Uiso   1.00
N1321  N     0.71426   0.83334   0.75002   0.00000  Uiso   1.00
N1322  N     0.95239   0.83331   0.75001   0.00000  Uiso   1.00
O1323  O     0.79512   0.89442   0.75001   0.00000  Uiso   1.00
O1324  O     0.87157   0.89441   0.75001   0.00000  Uiso   1.00
O1325  O     0.77613   0.83333   0.82681   0.00000  Uiso   1.00
O1326  O     0.85258   0.83332   0.82681   0.00000  Uiso   1.00
O1327  O     0.79510   0.77226   0.75000   0.00000  Uiso   1.00
O1328  O     0.87154   0.77225   0.75000   0.00000  Uiso   1.00
O1329  O     0.81409   0.83335   0.67319   0.00000  Uiso   1.00
O1330  O     0.89053   0.83334   0.67319   0.00000  Uiso   1.00
Zn1331 Zn    0.78229   0.83334   0.75000   0.00000  Uiso   1.00
Zn1332 Zn    0.88438   0.83333   0.75000   0.00000  Uiso   1.00
loop_
_geom_bond_atom_site_label_1
_geom_bond_atom_site_label_2
_geom_bond_distance
_geom_bond_site_symmetry_2
_ccdc_geom_bond_type
C1     O65     1.290   .     A
C1     O66     1.289   .     A
C1     C9      1.407   .     S
C2     C4      1.479   .     S
C2     C19     1.409   .     A
C2     C23     1.422   .     A
C3     C9      1.389   .     A
C3     H58     1.085   .     S
C3     C227    1.367   .     S
C4     O67     1.315   .     A
C4     O68     1.297   .     A
C5     C6      1.392   .     A
C5     F35     1.359   .     S
C5     C447    1.367   1_545 S
C6     C7      1.413   .     A
C6     C15     1.416   .     S
C7     C22     1.515   .     S
C7     C452    1.401   1_545 S
C8     C24     1.520   .     S
C8     C9      1.410   .     A
C8     C229    1.401   .     S
C10    C25     1.508   .     S
C10    N64     1.381   .     A
C10    C85     1.436   .     S
C11    N63     1.379   .     A
C11    C26     1.515   .     S
C11    C158    1.436   1_455 S
C12    C23     1.402   .     A
C12    C687    1.416   .     S
C12    C695    1.415   .     S
C13    F36     1.357   .     S
C13    N63     1.357   .     A
C13    C162    1.424   1_455 S
C14    C27     1.503   .     S
C14    N64     1.388   .     A
C14    C87     1.424   .     S
C15    O69     1.291   .     A
C15    O70     1.293   .     A
C16    O72     1.305   .     A
C16    O71     1.301   .     A
C16    C18     1.455   .     S
C17    C34     1.392   .     A
C17    C696    1.400   1_554 S
C17    H722    1.081   1_554 S
C18    C34     1.398   .     A
C18    C33     1.396   .     A
C19    C20     1.403   .     A
C19    F37     1.358   .     S
C20    C687    1.402   .     S
C20    C694    1.502   .     S
C21    F38     1.358   .     S
C21    C678    1.416   1_554 S
C21    C686    1.402   1_554 S
C22    H61     1.105   .     S
C22    H60     1.106   .     S
C22    H59     1.109   .     S
C23    C32     1.420   .     A
C24    H42     1.110   .     S
C24    H41     1.110   .     S
C24    H62     1.107   .     S
C25    H43     1.111   .     S
C25    H45     1.108   .     S
C25    H44     1.082   .     S
C26    H48     1.103   .     S
C26    H47     1.108   .     S
C26    H46     1.099   .     S
C27    H50     1.111   .     S
C27    H52     1.110   .     S
C27    H49     1.090   .     S
C28    H53     1.106   .     S
C28    H55     1.111   .     S
C28    C686    1.502   1_554 S
C28    H720    1.109   1_554 S
C29    C33     1.390   .     A
C29    C678    1.415   1_554 S
C29    C696    1.418   1_554 S
C30    C31     1.391   .     A
C30    C683    1.400   .     S
C30    C695    1.418   .     S
C31    C32     1.388   .     A
C31    H51     1.084   .     S
C32    F39     1.358   .     S
C33    H57     1.078   .     S
C34    H40     1.083   .     S
H54    C694    1.109   .     S
H56    C683    1.081   .     S
N63    Zn73    2.037   .     S
N64    Zn74    2.037   .     S
O65    Zn73    1.979   .     S
O66    Zn74    1.991   .     S
O67    Zn73    1.956   .     S
O68    Zn74    1.933   .     S
O69    Zn73    1.991   .     S
O70    Zn74    1.979   .     S
O71    Zn73    1.933   .     S
O72    Zn74    1.956   .     S
C75    O139    1.290   .     A
C75    O140    1.289   .     A
C75    C83     1.407   .     S
C76    C78     1.479   .     S
C76    C93     1.409   .     A
C76    C97     1.422   .     A
C77    C83     1.389   .     A
C77    H132    1.085   .     S
C77    C301    1.367   .     S
C78    O141    1.315   .     A
C78    O142    1.297   .     A
C79    C80     1.392   .     A
C79    F109    1.359   .     S
C79    C521    1.367   1_545 S
C80    C81     1.413   .     A
C80    C89     1.416   .     S
C81    C96     1.515   .     S
C81    C526    1.401   1_545 S
C82    C98     1.520   .     S
C82    C83     1.410   .     A
C82    C303    1.401   .     S
C84    C99     1.508   .     S
C84    N138    1.381   .     A
C84    C159    1.436   .     S
C85    N137    1.379   .     A
C85    C100    1.515   .     S
C86    C97     1.402   .     A
C86    C761    1.416   .     S
C86    C769    1.415   .     S
C87    F110    1.357   .     S
C87    N137    1.357   .     A
C88    C101    1.503   .     S
C88    N138    1.388   .     A
C88    C161    1.424   .     S
C89    O143    1.291   .     A
C89    O144    1.293   .     A
C90    O146    1.305   .     A
C90    O145    1.301   .     A
C90    C92     1.455   .     S
C91    C108    1.392   .     A
C91    C770    1.400   1_554 S
C91    H796    1.081   1_554 S
C92    C108    1.398   .     A
C92    C107    1.396   .     A
C93    C94     1.403   .     A
C93    F111    1.358   .     S
C94    C761    1.402   .     S
C94    C768    1.502   .     S
C95    F112    1.358   .     S
C95    C752    1.416   1_554 S
C95    C760    1.402   1_554 S
C96    H135    1.105   .     S
C96    H134    1.106   .     S
C96    H133    1.109   .     S
C97    C106    1.420   .     A
C98    H116    1.110   .     S
C98    H115    1.110   .     S
C98    H136    1.107   .     S
C99    H117    1.111   .     S
C99    H119    1.108   .     S
C99    H118    1.082   .     S
C100   H122    1.103   .     S
C100   H121    1.108   .     S
C100   H120    1.099   .     S
C101   H124    1.111   .     S
C101   H126    1.110   .     S
C101   H123    1.090   .     S
C102   H127    1.106   .     S
C102   H129    1.111   .     S
C102   C760    1.502   1_554 S
C102   H794    1.109   1_554 S
C103   C107    1.390   .     A
C103   C752    1.415   1_554 S
C103   C770    1.418   1_554 S
C104   C105    1.391   .     A
C104   C757    1.400   .     S
C104   C769    1.418   .     S
C105   C106    1.388   .     A
C105   H125    1.084   .     S
C106   F113    1.358   .     S
C107   H131    1.078   .     S
C108   H114    1.083   .     S
H128   C768    1.109   .     S
H130   C757    1.081   .     S
N137   Zn147   2.037   .     S
N138   Zn148   2.037   .     S
O139   Zn147   1.979   .     S
O140   Zn148   1.991   .     S
O141   Zn147   1.956   .     S
O142   Zn148   1.933   .     S
O143   Zn147   1.991   .     S
O144   Zn148   1.979   .     S
O145   Zn147   1.933   .     S
O146   Zn148   1.956   .     S
C149   O213    1.290   .     A
C149   O214    1.289   .     A
C149   C157    1.407   .     S
C150   C152    1.479   .     S
C150   C167    1.409   .     A
C150   C171    1.422   .     A
C151   C157    1.389   .     A
C151   H206    1.085   .     S
C151   C375    1.367   .     S
C152   O215    1.315   .     A
C152   O216    1.297   .     A
C153   C154    1.392   .     A
C153   F183    1.359   .     S
C153   C595    1.367   1_545 S
C154   C155    1.413   .     A
C154   C163    1.416   .     S
C155   C170    1.515   .     S
C155   C600    1.401   1_545 S
C156   C172    1.520   .     S
C156   C157    1.410   .     A
C156   C377    1.401   .     S
C158   C173    1.508   .     S
C158   N212    1.381   .     A
C158   C11     1.436   1_655 S
C159   N211    1.379   .     A
C159   C174    1.515   .     S
C160   C171    1.402   .     A
C160   C835    1.416   .     S
C160   C843    1.415   .     S
C161   F184    1.357   .     S
C161   N211    1.357   .     A
C162   C175    1.503   .     S
C162   N212    1.388   .     A
C162   C13     1.424   1_655 S
C163   O217    1.291   .     A
C163   O218    1.293   .     A
C164   O220    1.305   .     A
C164   O219    1.301   .     A
C164   C166    1.455   .     S
C165   C182    1.392   .     A
C165   C844    1.400   1_554 S
C165   H870    1.081   1_554 S
C166   C182    1.398   .     A
C166   C181    1.396   .     A
C167   C168    1.403   .     A
C167   F185    1.358   .     S
C168   C835    1.402   .     S
C168   C842    1.502   .     S
C169   F186    1.358   .     S
C169   C826    1.416   1_554 S
C169   C834    1.402   1_554 S
C170   H209    1.105   .     S
C170   H208    1.106   .     S
C170   H207    1.109   .     S
C171   C180    1.420   .     A
C172   H190    1.110   .     S
C172   H189    1.110   .     S
C172   H210    1.107   .     S
C173   H191    1.111   .     S
C173   H193    1.108   .     S
C173   H192    1.082   .     S
C174   H196    1.103   .     S
C174   H195    1.108   .     S
C174   H194    1.099   .     S
C175   H198    1.111   .     S
C175   H200    1.110   .     S
C175   H197    1.090   .     S
C176   H201    1.106   .     S
C176   H203    1.111   .     S
C176   C834    1.502   1_554 S
C176   H868    1.109   1_554 S
C177   C181    1.390   .     A
C177   C826    1.415   1_554 S
C177   C844    1.418   1_554 S
C178   C179    1.391   .     A
C178   C831    1.400   .     S
C178   C843    1.418   .     S
C179   C180    1.388   .     A
C179   H199    1.084   .     S
C180   F187    1.358   .     S
C181   H205    1.078   .     S
C182   H188    1.083   .     S
H202   C842    1.109   .     S
H204   C831    1.081   .     S
N211   Zn221   2.037   .     S
N212   Zn222   2.037   .     S
O213   Zn221   1.979   .     S
O214   Zn222   1.991   .     S
O215   Zn221   1.956   .     S
O216   Zn222   1.933   .     S
O217   Zn221   1.991   .     S
O218   Zn222   1.979   .     S
O219   Zn221   1.933   .     S
O220   Zn222   1.956   .     S
C223   O287    1.290   .     A
C223   O288    1.289   .     A
C223   C231    1.407   .     S
C224   C226    1.479   .     S
C224   C241    1.409   .     A
C224   C245    1.422   .     A
C225   C231    1.389   .     A
C225   H280    1.085   .     S
C225   C449    1.367   .     S
C226   O289    1.315   .     A
C226   O290    1.297   .     A
C227   C228    1.392   .     A
C227   F257    1.359   .     S
C228   C229    1.413   .     A
C228   C237    1.416   .     S
C229   C244    1.515   .     S
C230   C246    1.520   .     S
C230   C231    1.410   .     A
C230   C451    1.401   .     S
C232   C247    1.508   .     S
C232   N286    1.381   .     A
C232   C307    1.436   .     S
C233   N285    1.379   .     A
C233   C248    1.515   .     S
C233   C380    1.436   1_455 S
C234   C245    1.402   .     A
C234   C909    1.416   .     S
C234   C917    1.415   .     S
C235   F258    1.357   .     S
C235   N285    1.357   .     A
C235   C384    1.424   1_455 S
C236   C249    1.503   .     S
C236   N286    1.388   .     A
C236   C309    1.424   .     S
C237   O291    1.291   .     A
C237   O292    1.293   .     A
C238   O294    1.305   .     A
C238   O293    1.301   .     A
C238   C240    1.455   .     S
C239   C256    1.392   .     A
C239   C918    1.400   1_554 S
C239   H944    1.081   1_554 S
C240   C256    1.398   .     A
C240   C255    1.396   .     A
C241   C242    1.403   .     A
C241   F259    1.358   .     S
C242   C909    1.402   .     S
C242   C916    1.502   .     S
C243   F260    1.358   .     S
C243   C900    1.416   1_554 S
C243   C908    1.402   1_554 S
C244   H283    1.105   .     S
C244   H282    1.106   .     S
C244   H281    1.109   .     S
C245   C254    1.420   .     A
C246   H264    1.110   .     S
C246   H263    1.110   .     S
C246   H284    1.107   .     S
C247   H265    1.111   .     S
C247   H267    1.108   .     S
C247   H266    1.082   .     S
C248   H270    1.103   .     S
C248   H269    1.108   .     S
C248   H268    1.099   .     S
C249   H272    1.111   .     S
C249   H274    1.110   .     S
C249   H271    1.090   .     S
C250   H275    1.106   .     S
C250   H277    1.111   .     S
C250   C908    1.502   1_554 S
C250   H942    1.109   1_554 S
C251   C255    1.390   .     A
C251   C900    1.415   1_554 S
C251   C918    1.418   1_554 S
C252   C253    1.391   .     A
C252   C905    1.400   .     S
C252   C917    1.418   .     S
C253   C254    1.388   .     A
C253   H273    1.084   .     S
C254   F261    1.358   .     S
C255   H279    1.078   .     S
C256   H262    1.083   .     S
H276   C916    1.109   .     S
H278   C905    1.081   .     S
N285   Zn295   2.037   .     S
N286   Zn296   2.037   .     S
O287   Zn295   1.979   .     S
O288   Zn296   1.991   .     S
O289   Zn295   1.956   .     S
O290   Zn296   1.933   .     S
O291   Zn295   1.991   .     S
O292   Zn296   1.979   .     S
O293   Zn295   1.933   .     S
O294   Zn296   1.956   .     S
C297   O361    1.290   .     A
C297   O362    1.289   .     A
C297   C305    1.407   .     S
C298   C300    1.479   .     S
C298   C315    1.409   .     A
C298   C319    1.422   .     A
C299   C305    1.389   .     A
C299   H354    1.085   .     S
C299   C523    1.367   .     S
C300   O363    1.315   .     A
C300   O364    1.297   .     A
C301   C302    1.392   .     A
C301   F331    1.359   .     S
C302   C303    1.413   .     A
C302   C311    1.416   .     S
C303   C318    1.515   .     S
C304   C320    1.520   .     S
C304   C305    1.410   .     A
C304   C525    1.401   .     S
C306   C321    1.508   .     S
C306   N360    1.381   .     A
C306   C381    1.436   .     S
C307   N359    1.379   .     A
C307   C322    1.515   .     S
C308   C319    1.402   .     A
C308   C983    1.416   .     S
C308   C991    1.415   .     S
C309   F332    1.357   .     S
C309   N359    1.357   .     A
C310   C323    1.503   .     S
C310   N360    1.388   .     A
C310   C383    1.424   .     S
C311   O365    1.291   .     A
C311   O366    1.293   .     A
C312   O368    1.305   .     A
C312   O367    1.301   .     A
C312   C314    1.455   .     S
C313   C330    1.392   .     A
C313   C992    1.400   1_554 S
C313   H1018   1.081   1_554 S
C314   C330    1.398   .     A
C314   C329    1.396   .     A
C315   C316    1.403   .     A
C315   F333    1.358   .     S
C316   C983    1.402   .     S
C316   C990    1.502   .     S
C317   F334    1.358   .     S
C317   C974    1.416   1_554 S
C317   C982    1.402   1_554 S
C318   H357    1.105   .     S
C318   H356    1.106   .     S
C318   H355    1.109   .     S
C319   C328    1.420   .     A
C320   H338    1.110   .     S
C320   H337    1.110   .     S
C320   H358    1.107   .     S
C321   H339    1.111   .     S
C321   H341    1.108   .     S
C321   H340    1.082   .     S
C322   H344    1.103   .     S
C322   H343    1.108   .     S
C322   H342    1.099   .     S
C323   H346    1.111   .     S
C323   H348    1.110   .     S
C323   H345    1.090   .     S
C324   H349    1.106   .     S
C324   H351    1.111   .     S
C324   C982    1.502   1_554 S
C324   H1016   1.109   1_554 S
C325   C329    1.390   .     A
C325   C974    1.415   1_554 S
C325   C992    1.418   1_554 S
C326   C327    1.391   .     A
C326   C979    1.400   .     S
C326   C991    1.418   .     S
C327   C328    1.388   .     A
C327   H347    1.084   .     S
C328   F335    1.358   .     S
C329   H353    1.078   .     S
C330   H336    1.083   .     S
H350   C990    1.109   .     S
H352   C979    1.081   .     S
N359   Zn369   2.037   .     S
N360   Zn370   2.037   .     S
O361   Zn369   1.979   .     S
O362   Zn370   1.991   .     S
O363   Zn369   1.956   .     S
O364   Zn370   1.933   .     S
O365   Zn369   1.991   .     S
O366   Zn370   1.979   .     S
O367   Zn369   1.933   .     S
O368   Zn370   1.956   .     S
C371   O435    1.290   .     A
C371   O436    1.289   .     A
C371   C379    1.407   .     S
C372   C374    1.479   .     S
C372   C389    1.409   .     A
C372   C393    1.422   .     A
C373   C379    1.389   .     A
C373   H428    1.085   .     S
C373   C597    1.367   .     S
C374   O437    1.315   .     A
C374   O438    1.297   .     A
C375   C376    1.392   .     A
C375   F405    1.359   .     S
C376   C377    1.413   .     A
C376   C385    1.416   .     S
C377   C392    1.515   .     S
C378   C394    1.520   .     S
C378   C379    1.410   .     A
C378   C599    1.401   .     S
C380   C395    1.508   .     S
C380   N434    1.381   .     A
C380   C233    1.436   1_655 S
C381   N433    1.379   .     A
C381   C396    1.515   .     S
C382   C393    1.402   .     A
C382   C1057   1.416   .     S
C382   C1065   1.415   .     S
C383   F406    1.357   .     S
C383   N433    1.357   .     A
C384   C397    1.503   .     S
C384   N434    1.388   .     A
C384   C235    1.424   1_655 S
C385   O439    1.291   .     A
C385   O440    1.293   .     A
C386   O442    1.305   .     A
C386   O441    1.301   .     A
C386   C388    1.455   .     S
C387   C404    1.392   .     A
C387   C1066   1.400   1_554 S
C387   H1092   1.081   1_554 S
C388   C404    1.398   .     A
C388   C403    1.396   .     A
C389   C390    1.403   .     A
C389   F407    1.358   .     S
C390   C1057   1.402   .     S
C390   C1064   1.502   .     S
C391   F408    1.358   .     S
C391   C1048   1.416   1_554 S
C391   C1056   1.402   1_554 S
C392   H431    1.105   .     S
C392   H430    1.106   .     S
C392   H429    1.109   .     S
C393   C402    1.420   .     A
C394   H412    1.110   .     S
C394   H411    1.110   .     S
C394   H432    1.107   .     S
C395   H413    1.111   .     S
C395   H415    1.108   .     S
C395   H414    1.082   .     S
C396   H418    1.103   .     S
C396   H417    1.108   .     S
C396   H416    1.099   .     S
C397   H420    1.111   .     S
C397   H422    1.110   .     S
C397   H419    1.090   .     S
C398   H423    1.106   .     S
C398   H425    1.111   .     S
C398   C1056   1.502   1_554 S
C398   H1090   1.109   1_554 S
C399   C403    1.390   .     A
C399   C1048   1.415   1_554 S
C399   C1066   1.418   1_554 S
C400   C401    1.391   .     A
C400   C1053   1.400   .     S
C400   C1065   1.418   .     S
C401   C402    1.388   .     A
C401   H421    1.084   .     S
C402   F409    1.358   .     S
C403   H427    1.078   .     S
C404   H410    1.083   .     S
H424   C1064   1.109   .     S
H426   C1053   1.081   .     S
N433   Zn443   2.037   .     S
N434   Zn444   2.037   .     S
O435   Zn443   1.979   .     S
O436   Zn444   1.991   .     S
O437   Zn443   1.956   .     S
O438   Zn444   1.933   .     S
O439   Zn443   1.991   .     S
O440   Zn444   1.979   .     S
O441   Zn443   1.933   .     S
O442   Zn444   1.956   .     S
C445   O509    1.290   .     A
C445   O510    1.289   .     A
C445   C453    1.407   .     S
C446   C448    1.479   .     S
C446   C463    1.409   .     A
C446   C467    1.422   .     A
C447   C453    1.389   .     A
C447   H502    1.085   .     S
C447   C5      1.367   1_565 S
C448   O511    1.315   .     A
C448   O512    1.297   .     A
C449   C450    1.392   .     A
C449   F479    1.359   .     S
C450   C451    1.413   .     A
C450   C459    1.416   .     S
C451   C466    1.515   .     S
C452   C468    1.520   .     S
C452   C453    1.410   .     A
C452   C7      1.401   1_565 S
C454   C469    1.508   .     S
C454   N508    1.381   .     A
C454   C529    1.436   .     S
C455   N507    1.379   .     A
C455   C470    1.515   .     S
C455   C602    1.436   1_455 S
C456   C467    1.402   .     A
C456   C1131   1.416   .     S
C456   C1139   1.415   .     S
C457   F480    1.357   .     S
C457   N507    1.357   .     A
C457   C606    1.424   1_455 S
C458   C471    1.503   .     S
C458   N508    1.388   .     A
C458   C531    1.424   .     S
C459   O513    1.291   .     A
C459   O514    1.293   .     A
C460   O516    1.305   .     A
C460   O515    1.301   .     A
C460   C462    1.455   .     S
C461   C478    1.392   .     A
C461   C1140   1.400   1_554 S
C461   H1166   1.081   1_554 S
C462   C478    1.398   .     A
C462   C477    1.396   .     A
C463   C464    1.403   .     A
C463   F481    1.358   .     S
C464   C1131   1.402   .     S
C464   C1138   1.502   .     S
C465   F482    1.358   .     S
C465   C1122   1.416   1_554 S
C465   C1130   1.402   1_554 S
C466   H505    1.105   .     S
C466   H504    1.106   .     S
C466   H503    1.109   .     S
C467   C476    1.420   .     A
C468   H486    1.110   .     S
C468   H485    1.110   .     S
C468   H506    1.107   .     S
C469   H487    1.111   .     S
C469   H489    1.108   .     S
C469   H488    1.082   .     S
C470   H492    1.103   .     S
C470   H491    1.108   .     S
C470   H490    1.099   .     S
C471   H494    1.111   .     S
C471   H496    1.110   .     S
C471   H493    1.090   .     S
C472   H497    1.106   .     S
C472   H499    1.111   .     S
C472   C1130   1.502   1_554 S
C472   H1164   1.109   1_554 S
C473   C477    1.390   .     A
C473   C1122   1.415   1_554 S
C473   C1140   1.418   1_554 S
C474   C475    1.391   .     A
C474   C1127   1.400   .     S
C474   C1139   1.418   .     S
C475   C476    1.388   .     A
C475   H495    1.084   .     S
C476   F483    1.358   .     S
C477   H501    1.078   .     S
C478   H484    1.083   .     S
H498   C1138   1.109   .     S
H500   C1127   1.081   .     S
N507   Zn517   2.037   .     S
N508   Zn518   2.037   .     S
O509   Zn517   1.979   .     S
O510   Zn518   1.991   .     S
O511   Zn517   1.956   .     S
O512   Zn518   1.933   .     S
O513   Zn517   1.991   .     S
O514   Zn518   1.979   .     S
O515   Zn517   1.933   .     S
O516   Zn518   1.956   .     S
C519   O583    1.290   .     A
C519   O584    1.289   .     A
C519   C527    1.407   .     S
C520   C522    1.479   .     S
C520   C537    1.409   .     A
C520   C541    1.422   .     A
C521   C527    1.389   .     A
C521   H576    1.085   .     S
C521   C79     1.367   1_565 S
C522   O585    1.315   .     A
C522   O586    1.297   .     A
C523   C524    1.392   .     A
C523   F553    1.359   .     S
C524   C525    1.413   .     A
C524   C533    1.416   .     S
C525   C540    1.515   .     S
C526   C542    1.520   .     S
C526   C527    1.410   .     A
C526   C81     1.401   1_565 S
C528   C543    1.508   .     S
C528   N582    1.381   .     A
C528   C603    1.436   .     S
C529   N581    1.379   .     A
C529   C544    1.515   .     S
C530   C541    1.402   .     A
C530   C1205   1.416   .     S
C530   C1213   1.415   .     S
C531   F554    1.357   .     S
C531   N581    1.357   .     A
C532   C545    1.503   .     S
C532   N582    1.388   .     A
C532   C605    1.424   .     S
C533   O587    1.291   .     A
C533   O588    1.293   .     A
C534   O590    1.305   .     A
C534   O589    1.301   .     A
C534   C536    1.455   .     S
C535   C552    1.392   .     A
C535   C1214   1.400   1_554 S
C535   H1240   1.081   1_554 S
C536   C552    1.398   .     A
C536   C551    1.396   .     A
C537   C538    1.403   .     A
C537   F555    1.358   .     S
C538   C1205   1.402   .     S
C538   C1212   1.502   .     S
C539   F556    1.358   .     S
C539   C1196   1.416   1_554 S
C539   C1204   1.402   1_554 S
C540   H579    1.105   .     S
C540   H578    1.106   .     S
C540   H577    1.109   .     S
C541   C550    1.420   .     A
C542   H560    1.110   .     S
C542   H559    1.110   .     S
C542   H580    1.107   .     S
C543   H561    1.111   .     S
C543   H563    1.108   .     S
C543   H562    1.082   .     S
C544   H566    1.103   .     S
C544   H565    1.108   .     S
C544   H564    1.099   .     S
C545   H568    1.111   .     S
C545   H570    1.110   .     S
C545   H567    1.090   .     S
C546   H571    1.106   .     S
C546   H573    1.111   .     S
C546   C1204   1.502   1_554 S
C546   H1238   1.109   1_554 S
C547   C551    1.390   .     A
C547   C1196   1.415   1_554 S
C547   C1214   1.418   1_554 S
C548   C549    1.391   .     A
C548   C1201   1.400   .     S
C548   C1213   1.418   .     S
C549   C550    1.388   .     A
C549   H569    1.084   .     S
C550   F557    1.358   .     S
C551   H575    1.078   .     S
C552   H558    1.083   .     S
H572   C1212   1.109   .     S
H574   C1201   1.081   .     S
N581   Zn591   2.037   .     S
N582   Zn592   2.037   .     S
O583   Zn591   1.979   .     S
O584   Zn592   1.991   .     S
O585   Zn591   1.956   .     S
O586   Zn592   1.933   .     S
O587   Zn591   1.991   .     S
O588   Zn592   1.979   .     S
O589   Zn591   1.933   .     S
O590   Zn592   1.956   .     S
C593   O657    1.290   .     A
C593   O658    1.289   .     A
C593   C601    1.407   .     S
C594   C596    1.479   .     S
C594   C611    1.409   .     A
C594   C615    1.422   .     A
C595   C601    1.389   .     A
C595   H650    1.085   .     S
C595   C153    1.367   1_565 S
C596   O659    1.315   .     A
C596   O660    1.297   .     A
C597   C598    1.392   .     A
C597   F627    1.359   .     S
C598   C599    1.413   .     A
C598   C607    1.416   .     S
C599   C614    1.515   .     S
C600   C616    1.520   .     S
C600   C601    1.410   .     A
C600   C155    1.401   1_565 S
C602   C617    1.508   .     S
C602   N656    1.381   .     A
C602   C455    1.436   1_655 S
C603   N655    1.379   .     A
C603   C618    1.515   .     S
C604   C615    1.402   .     A
C604   C1279   1.416   .     S
C604   C1287   1.415   .     S
C605   F628    1.357   .     S
C605   N655    1.357   .     A
C606   C619    1.503   .     S
C606   N656    1.388   .     A
C606   C457    1.424   1_655 S
C607   O661    1.291   .     A
C607   O662    1.293   .     A
C608   O664    1.305   .     A
C608   O663    1.301   .     A
C608   C610    1.455   .     S
C609   C626    1.392   .     A
C609   C1288   1.400   1_554 S
C609   H1314   1.081   1_554 S
C610   C626    1.398   .     A
C610   C625    1.396   .     A
C611   C612    1.403   .     A
C611   F629    1.358   .     S
C612   C1279   1.402   .     S
C612   C1286   1.502   .     S
C613   F630    1.358   .     S
C613   C1270   1.416   1_554 S
C613   C1278   1.402   1_554 S
C614   H653    1.105   .     S
C614   H652    1.106   .     S
C614   H651    1.109   .     S
C615   C624    1.420   .     A
C616   H634    1.110   .     S
C616   H633    1.110   .     S
C616   H654    1.107   .     S
C617   H635    1.111   .     S
C617   H637    1.108   .     S
C617   H636    1.082   .     S
C618   H640    1.103   .     S
C618   H639    1.108   .     S
C618   H638    1.099   .     S
C619   H642    1.111   .     S
C619   H644    1.110   .     S
C619   H641    1.090   .     S
C620   H645    1.106   .     S
C620   H647    1.111   .     S
C620   C1278   1.502   1_554 S
C620   H1312   1.109   1_554 S
C621   C625    1.390   .     A
C621   C1270   1.415   1_554 S
C621   C1288   1.418   1_554 S
C622   C623    1.391   .     A
C622   C1275   1.400   .     S
C622   C1287   1.418   .     S
C623   C624    1.388   .     A
C623   H643    1.084   .     S
C624   F631    1.358   .     S
C625   H649    1.078   .     S
C626   H632    1.083   .     S
H646   C1286   1.109   .     S
H648   C1275   1.081   .     S
N655   Zn665   2.037   .     S
N656   Zn666   2.037   .     S
O657   Zn665   1.979   .     S
O658   Zn666   1.991   .     S
O659   Zn665   1.956   .     S
O660   Zn666   1.933   .     S
O661   Zn665   1.991   .     S
O662   Zn666   1.979   .     S
O663   Zn665   1.933   .     S
O664   Zn666   1.956   .     S
C667   O731    1.290   .     A
C667   O732    1.289   .     A
C667   C675    1.407   .     S
C668   C670    1.479   .     S
C668   C685    1.409   .     A
C668   C689    1.422   .     A
C669   C675    1.389   .     A
C669   H724    1.085   .     S
C669   C893    1.367   .     S
C670   O733    1.315   .     A
C670   O734    1.297   .     A
C671   C672    1.392   .     A
C671   F701    1.359   .     S
C671   C1113   1.367   1_545 S
C672   C673    1.413   .     A
C672   C681    1.416   .     S
C673   C688    1.515   .     S
C673   C1118   1.401   1_545 S
C674   C690    1.520   .     S
C674   C675    1.410   .     A
C674   C895    1.401   .     S
C676   C691    1.508   .     S
C676   N730    1.381   .     A
C676   C751    1.436   .     S
C677   N729    1.379   .     A
C677   C692    1.515   .     S
C677   C824    1.436   1_455 S
C678   C689    1.402   .     A
C678   C21     1.416   1_556 S
C678   C29     1.415   1_556 S
C679   F702    1.357   .     S
C679   N729    1.357   .     A
C679   C828    1.424   1_455 S
C680   C693    1.503   .     S
C680   N730    1.388   .     A
C680   C753    1.424   .     S
C681   O735    1.291   .     A
C681   O736    1.293   .     A
C682   O738    1.305   .     A
C682   O737    1.301   .     A
C682   C684    1.455   .     S
C683   C700    1.392   .     A
C684   C700    1.398   .     A
C684   C699    1.396   .     A
C685   C686    1.403   .     A
C685   F703    1.358   .     S
C686   C21     1.402   1_556 S
C686   C28     1.502   1_556 S
C687   F704    1.358   .     S
C688   H727    1.105   .     S
C688   H726    1.106   .     S
C688   H725    1.109   .     S
C689   C698    1.420   .     A
C690   H708    1.110   .     S
C690   H707    1.110   .     S
C690   H728    1.107   .     S
C691   H709    1.111   .     S
C691   H711    1.108   .     S
C691   H710    1.082   .     S
C692   H714    1.103   .     S
C692   H713    1.108   .     S
C692   H712    1.099   .     S
C693   H716    1.111   .     S
C693   H718    1.110   .     S
C693   H715    1.090   .     S
C694   H719    1.106   .     S
C694   H721    1.111   .     S
C695   C699    1.390   .     A
C696   C697    1.391   .     A
C696   C17     1.400   1_556 S
C696   C29     1.418   1_556 S
C697   C698    1.388   .     A
C697   H717    1.084   .     S
C698   F705    1.358   .     S
C699   H723    1.078   .     S
C700   H706    1.083   .     S
H720   C28     1.109   1_556 S
H722   C17     1.081   1_556 S
N729   Zn739   2.037   .     S
N730   Zn740   2.037   .     S
O731   Zn739   1.979   .     S
O732   Zn740   1.991   .     S
O733   Zn739   1.956   .     S
O734   Zn740   1.933   .     S
O735   Zn739   1.991   .     S
O736   Zn740   1.979   .     S
O737   Zn739   1.933   .     S
O738   Zn740   1.956   .     S
C741   O805    1.290   .     A
C741   O806    1.289   .     A
C741   C749    1.407   .     S
C742   C744    1.479   .     S
C742   C759    1.409   .     A
C742   C763    1.422   .     A
C743   C749    1.389   .     A
C743   H798    1.085   .     S
C743   C967    1.367   .     S
C744   O807    1.315   .     A
C744   O808    1.297   .     A
C745   C746    1.392   .     A
C745   F775    1.359   .     S
C745   C1187   1.367   1_545 S
C746   C747    1.413   .     A
C746   C755    1.416   .     S
C747   C762    1.515   .     S
C747   C1192   1.401   1_545 S
C748   C764    1.520   .     S
C748   C749    1.410   .     A
C748   C969    1.401   .     S
C750   C765    1.508   .     S
C750   N804    1.381   .     A
C750   C825    1.436   .     S
C751   N803    1.379   .     A
C751   C766    1.515   .     S
C752   C763    1.402   .     A
C752   C95     1.416   1_556 S
C752   C103    1.415   1_556 S
C753   F776    1.357   .     S
C753   N803    1.357   .     A
C754   C767    1.503   .     S
C754   N804    1.388   .     A
C754   C827    1.424   .     S
C755   O809    1.291   .     A
C755   O810    1.293   .     A
C756   O812    1.305   .     A
C756   O811    1.301   .     A
C756   C758    1.455   .     S
C757   C774    1.392   .     A
C758   C774    1.398   .     A
C758   C773    1.396   .     A
C759   C760    1.403   .     A
C759   F777    1.358   .     S
C760   C95     1.402   1_556 S
C760   C102    1.502   1_556 S
C761   F778    1.358   .     S
C762   H801    1.105   .     S
C762   H800    1.106   .     S
C762   H799    1.109   .     S
C763   C772    1.420   .     A
C764   H782    1.110   .     S
C764   H781    1.110   .     S
C764   H802    1.107   .     S
C765   H783    1.111   .     S
C765   H785    1.108   .     S
C765   H784    1.082   .     S
C766   H788    1.103   .     S
C766   H787    1.108   .     S
C766   H786    1.099   .     S
C767   H790    1.111   .     S
C767   H792    1.110   .     S
C767   H789    1.090   .     S
C768   H793    1.106   .     S
C768   H795    1.111   .     S
C769   C773    1.390   .     A
C770   C771    1.391   .     A
C770   C91     1.400   1_556 S
C770   C103    1.418   1_556 S
C771   C772    1.388   .     A
C771   H791    1.084   .     S
C772   F779    1.358   .     S
C773   H797    1.078   .     S
C774   H780    1.083   .     S
H794   C102    1.109   1_556 S
H796   C91     1.081   1_556 S
N803   Zn813   2.037   .     S
N804   Zn814   2.037   .     S
O805   Zn813   1.979   .     S
O806   Zn814   1.991   .     S
O807   Zn813   1.956   .     S
O808   Zn814   1.933   .     S
O809   Zn813   1.991   .     S
O810   Zn814   1.979   .     S
O811   Zn813   1.933   .     S
O812   Zn814   1.956   .     S
C815   O879    1.290   .     A
C815   O880    1.289   .     A
C815   C823    1.407   .     S
C816   C818    1.479   .     S
C816   C833    1.409   .     A
C816   C837    1.422   .     A
C817   C823    1.389   .     A
C817   H872    1.085   .     S
C817   C1041   1.367   .     S
C818   O881    1.315   .     A
C818   O882    1.297   .     A
C819   C820    1.392   .     A
C819   F849    1.359   .     S
C819   C1261   1.367   1_545 S
C820   C821    1.413   .     A
C820   C829    1.416   .     S
C821   C836    1.515   .     S
C821   C1266   1.401   1_545 S
C822   C838    1.520   .     S
C822   C823    1.410   .     A
C822   C1043   1.401   .     S
C824   C839    1.508   .     S
C824   N878    1.381   .     A
C824   C677    1.436   1_655 S
C825   N877    1.379   .     A
C825   C840    1.515   .     S
C826   C837    1.402   .     A
C826   C169    1.416   1_556 S
C826   C177    1.415   1_556 S
C827   F850    1.357   .     S
C827   N877    1.357   .     A
C828   C841    1.503   .     S
C828   N878    1.388   .     A
C828   C679    1.424   1_655 S
C829   O883    1.291   .     A
C829   O884    1.293   .     A
C830   O886    1.305   .     A
C830   O885    1.301   .     A
C830   C832    1.455   .     S
C831   C848    1.392   .     A
C832   C848    1.398   .     A
C832   C847    1.396   .     A
C833   C834    1.403   .     A
C833   F851    1.358   .     S
C834   C169    1.402   1_556 S
C834   C176    1.502   1_556 S
C835   F852    1.358   .     S
C836   H875    1.105   .     S
C836   H874    1.106   .     S
C836   H873    1.109   .     S
C837   C846    1.420   .     A
C838   H856    1.110   .     S
C838   H855    1.110   .     S
C838   H876    1.107   .     S
C839   H857    1.111   .     S
C839   H859    1.108   .     S
C839   H858    1.082   .     S
C840   H862    1.103   .     S
C840   H861    1.108   .     S
C840   H860    1.099   .     S
C841   H864    1.111   .     S
C841   H866    1.110   .     S
C841   H863    1.090   .     S
C842   H867    1.106   .     S
C842   H869    1.111   .     S
C843   C847    1.390   .     A
C844   C845    1.391   .     A
C844   C165    1.400   1_556 S
C844   C177    1.418   1_556 S
C845   C846    1.388   .     A
C845   H865    1.084   .     S
C846   F853    1.358   .     S
C847   H871    1.078   .     S
C848   H854    1.083   .     S
H868   C176    1.109   1_556 S
H870   C165    1.081   1_556 S
N877   Zn887   2.037   .     S
N878   Zn888   2.037   .     S
O879   Zn887   1.979   .     S
O880   Zn888   1.991   .     S
O881   Zn887   1.956   .     S
O882   Zn888   1.933   .     S
O883   Zn887   1.991   .     S
O884   Zn888   1.979   .     S
O885   Zn887   1.933   .     S
O886   Zn888   1.956   .     S
C889   O953    1.290   .     A
C889   O954    1.289   .     A
C889   C897    1.407   .     S
C890   C892    1.479   .     S
C890   C907    1.409   .     A
C890   C911    1.422   .     A
C891   C897    1.389   .     A
C891   H946    1.085   .     S
C891   C1115   1.367   .     S
C892   O955    1.315   .     A
C892   O956    1.297   .     A
C893   C894    1.392   .     A
C893   F923    1.359   .     S
C894   C895    1.413   .     A
C894   C903    1.416   .     S
C895   C910    1.515   .     S
C896   C912    1.520   .     S
C896   C897    1.410   .     A
C896   C1117   1.401   .     S
C898   C913    1.508   .     S
C898   N952    1.381   .     A
C898   C973    1.436   .     S
C899   N951    1.379   .     A
C899   C914    1.515   .     S
C899   C1046   1.436   1_455 S
C900   C911    1.402   .     A
C900   C243    1.416   1_556 S
C900   C251    1.415   1_556 S
C901   F924    1.357   .     S
C901   N951    1.357   .     A
C901   C1050   1.424   1_455 S
C902   C915    1.503   .     S
C902   N952    1.388   .     A
C902   C975    1.424   .     S
C903   O957    1.291   .     A
C903   O958    1.293   .     A
C904   O960    1.305   .     A
C904   O959    1.301   .     A
C904   C906    1.455   .     S
C905   C922    1.392   .     A
C906   C922    1.398   .     A
C906   C921    1.396   .     A
C907   C908    1.403   .     A
C907   F925    1.358   .     S
C908   C243    1.402   1_556 S
C908   C250    1.502   1_556 S
C909   F926    1.358   .     S
C910   H949    1.105   .     S
C910   H948    1.106   .     S
C910   H947    1.109   .     S
C911   C920    1.420   .     A
C912   H930    1.110   .     S
C912   H929    1.110   .     S
C912   H950    1.107   .     S
C913   H931    1.111   .     S
C913   H933    1.108   .     S
C913   H932    1.082   .     S
C914   H936    1.103   .     S
C914   H935    1.108   .     S
C914   H934    1.099   .     S
C915   H938    1.111   .     S
C915   H940    1.110   .     S
C915   H937    1.090   .     S
C916   H941    1.106   .     S
C916   H943    1.111   .     S
C917   C921    1.390   .     A
C918   C919    1.391   .     A
C918   C239    1.400   1_556 S
C918   C251    1.418   1_556 S
C919   C920    1.388   .     A
C919   H939    1.084   .     S
C920   F927    1.358   .     S
C921   H945    1.078   .     S
C922   H928    1.083   .     S
H942   C250    1.109   1_556 S
H944   C239    1.081   1_556 S
N951   Zn961   2.037   .     S
N952   Zn962   2.037   .     S
O953   Zn961   1.979   .     S
O954   Zn962   1.991   .     S
O955   Zn961   1.956   .     S
O956   Zn962   1.933   .     S
O957   Zn961   1.991   .     S
O958   Zn962   1.979   .     S
O959   Zn961   1.933   .     S
O960   Zn962   1.956   .     S
C963   O1027   1.290   .     A
C963   O1028   1.289   .     A
C963   C971    1.407   .     S
C964   C966    1.479   .     S
C964   C981    1.409   .     A
C964   C985    1.422   .     A
C965   C971    1.389   .     A
C965   H1020   1.085   .     S
C965   C1189   1.367   .     S
C966   O1029   1.315   .     A
C966   O1030   1.297   .     A
C967   C968    1.392   .     A
C967   F997    1.359   .     S
C968   C969    1.413   .     A
C968   C977    1.416   .     S
C969   C984    1.515   .     S
C970   C986    1.520   .     S
C970   C971    1.410   .     A
C970   C1191   1.401   .     S
C972   C987    1.508   .     S
C972   N1026   1.381   .     A
C972   C1047   1.436   .     S
C973   N1025   1.379   .     A
C973   C988    1.515   .     S
C974   C985    1.402   .     A
C974   C317    1.416   1_556 S
C974   C325    1.415   1_556 S
C975   F998    1.357   .     S
C975   N1025   1.357   .     A
C976   C989    1.503   .     S
C976   N1026   1.388   .     A
C976   C1049   1.424   .     S
C977   O1031   1.291   .     A
C977   O1032   1.293   .     A
C978   O1034   1.305   .     A
C978   O1033   1.301   .     A
C978   C980    1.455   .     S
C979   C996    1.392   .     A
C980   C996    1.398   .     A
C980   C995    1.396   .     A
C981   C982    1.403   .     A
C981   F999    1.358   .     S
C982   C317    1.402   1_556 S
C982   C324    1.502   1_556 S
C983   F1000   1.358   .     S
C984   H1023   1.105   .     S
C984   H1022   1.106   .     S
C984   H1021   1.109   .     S
C985   C994    1.420   .     A
C986   H1004   1.110   .     S
C986   H1003   1.110   .     S
C986   H1024   1.107   .     S
C987   H1005   1.111   .     S
C987   H1007   1.108   .     S
C987   H1006   1.082   .     S
C988   H1010   1.103   .     S
C988   H1009   1.108   .     S
C988   H1008   1.099   .     S
C989   H1012   1.111   .     S
C989   H1014   1.110   .     S
C989   H1011   1.090   .     S
C990   H1015   1.106   .     S
C990   H1017   1.111   .     S
C991   C995    1.390   .     A
C992   C993    1.391   .     A
C992   C313    1.400   1_556 S
C992   C325    1.418   1_556 S
C993   C994    1.388   .     A
C993   H1013   1.084   .     S
C994   F1001   1.358   .     S
C995   H1019   1.078   .     S
C996   H1002   1.083   .     S
H1016  C324    1.109   1_556 S
H1018  C313    1.081   1_556 S
N1025  Zn1035  2.037   .     S
N1026  Zn1036  2.037   .     S
O1027  Zn1035  1.979   .     S
O1028  Zn1036  1.991   .     S
O1029  Zn1035  1.956   .     S
O1030  Zn1036  1.933   .     S
O1031  Zn1035  1.991   .     S
O1032  Zn1036  1.979   .     S
O1033  Zn1035  1.933   .     S
O1034  Zn1036  1.956   .     S
C1037  O1101   1.290   .     A
C1037  O1102   1.289   .     A
C1037  C1045   1.407   .     S
C1038  C1040   1.479   .     S
C1038  C1055   1.409   .     A
C1038  C1059   1.422   .     A
C1039  C1045   1.389   .     A
C1039  H1094   1.085   .     S
C1039  C1263   1.367   .     S
C1040  O1103   1.315   .     A
C1040  O1104   1.297   .     A
C1041  C1042   1.392   .     A
C1041  F1071   1.359   .     S
C1042  C1043   1.413   .     A
C1042  C1051   1.416   .     S
C1043  C1058   1.515   .     S
C1044  C1060   1.520   .     S
C1044  C1045   1.410   .     A
C1044  C1265   1.401   .     S
C1046  C1061   1.508   .     S
C1046  N1100   1.381   .     A
C1046  C899    1.436   1_655 S
C1047  N1099   1.379   .     A
C1047  C1062   1.515   .     S
C1048  C1059   1.402   .     A
C1048  C391    1.416   1_556 S
C1048  C399    1.415   1_556 S
C1049  F1072   1.357   .     S
C1049  N1099   1.357   .     A
C1050  C1063   1.503   .     S
C1050  N1100   1.388   .     A
C1050  C901    1.424   1_655 S
C1051  O1105   1.291   .     A
C1051  O1106   1.293   .     A
C1052  O1108   1.305   .     A
C1052  O1107   1.301   .     A
C1052  C1054   1.455   .     S
C1053  C1070   1.392   .     A
C1054  C1070   1.398   .     A
C1054  C1069   1.396   .     A
C1055  C1056   1.403   .     A
C1055  F1073   1.358   .     S
C1056  C391    1.402   1_556 S
C1056  C398    1.502   1_556 S
C1057  F1074   1.358   .     S
C1058  H1097   1.105   .     S
C1058  H1096   1.106   .     S
C1058  H1095   1.109   .     S
C1059  C1068   1.420   .     A
C1060  H1078   1.110   .     S
C1060  H1077   1.110   .     S
C1060  H1098   1.107   .     S
C1061  H1079   1.111   .     S
C1061  H1081   1.108   .     S
C1061  H1080   1.082   .     S
C1062  H1084   1.103   .     S
C1062  H1083   1.108   .     S
C1062  H1082   1.099   .     S
C1063  H1086   1.111   .     S
C1063  H1088   1.110   .     S
C1063  H1085   1.090   .     S
C1064  H1089   1.106   .     S
C1064  H1091   1.111   .     S
C1065  C1069   1.390   .     A
C1066  C1067   1.391   .     A
C1066  C387    1.400   1_556 S
C1066  C399    1.418   1_556 S
C1067  C1068   1.388   .     A
C1067  H1087   1.084   .     S
C1068  F1075   1.358   .     S
C1069  H1093   1.078   .     S
C1070  H1076   1.083   .     S
H1090  C398    1.109   1_556 S
H1092  C387    1.081   1_556 S
N1099  Zn1109  2.037   .     S
N1100  Zn1110  2.037   .     S
O1101  Zn1109  1.979   .     S
O1102  Zn1110  1.991   .     S
O1103  Zn1109  1.956   .     S
O1104  Zn1110  1.933   .     S
O1105  Zn1109  1.991   .     S
O1106  Zn1110  1.979   .     S
O1107  Zn1109  1.933   .     S
O1108  Zn1110  1.956   .     S
C1111  O1175   1.290   .     A
C1111  O1176   1.289   .     A
C1111  C1119   1.407   .     S
C1112  C1114   1.479   .     S
C1112  C1129   1.409   .     A
C1112  C1133   1.422   .     A
C1113  C1119   1.389   .     A
C1113  H1168   1.085   .     S
C1113  C671    1.367   1_565 S
C1114  O1177   1.315   .     A
C1114  O1178   1.297   .     A
C1115  C1116   1.392   .     A
C1115  F1145   1.359   .     S
C1116  C1117   1.413   .     A
C1116  C1125   1.416   .     S
C1117  C1132   1.515   .     S
C1118  C1134   1.520   .     S
C1118  C1119   1.410   .     A
C1118  C673    1.401   1_565 S
C1120  C1135   1.508   .     S
C1120  N1174   1.381   .     A
C1120  C1195   1.436   .     S
C1121  N1173   1.379   .     A
C1121  C1136   1.515   .     S
C1121  C1268   1.436   1_455 S
C1122  C1133   1.402   .     A
C1122  C465    1.416   1_556 S
C1122  C473    1.415   1_556 S
C1123  F1146   1.357   .     S
C1123  N1173   1.357   .     A
C1123  C1272   1.424   1_455 S
C1124  C1137   1.503   .     S
C1124  N1174   1.388   .     A
C1124  C1197   1.424   .     S
C1125  O1179   1.291   .     A
C1125  O1180   1.293   .     A
C1126  O1182   1.305   .     A
C1126  O1181   1.301   .     A
C1126  C1128   1.455   .     S
C1127  C1144   1.392   .     A
C1128  C1144   1.398   .     A
C1128  C1143   1.396   .     A
C1129  C1130   1.403   .     A
C1129  F1147   1.358   .     S
C1130  C465    1.402   1_556 S
C1130  C472    1.502   1_556 S
C1131  F1148   1.358   .     S
C1132  H1171   1.105   .     S
C1132  H1170   1.106   .     S
C1132  H1169   1.109   .     S
C1133  C1142   1.420   .     A
C1134  H1152   1.110   .     S
C1134  H1151   1.110   .     S
C1134  H1172   1.107   .     S
C1135  H1153   1.111   .     S
C1135  H1155   1.108   .     S
C1135  H1154   1.082   .     S
C1136  H1158   1.103   .     S
C1136  H1157   1.108   .     S
C1136  H1156   1.099   .     S
C1137  H1160   1.111   .     S
C1137  H1162   1.110   .     S
C1137  H1159   1.090   .     S
C1138  H1163   1.106   .     S
C1138  H1165   1.111   .     S
C1139  C1143   1.390   .     A
C1140  C1141   1.391   .     A
C1140  C461    1.400   1_556 S
C1140  C473    1.418   1_556 S
C1141  C1142   1.388   .     A
C1141  H1161   1.084   .     S
C1142  F1149   1.358   .     S
C1143  H1167   1.078   .     S
C1144  H1150   1.083   .     S
H1164  C472    1.109   1_556 S
H1166  C461    1.081   1_556 S
N1173  Zn1183  2.037   .     S
N1174  Zn1184  2.037   .     S
O1175  Zn1183  1.979   .     S
O1176  Zn1184  1.991   .     S
O1177  Zn1183  1.956   .     S
O1178  Zn1184  1.933   .     S
O1179  Zn1183  1.991   .     S
O1180  Zn1184  1.979   .     S
O1181  Zn1183  1.933   .     S
O1182  Zn1184  1.956   .     S
C1185  O1249   1.290   .     A
C1185  O1250   1.289   .     A
C1185  C1193   1.407   .     S
C1186  C1188   1.479   .     S
C1186  C1203   1.409   .     A
C1186  C1207   1.422   .     A
C1187  C1193   1.389   .     A
C1187  H1242   1.085   .     S
C1187  C745    1.367   1_565 S
C1188  O1251   1.315   .     A
C1188  O1252   1.297   .     A
C1189  C1190   1.392   .     A
C1189  F1219   1.359   .     S
C1190  C1191   1.413   .     A
C1190  C1199   1.416   .     S
C1191  C1206   1.515   .     S
C1192  C1208   1.520   .     S
C1192  C1193   1.410   .     A
C1192  C747    1.401   1_565 S
C1194  C1209   1.508   .     S
C1194  N1248   1.381   .     A
C1194  C1269   1.436   .     S
C1195  N1247   1.379   .     A
C1195  C1210   1.515   .     S
C1196  C1207   1.402   .     A
C1196  C539    1.416   1_556 S
C1196  C547    1.415   1_556 S
C1197  F1220   1.357   .     S
C1197  N1247   1.357   .     A
C1198  C1211   1.503   .     S
C1198  N1248   1.388   .     A
C1198  C1271   1.424   .     S
C1199  O1253   1.291   .     A
C1199  O1254   1.293   .     A
C1200  O1256   1.305   .     A
C1200  O1255   1.301   .     A
C1200  C1202   1.455   .     S
C1201  C1218   1.392   .     A
C1202  C1218   1.398   .     A
C1202  C1217   1.396   .     A
C1203  C1204   1.403   .     A
C1203  F1221   1.358   .     S
C1204  C539    1.402   1_556 S
C1204  C546    1.502   1_556 S
C1205  F1222   1.358   .     S
C1206  H1245   1.105   .     S
C1206  H1244   1.106   .     S
C1206  H1243   1.109   .     S
C1207  C1216   1.420   .     A
C1208  H1226   1.110   .     S
C1208  H1225   1.110   .     S
C1208  H1246   1.107   .     S
C1209  H1227   1.111   .     S
C1209  H1229   1.108   .     S
C1209  H1228   1.082   .     S
C1210  H1232   1.103   .     S
C1210  H1231   1.108   .     S
C1210  H1230   1.099   .     S
C1211  H1234   1.111   .     S
C1211  H1236   1.110   .     S
C1211  H1233   1.090   .     S
C1212  H1237   1.106   .     S
C1212  H1239   1.111   .     S
C1213  C1217   1.390   .     A
C1214  C1215   1.391   .     A
C1214  C535    1.400   1_556 S
C1214  C547    1.418   1_556 S
C1215  C1216   1.388   .     A
C1215  H1235   1.084   .     S
C1216  F1223   1.358   .     S
C1217  H1241   1.078   .     S
C1218  H1224   1.083   .     S
H1238  C546    1.109   1_556 S
H1240  C535    1.081   1_556 S
N1247  Zn1257  2.037   .     S
N1248  Zn1258  2.037   .     S
O1249  Zn1257  1.979   .     S
O1250  Zn1258  1.991   .     S
O1251  Zn1257  1.956   .     S
O1252  Zn1258  1.933   .     S
O1253  Zn1257  1.991   .     S
O1254  Zn1258  1.979   .     S
O1255  Zn1257  1.933   .     S
O1256  Zn1258  1.956   .     S
C1259  O1323   1.290   .     A
C1259  O1324   1.289   .     A
C1259  C1267   1.407   .     S
C1260  C1262   1.479   .     S
C1260  C1277   1.409   .     A
C1260  C1281   1.422   .     A
C1261  C1267   1.389   .     A
C1261  H1316   1.085   .     S
C1261  C819    1.367   1_565 S
C1262  O1325   1.315   .     A
C1262  O1326   1.297   .     A
C1263  C1264   1.392   .     A
C1263  F1293   1.359   .     S
C1264  C1265   1.413   .     A
C1264  C1273   1.416   .     S
C1265  C1280   1.515   .     S
C1266  C1282   1.520   .     S
C1266  C1267   1.410   .     A
C1266  C821    1.401   1_565 S
C1268  C1283   1.508   .     S
C1268  N1322   1.381   .     A
C1268  C1121   1.436   1_655 S
C1269  N1321   1.379   .     A
C1269  C1284   1.515   .     S
C1270  C1281   1.402   .     A
C1270  C613    1.416   1_556 S
C1270  C621    1.415   1_556 S
C1271  F1294   1.357   .     S
C1271  N1321   1.357   .     A
C1272  C1285   1.503   .     S
C1272  N1322   1.388   .     A
C1272  C1123   1.424   1_655 S
C1273  O1327   1.291   .     A
C1273  O1328   1.293   .     A
C1274  O1330   1.305   .     A
C1274  O1329   1.301   .     A
C1274  C1276   1.455   .     S
C1275  C1292   1.392   .     A
C1276  C1292   1.398   .     A
C1276  C1291   1.396   .     A
C1277  C1278   1.403   .     A
C1277  F1295   1.358   .     S
C1278  C613    1.402   1_556 S
C1278  C620    1.502   1_556 S
C1279  F1296   1.358   .     S
C1280  H1319   1.105   .     S
C1280  H1318   1.106   .     S
C1280  H1317   1.109   .     S
C1281  C1290   1.420   .     A
C1282  H1300   1.110   .     S
C1282  H1299   1.110   .     S
C1282  H1320   1.107   .     S
C1283  H1301   1.111   .     S
C1283  H1303   1.108   .     S
C1283  H1302   1.082   .     S
C1284  H1306   1.103   .     S
C1284  H1305   1.108   .     S
C1284  H1304   1.099   .     S
C1285  H1308   1.111   .     S
C1285  H1310   1.110   .     S
C1285  H1307   1.090   .     S
C1286  H1311   1.106   .     S
C1286  H1313   1.111   .     S
C1287  C1291   1.390   .     A
C1288  C1289   1.391   .     A
C1288  C609    1.400   1_556 S
C1288  C621    1.418   1_556 S
C1289  C1290   1.388   .     A
C1289  H1309   1.084   .     S
C1290  F1297   1.358   .     S
C1291  H1315   1.078   .     S
C1292  H1298   1.083   .     S
H1312  C620    1.109   1_556 S
H1314  C609    1.081   1_556 S
N1321  Zn1331  2.037   .     S
N1322  Zn1332  2.037   .     S
O1323  Zn1331  1.979   .     S
O1324  Zn1332  1.991   .     S
O1325  Zn1331  1.956   .     S
O1326  Zn1332  1.933   .     S
O1327  Zn1331  1.991   .     S
O1328  Zn1332  1.979   .     S
O1329  Zn1331  1.933   .     S
O1330  Zn1332  1.956   .     S
