data_str_m2_o1_o10_pcu_sym.218
_audit_creation_date              2020-01-03
_audit_creation_method            'Materials Studio'
_symmetry_space_group_name_H-M    'P1'
_symmetry_Int_Tables_number       1
_symmetry_cell_setting            triclinic
loop_
_symmetry_equiv_pos_as_xyz
  x,y,z
_cell_length_a                    26.2762
_cell_length_b                    32.4847
_cell_length_c                    28.7380
_cell_angle_alpha                 89.3945
_cell_angle_beta                  96.5578
_cell_angle_gamma                 91.7339
loop_
_atom_site_label
_atom_site_type_symbol
_atom_site_fract_x
_atom_site_fract_y
_atom_site_fract_z
_atom_site_U_iso_or_equiv
_atom_site_adp_type
_atom_site_occupancy
C1     C     0.16660   0.08742   0.16679   0.00000  Uiso   1.00
C2     C     0.16674   0.24592   0.16655   0.00000  Uiso   1.00
C3     C     0.06828   0.16526   0.15524   0.00000  Uiso   1.00
C4     C     0.26505   0.16808   0.17809   0.00000  Uiso   1.00
C5     C     0.01382   0.15735   0.15141   0.00000  Uiso   1.00
C6     C     0.31951   0.17599   0.18192   0.00000  Uiso   1.00
C7     C     0.16634   0.02171   0.12442   0.00000  Uiso   1.00
C8     C     0.16699   0.31162   0.20891   0.00000  Uiso   1.00
C9     C     0.16642   0.31246   0.12428   0.00000  Uiso   1.00
C10    C     0.16691   0.02087   0.20906   0.00000  Uiso   1.00
C11    C     0.16674   0.29057   0.16651   0.00000  Uiso   1.00
C12    C     0.16660   0.04277   0.16682   0.00000  Uiso   1.00
C13    C     0.13734   0.13883   0.02270   0.00000  Uiso   1.00
C14    C     0.19599   0.19450   0.31063   0.00000  Uiso   1.00
C15    C     0.13686   0.13842   0.30654   0.00000  Uiso   1.00
C16    C     0.19647   0.19491   0.02679   0.00000  Uiso   1.00
Cu17   Cu    0.16667   0.16667   0.21355   0.00000  Uiso   1.00
Cu18   Cu    0.16667   0.16666   0.11978   0.00000  Uiso   1.00
H19    H     0.16606   0.03804   0.09134   0.00000  Uiso   1.00
H20    H     0.16727   0.29529   0.24199   0.00000  Uiso   1.00
H21    H     0.16618   0.29680   0.09116   0.00000  Uiso   1.00
H22    H     0.16715   0.03654   0.24217   0.00000  Uiso   1.00
H23    H     0.11384   0.11700   0.04012   0.00000  Uiso   1.00
H24    H     0.21949   0.21634   0.29322   0.00000  Uiso   1.00
N25    N     0.16668   0.16668   0.28403   0.00000  Uiso   1.00
N26    N     0.16665   0.16666   0.04931   0.00000  Uiso   1.00
O27    O     0.16666   0.10655   0.20625   0.00000  Uiso   1.00
O28    O     0.16667   0.22678   0.12709   0.00000  Uiso   1.00
O29    O     0.16666   0.10654   0.12706   0.00000  Uiso   1.00
O30    O     0.16667   0.22679   0.20628   0.00000  Uiso   1.00
O31    O     0.09161   0.16667   0.19712   0.00000  Uiso   1.00
O32    O     0.24172   0.16666   0.13621   0.00000  Uiso   1.00
O33    O     0.09161   0.16666   0.11793   0.00000  Uiso   1.00
O34    O     0.24172   0.16667   0.21540   0.00000  Uiso   1.00
C35    C     0.32630   0.12264   0.12022   0.00000  Uiso   1.00
H36    H     0.29097   0.10624   0.12595   0.00000  Uiso   1.00
O37    O     0.01593   0.11122   0.08828   0.00000  Uiso   1.00
C38    C     0.00703   0.21070   0.21311   0.00000  Uiso   1.00
H39    H     0.04239   0.22708   0.20742   0.00000  Uiso   1.00
O40    O     0.31736   0.22217   0.24500   0.00000  Uiso   1.00
C41    C     0.10309   0.10677   0.28074   0.00000  Uiso   1.00
H42    H     0.09179   0.10884   0.24379   0.00000  Uiso   1.00
O43    O     0.08644   0.07707   0.30130   0.00000  Uiso   1.00
C44    C     0.23024   0.22657   0.05259   0.00000  Uiso   1.00
H45    H     0.24154   0.22450   0.08955   0.00000  Uiso   1.00
O46    O     0.24688   0.25627   0.03204   0.00000  Uiso   1.00
C47    C     0.49993   0.08742   0.16679   0.00000  Uiso   1.00
C48    C     0.50007   0.24592   0.16655   0.00000  Uiso   1.00
C49    C     0.40161   0.16526   0.15524   0.00000  Uiso   1.00
C50    C     0.59839   0.16808   0.17809   0.00000  Uiso   1.00
C51    C     0.34716   0.15735   0.15141   0.00000  Uiso   1.00
C52    C     0.65284   0.17599   0.18192   0.00000  Uiso   1.00
C53    C     0.49967   0.02171   0.12442   0.00000  Uiso   1.00
C54    C     0.50033   0.31162   0.20891   0.00000  Uiso   1.00
C55    C     0.49975   0.31246   0.12428   0.00000  Uiso   1.00
C56    C     0.50025   0.02087   0.20906   0.00000  Uiso   1.00
C57    C     0.50007   0.29057   0.16651   0.00000  Uiso   1.00
C58    C     0.49993   0.04277   0.16682   0.00000  Uiso   1.00
C59    C     0.47068   0.13883   0.02270   0.00000  Uiso   1.00
C60    C     0.52932   0.19450   0.31063   0.00000  Uiso   1.00
C61    C     0.47020   0.13842   0.30654   0.00000  Uiso   1.00
C62    C     0.52980   0.19491   0.02679   0.00000  Uiso   1.00
Cu63   Cu    0.50000   0.16667   0.21355   0.00000  Uiso   1.00
Cu64   Cu    0.50000   0.16666   0.11978   0.00000  Uiso   1.00
H65    H     0.49940   0.03804   0.09134   0.00000  Uiso   1.00
H66    H     0.50060   0.29529   0.24199   0.00000  Uiso   1.00
H67    H     0.49951   0.29680   0.09116   0.00000  Uiso   1.00
H68    H     0.50049   0.03654   0.24217   0.00000  Uiso   1.00
H69    H     0.44717   0.11700   0.04012   0.00000  Uiso   1.00
H70    H     0.55282   0.21634   0.29322   0.00000  Uiso   1.00
N71    N     0.50001   0.16668   0.28403   0.00000  Uiso   1.00
N72    N     0.49999   0.16666   0.04931   0.00000  Uiso   1.00
O73    O     0.50000   0.10655   0.20625   0.00000  Uiso   1.00
O74    O     0.50000   0.22678   0.12709   0.00000  Uiso   1.00
O75    O     0.50000   0.10654   0.12706   0.00000  Uiso   1.00
O76    O     0.50000   0.22679   0.20628   0.00000  Uiso   1.00
O77    O     0.42495   0.16667   0.19712   0.00000  Uiso   1.00
O78    O     0.57505   0.16666   0.13621   0.00000  Uiso   1.00
O79    O     0.42494   0.16666   0.11793   0.00000  Uiso   1.00
O80    O     0.57506   0.16667   0.21540   0.00000  Uiso   1.00
C81    C     0.65964   0.12264   0.12022   0.00000  Uiso   1.00
H82    H     0.62430   0.10624   0.12595   0.00000  Uiso   1.00
O83    O     0.34926   0.11122   0.08828   0.00000  Uiso   1.00
C84    C     0.34036   0.21070   0.21311   0.00000  Uiso   1.00
H85    H     0.37572   0.22708   0.20742   0.00000  Uiso   1.00
O86    O     0.65069   0.22217   0.24500   0.00000  Uiso   1.00
C87    C     0.43643   0.10677   0.28074   0.00000  Uiso   1.00
H88    H     0.42513   0.10884   0.24379   0.00000  Uiso   1.00
O89    O     0.41977   0.07707   0.30130   0.00000  Uiso   1.00
C90    C     0.56357   0.22657   0.05259   0.00000  Uiso   1.00
H91    H     0.57488   0.22450   0.08955   0.00000  Uiso   1.00
O92    O     0.58021   0.25627   0.03204   0.00000  Uiso   1.00
C93    C     0.83326   0.08742   0.16679   0.00000  Uiso   1.00
C94    C     0.83340   0.24592   0.16655   0.00000  Uiso   1.00
C95    C     0.73494   0.16526   0.15524   0.00000  Uiso   1.00
C96    C     0.93172   0.16808   0.17809   0.00000  Uiso   1.00
C97    C     0.68049   0.15735   0.15141   0.00000  Uiso   1.00
C98    C     0.98617   0.17599   0.18192   0.00000  Uiso   1.00
C99    C     0.83301   0.02171   0.12442   0.00000  Uiso   1.00
C100   C     0.83366   0.31162   0.20891   0.00000  Uiso   1.00
C101   C     0.83308   0.31246   0.12428   0.00000  Uiso   1.00
C102   C     0.83358   0.02087   0.20906   0.00000  Uiso   1.00
C103   C     0.83340   0.29057   0.16651   0.00000  Uiso   1.00
C104   C     0.83326   0.04277   0.16682   0.00000  Uiso   1.00
C105   C     0.80401   0.13883   0.02270   0.00000  Uiso   1.00
C106   C     0.86266   0.19450   0.31063   0.00000  Uiso   1.00
C107   C     0.80353   0.13842   0.30654   0.00000  Uiso   1.00
C108   C     0.86313   0.19491   0.02679   0.00000  Uiso   1.00
Cu109  Cu    0.83333   0.16667   0.21355   0.00000  Uiso   1.00
Cu110  Cu    0.83333   0.16666   0.11978   0.00000  Uiso   1.00
H111   H     0.83273   0.03804   0.09134   0.00000  Uiso   1.00
H112   H     0.83394   0.29529   0.24199   0.00000  Uiso   1.00
H113   H     0.83285   0.29680   0.09116   0.00000  Uiso   1.00
H114   H     0.83382   0.03654   0.24217   0.00000  Uiso   1.00
H115   H     0.78051   0.11700   0.04012   0.00000  Uiso   1.00
H116   H     0.88616   0.21634   0.29322   0.00000  Uiso   1.00
N117   N     0.83335   0.16668   0.28403   0.00000  Uiso   1.00
N118   N     0.83332   0.16666   0.04931   0.00000  Uiso   1.00
O119   O     0.83333   0.10655   0.20625   0.00000  Uiso   1.00
O120   O     0.83334   0.22678   0.12709   0.00000  Uiso   1.00
O121   O     0.83333   0.10654   0.12706   0.00000  Uiso   1.00
O122   O     0.83334   0.22679   0.20628   0.00000  Uiso   1.00
O123   O     0.75828   0.16667   0.19712   0.00000  Uiso   1.00
O124   O     0.90839   0.16666   0.13621   0.00000  Uiso   1.00
O125   O     0.75828   0.16666   0.11793   0.00000  Uiso   1.00
O126   O     0.90839   0.16667   0.21540   0.00000  Uiso   1.00
C127   C     0.99297   0.12264   0.12022   0.00000  Uiso   1.00
H128   H     0.95763   0.10624   0.12595   0.00000  Uiso   1.00
O129   O     0.68260   0.11122   0.08828   0.00000  Uiso   1.00
C130   C     0.67369   0.21070   0.21311   0.00000  Uiso   1.00
H131   H     0.70906   0.22708   0.20742   0.00000  Uiso   1.00
O132   O     0.98402   0.22217   0.24500   0.00000  Uiso   1.00
C133   C     0.76976   0.10677   0.28074   0.00000  Uiso   1.00
H134   H     0.75846   0.10884   0.24379   0.00000  Uiso   1.00
O135   O     0.75310   0.07707   0.30130   0.00000  Uiso   1.00
C136   C     0.89690   0.22657   0.05259   0.00000  Uiso   1.00
H137   H     0.90821   0.22450   0.08955   0.00000  Uiso   1.00
O138   O     0.91355   0.25627   0.03204   0.00000  Uiso   1.00
C139   C     0.16660   0.42075   0.16679   0.00000  Uiso   1.00
C140   C     0.16674   0.57925   0.16655   0.00000  Uiso   1.00
C141   C     0.06828   0.49859   0.15524   0.00000  Uiso   1.00
C142   C     0.26505   0.50141   0.17809   0.00000  Uiso   1.00
C143   C     0.01382   0.49069   0.15141   0.00000  Uiso   1.00
C144   C     0.31951   0.50932   0.18192   0.00000  Uiso   1.00
C145   C     0.16634   0.35505   0.12442   0.00000  Uiso   1.00
C146   C     0.16699   0.64495   0.20891   0.00000  Uiso   1.00
C147   C     0.16642   0.64579   0.12428   0.00000  Uiso   1.00
C148   C     0.16691   0.35421   0.20906   0.00000  Uiso   1.00
C149   C     0.16674   0.62390   0.16651   0.00000  Uiso   1.00
C150   C     0.16660   0.37610   0.16682   0.00000  Uiso   1.00
C151   C     0.13734   0.47217   0.02270   0.00000  Uiso   1.00
C152   C     0.19599   0.52783   0.31063   0.00000  Uiso   1.00
C153   C     0.13686   0.47176   0.30654   0.00000  Uiso   1.00
C154   C     0.19647   0.52824   0.02679   0.00000  Uiso   1.00
Cu155  Cu    0.16667   0.50001   0.21355   0.00000  Uiso   1.00
Cu156  Cu    0.16667   0.49999   0.11978   0.00000  Uiso   1.00
H157   H     0.16606   0.37138   0.09134   0.00000  Uiso   1.00
H158   H     0.16727   0.62862   0.24199   0.00000  Uiso   1.00
H159   H     0.16618   0.63013   0.09116   0.00000  Uiso   1.00
H160   H     0.16715   0.36987   0.24217   0.00000  Uiso   1.00
H161   H     0.11384   0.45033   0.04012   0.00000  Uiso   1.00
H162   H     0.21949   0.54967   0.29322   0.00000  Uiso   1.00
N163   N     0.16668   0.50001   0.28403   0.00000  Uiso   1.00
N164   N     0.16665   0.49999   0.04931   0.00000  Uiso   1.00
O165   O     0.16666   0.43989   0.20625   0.00000  Uiso   1.00
O166   O     0.16667   0.56011   0.12709   0.00000  Uiso   1.00
O167   O     0.16666   0.43988   0.12706   0.00000  Uiso   1.00
O168   O     0.16667   0.56012   0.20628   0.00000  Uiso   1.00
O169   O     0.09161   0.50000   0.19712   0.00000  Uiso   1.00
O170   O     0.24172   0.50000   0.13621   0.00000  Uiso   1.00
O171   O     0.09161   0.49999   0.11793   0.00000  Uiso   1.00
O172   O     0.24172   0.50001   0.21540   0.00000  Uiso   1.00
C173   C     0.32630   0.45598   0.12022   0.00000  Uiso   1.00
H174   H     0.29097   0.43957   0.12595   0.00000  Uiso   1.00
O175   O     0.01593   0.44455   0.08828   0.00000  Uiso   1.00
C176   C     0.00703   0.54403   0.21311   0.00000  Uiso   1.00
H177   H     0.04239   0.56041   0.20742   0.00000  Uiso   1.00
O178   O     0.31736   0.55551   0.24500   0.00000  Uiso   1.00
C179   C     0.10309   0.44010   0.28074   0.00000  Uiso   1.00
H180   H     0.09179   0.44217   0.24379   0.00000  Uiso   1.00
O181   O     0.08644   0.41040   0.30130   0.00000  Uiso   1.00
C182   C     0.23024   0.55990   0.05259   0.00000  Uiso   1.00
H183   H     0.24154   0.55783   0.08955   0.00000  Uiso   1.00
O184   O     0.24688   0.58961   0.03204   0.00000  Uiso   1.00
C185   C     0.49993   0.42075   0.16679   0.00000  Uiso   1.00
C186   C     0.50007   0.57925   0.16655   0.00000  Uiso   1.00
C187   C     0.40161   0.49859   0.15524   0.00000  Uiso   1.00
C188   C     0.59839   0.50141   0.17809   0.00000  Uiso   1.00
C189   C     0.34716   0.49069   0.15141   0.00000  Uiso   1.00
C190   C     0.65284   0.50932   0.18192   0.00000  Uiso   1.00
C191   C     0.49967   0.35505   0.12442   0.00000  Uiso   1.00
C192   C     0.50033   0.64495   0.20891   0.00000  Uiso   1.00
C193   C     0.49975   0.64579   0.12428   0.00000  Uiso   1.00
C194   C     0.50025   0.35421   0.20906   0.00000  Uiso   1.00
C195   C     0.50007   0.62390   0.16651   0.00000  Uiso   1.00
C196   C     0.49993   0.37610   0.16682   0.00000  Uiso   1.00
C197   C     0.47068   0.47217   0.02270   0.00000  Uiso   1.00
C198   C     0.52932   0.52783   0.31063   0.00000  Uiso   1.00
C199   C     0.47020   0.47176   0.30654   0.00000  Uiso   1.00
C200   C     0.52980   0.52824   0.02679   0.00000  Uiso   1.00
Cu201  Cu    0.50000   0.50001   0.21355   0.00000  Uiso   1.00
Cu202  Cu    0.50000   0.49999   0.11978   0.00000  Uiso   1.00
H203   H     0.49940   0.37138   0.09134   0.00000  Uiso   1.00
H204   H     0.50060   0.62862   0.24199   0.00000  Uiso   1.00
H205   H     0.49951   0.63013   0.09116   0.00000  Uiso   1.00
H206   H     0.50049   0.36987   0.24217   0.00000  Uiso   1.00
H207   H     0.44717   0.45033   0.04012   0.00000  Uiso   1.00
H208   H     0.55282   0.54967   0.29322   0.00000  Uiso   1.00
N209   N     0.50001   0.50001   0.28403   0.00000  Uiso   1.00
N210   N     0.49999   0.49999   0.04931   0.00000  Uiso   1.00
O211   O     0.50000   0.43989   0.20625   0.00000  Uiso   1.00
O212   O     0.50000   0.56011   0.12709   0.00000  Uiso   1.00
O213   O     0.50000   0.43988   0.12706   0.00000  Uiso   1.00
O214   O     0.50000   0.56012   0.20628   0.00000  Uiso   1.00
O215   O     0.42495   0.50000   0.19712   0.00000  Uiso   1.00
O216   O     0.57505   0.50000   0.13621   0.00000  Uiso   1.00
O217   O     0.42494   0.49999   0.11793   0.00000  Uiso   1.00
O218   O     0.57506   0.50001   0.21540   0.00000  Uiso   1.00
C219   C     0.65964   0.45598   0.12022   0.00000  Uiso   1.00
H220   H     0.62430   0.43957   0.12595   0.00000  Uiso   1.00
O221   O     0.34926   0.44455   0.08828   0.00000  Uiso   1.00
C222   C     0.34036   0.54403   0.21311   0.00000  Uiso   1.00
H223   H     0.37572   0.56041   0.20742   0.00000  Uiso   1.00
O224   O     0.65069   0.55551   0.24500   0.00000  Uiso   1.00
C225   C     0.43643   0.44010   0.28074   0.00000  Uiso   1.00
H226   H     0.42513   0.44217   0.24379   0.00000  Uiso   1.00
O227   O     0.41977   0.41040   0.30130   0.00000  Uiso   1.00
C228   C     0.56357   0.55990   0.05259   0.00000  Uiso   1.00
H229   H     0.57488   0.55783   0.08955   0.00000  Uiso   1.00
O230   O     0.58021   0.58961   0.03204   0.00000  Uiso   1.00
C231   C     0.83326   0.42075   0.16679   0.00000  Uiso   1.00
C232   C     0.83340   0.57925   0.16655   0.00000  Uiso   1.00
C233   C     0.73494   0.49859   0.15524   0.00000  Uiso   1.00
C234   C     0.93172   0.50141   0.17809   0.00000  Uiso   1.00
C235   C     0.68049   0.49069   0.15141   0.00000  Uiso   1.00
C236   C     0.98617   0.50932   0.18192   0.00000  Uiso   1.00
C237   C     0.83301   0.35505   0.12442   0.00000  Uiso   1.00
C238   C     0.83366   0.64495   0.20891   0.00000  Uiso   1.00
C239   C     0.83308   0.64579   0.12428   0.00000  Uiso   1.00
C240   C     0.83358   0.35421   0.20906   0.00000  Uiso   1.00
C241   C     0.83340   0.62390   0.16651   0.00000  Uiso   1.00
C242   C     0.83326   0.37610   0.16682   0.00000  Uiso   1.00
C243   C     0.80401   0.47217   0.02270   0.00000  Uiso   1.00
C244   C     0.86266   0.52783   0.31063   0.00000  Uiso   1.00
C245   C     0.80353   0.47176   0.30654   0.00000  Uiso   1.00
C246   C     0.86313   0.52824   0.02679   0.00000  Uiso   1.00
Cu247  Cu    0.83333   0.50001   0.21355   0.00000  Uiso   1.00
Cu248  Cu    0.83333   0.49999   0.11978   0.00000  Uiso   1.00
H249   H     0.83273   0.37138   0.09134   0.00000  Uiso   1.00
H250   H     0.83394   0.62862   0.24199   0.00000  Uiso   1.00
H251   H     0.83285   0.63013   0.09116   0.00000  Uiso   1.00
H252   H     0.83382   0.36987   0.24217   0.00000  Uiso   1.00
H253   H     0.78051   0.45033   0.04012   0.00000  Uiso   1.00
H254   H     0.88616   0.54967   0.29322   0.00000  Uiso   1.00
N255   N     0.83335   0.50001   0.28403   0.00000  Uiso   1.00
N256   N     0.83332   0.49999   0.04931   0.00000  Uiso   1.00
O257   O     0.83333   0.43989   0.20625   0.00000  Uiso   1.00
O258   O     0.83334   0.56011   0.12709   0.00000  Uiso   1.00
O259   O     0.83333   0.43988   0.12706   0.00000  Uiso   1.00
O260   O     0.83334   0.56012   0.20628   0.00000  Uiso   1.00
O261   O     0.75828   0.50000   0.19712   0.00000  Uiso   1.00
O262   O     0.90839   0.50000   0.13621   0.00000  Uiso   1.00
O263   O     0.75828   0.49999   0.11793   0.00000  Uiso   1.00
O264   O     0.90839   0.50001   0.21540   0.00000  Uiso   1.00
C265   C     0.99297   0.45598   0.12022   0.00000  Uiso   1.00
H266   H     0.95763   0.43957   0.12595   0.00000  Uiso   1.00
O267   O     0.68260   0.44455   0.08828   0.00000  Uiso   1.00
C268   C     0.67369   0.54403   0.21311   0.00000  Uiso   1.00
H269   H     0.70906   0.56041   0.20742   0.00000  Uiso   1.00
O270   O     0.98402   0.55551   0.24500   0.00000  Uiso   1.00
C271   C     0.76976   0.44010   0.28074   0.00000  Uiso   1.00
H272   H     0.75846   0.44217   0.24379   0.00000  Uiso   1.00
O273   O     0.75310   0.41040   0.30130   0.00000  Uiso   1.00
C274   C     0.89690   0.55990   0.05259   0.00000  Uiso   1.00
H275   H     0.90821   0.55783   0.08955   0.00000  Uiso   1.00
O276   O     0.91355   0.58961   0.03204   0.00000  Uiso   1.00
C277   C     0.16660   0.75409   0.16679   0.00000  Uiso   1.00
C278   C     0.16674   0.91258   0.16655   0.00000  Uiso   1.00
C279   C     0.06828   0.83192   0.15524   0.00000  Uiso   1.00
C280   C     0.26505   0.83475   0.17809   0.00000  Uiso   1.00
C281   C     0.01382   0.82402   0.15141   0.00000  Uiso   1.00
C282   C     0.31951   0.84266   0.18192   0.00000  Uiso   1.00
C283   C     0.16634   0.68838   0.12442   0.00000  Uiso   1.00
C284   C     0.16699   0.97829   0.20891   0.00000  Uiso   1.00
C285   C     0.16642   0.97913   0.12428   0.00000  Uiso   1.00
C286   C     0.16691   0.68754   0.20906   0.00000  Uiso   1.00
C287   C     0.16674   0.95723   0.16651   0.00000  Uiso   1.00
C288   C     0.16660   0.70943   0.16682   0.00000  Uiso   1.00
C289   C     0.13734   0.80550   0.02270   0.00000  Uiso   1.00
C290   C     0.19599   0.86117   0.31063   0.00000  Uiso   1.00
C291   C     0.13686   0.80509   0.30654   0.00000  Uiso   1.00
C292   C     0.19647   0.86158   0.02679   0.00000  Uiso   1.00
Cu293  Cu    0.16667   0.83334   0.21355   0.00000  Uiso   1.00
Cu294  Cu    0.16667   0.83333   0.11978   0.00000  Uiso   1.00
H295   H     0.16606   0.70471   0.09134   0.00000  Uiso   1.00
H296   H     0.16727   0.96196   0.24199   0.00000  Uiso   1.00
H297   H     0.16618   0.96346   0.09116   0.00000  Uiso   1.00
H298   H     0.16715   0.70320   0.24217   0.00000  Uiso   1.00
H299   H     0.11384   0.78366   0.04012   0.00000  Uiso   1.00
H300   H     0.21949   0.88300   0.29322   0.00000  Uiso   1.00
N301   N     0.16668   0.83334   0.28403   0.00000  Uiso   1.00
N302   N     0.16665   0.83332   0.04931   0.00000  Uiso   1.00
O303   O     0.16666   0.77322   0.20625   0.00000  Uiso   1.00
O304   O     0.16667   0.89345   0.12709   0.00000  Uiso   1.00
O305   O     0.16666   0.77321   0.12706   0.00000  Uiso   1.00
O306   O     0.16667   0.89346   0.20628   0.00000  Uiso   1.00
O307   O     0.09161   0.83334   0.19712   0.00000  Uiso   1.00
O308   O     0.24172   0.83333   0.13621   0.00000  Uiso   1.00
O309   O     0.09161   0.83333   0.11793   0.00000  Uiso   1.00
O310   O     0.24172   0.83334   0.21540   0.00000  Uiso   1.00
C311   C     0.32630   0.78931   0.12022   0.00000  Uiso   1.00
H312   H     0.29097   0.77291   0.12595   0.00000  Uiso   1.00
O313   O     0.01593   0.77788   0.08828   0.00000  Uiso   1.00
C314   C     0.00703   0.87737   0.21311   0.00000  Uiso   1.00
H315   H     0.04239   0.89375   0.20742   0.00000  Uiso   1.00
O316   O     0.31736   0.88884   0.24500   0.00000  Uiso   1.00
C317   C     0.10309   0.77344   0.28074   0.00000  Uiso   1.00
H318   H     0.09179   0.77550   0.24379   0.00000  Uiso   1.00
O319   O     0.08644   0.74374   0.30130   0.00000  Uiso   1.00
C320   C     0.23024   0.89323   0.05259   0.00000  Uiso   1.00
H321   H     0.24154   0.89116   0.08955   0.00000  Uiso   1.00
O322   O     0.24688   0.92294   0.03204   0.00000  Uiso   1.00
C323   C     0.49993   0.75409   0.16679   0.00000  Uiso   1.00
C324   C     0.50007   0.91258   0.16655   0.00000  Uiso   1.00
C325   C     0.40161   0.83192   0.15524   0.00000  Uiso   1.00
C326   C     0.59839   0.83475   0.17809   0.00000  Uiso   1.00
C327   C     0.34716   0.82402   0.15141   0.00000  Uiso   1.00
C328   C     0.65284   0.84266   0.18192   0.00000  Uiso   1.00
C329   C     0.49967   0.68838   0.12442   0.00000  Uiso   1.00
C330   C     0.50033   0.97829   0.20891   0.00000  Uiso   1.00
C331   C     0.49975   0.97913   0.12428   0.00000  Uiso   1.00
C332   C     0.50025   0.68754   0.20906   0.00000  Uiso   1.00
C333   C     0.50007   0.95723   0.16651   0.00000  Uiso   1.00
C334   C     0.49993   0.70943   0.16682   0.00000  Uiso   1.00
C335   C     0.47068   0.80550   0.02270   0.00000  Uiso   1.00
C336   C     0.52932   0.86117   0.31063   0.00000  Uiso   1.00
C337   C     0.47020   0.80509   0.30654   0.00000  Uiso   1.00
C338   C     0.52980   0.86158   0.02679   0.00000  Uiso   1.00
Cu339  Cu    0.50000   0.83334   0.21355   0.00000  Uiso   1.00
Cu340  Cu    0.50000   0.83333   0.11978   0.00000  Uiso   1.00
H341   H     0.49940   0.70471   0.09134   0.00000  Uiso   1.00
H342   H     0.50060   0.96196   0.24199   0.00000  Uiso   1.00
H343   H     0.49951   0.96346   0.09116   0.00000  Uiso   1.00
H344   H     0.50049   0.70320   0.24217   0.00000  Uiso   1.00
H345   H     0.44717   0.78366   0.04012   0.00000  Uiso   1.00
H346   H     0.55282   0.88300   0.29322   0.00000  Uiso   1.00
N347   N     0.50001   0.83334   0.28403   0.00000  Uiso   1.00
N348   N     0.49999   0.83332   0.04931   0.00000  Uiso   1.00
O349   O     0.50000   0.77322   0.20625   0.00000  Uiso   1.00
O350   O     0.50000   0.89345   0.12709   0.00000  Uiso   1.00
O351   O     0.50000   0.77321   0.12706   0.00000  Uiso   1.00
O352   O     0.50000   0.89346   0.20628   0.00000  Uiso   1.00
O353   O     0.42495   0.83334   0.19712   0.00000  Uiso   1.00
O354   O     0.57505   0.83333   0.13621   0.00000  Uiso   1.00
O355   O     0.42494   0.83333   0.11793   0.00000  Uiso   1.00
O356   O     0.57506   0.83334   0.21540   0.00000  Uiso   1.00
C357   C     0.65964   0.78931   0.12022   0.00000  Uiso   1.00
H358   H     0.62430   0.77291   0.12595   0.00000  Uiso   1.00
O359   O     0.34926   0.77788   0.08828   0.00000  Uiso   1.00
C360   C     0.34036   0.87737   0.21311   0.00000  Uiso   1.00
H361   H     0.37572   0.89375   0.20742   0.00000  Uiso   1.00
O362   O     0.65069   0.88884   0.24500   0.00000  Uiso   1.00
C363   C     0.43643   0.77344   0.28074   0.00000  Uiso   1.00
H364   H     0.42513   0.77550   0.24379   0.00000  Uiso   1.00
O365   O     0.41977   0.74374   0.30130   0.00000  Uiso   1.00
C366   C     0.56357   0.89323   0.05259   0.00000  Uiso   1.00
H367   H     0.57488   0.89116   0.08955   0.00000  Uiso   1.00
O368   O     0.58021   0.92294   0.03204   0.00000  Uiso   1.00
C369   C     0.83326   0.75409   0.16679   0.00000  Uiso   1.00
C370   C     0.83340   0.91258   0.16655   0.00000  Uiso   1.00
C371   C     0.73494   0.83192   0.15524   0.00000  Uiso   1.00
C372   C     0.93172   0.83475   0.17809   0.00000  Uiso   1.00
C373   C     0.68049   0.82402   0.15141   0.00000  Uiso   1.00
C374   C     0.98617   0.84266   0.18192   0.00000  Uiso   1.00
C375   C     0.83301   0.68838   0.12442   0.00000  Uiso   1.00
C376   C     0.83366   0.97829   0.20891   0.00000  Uiso   1.00
C377   C     0.83308   0.97913   0.12428   0.00000  Uiso   1.00
C378   C     0.83358   0.68754   0.20906   0.00000  Uiso   1.00
C379   C     0.83340   0.95723   0.16651   0.00000  Uiso   1.00
C380   C     0.83326   0.70943   0.16682   0.00000  Uiso   1.00
C381   C     0.80401   0.80550   0.02270   0.00000  Uiso   1.00
C382   C     0.86266   0.86117   0.31063   0.00000  Uiso   1.00
C383   C     0.80353   0.80509   0.30654   0.00000  Uiso   1.00
C384   C     0.86313   0.86158   0.02679   0.00000  Uiso   1.00
Cu385  Cu    0.83333   0.83334   0.21355   0.00000  Uiso   1.00
Cu386  Cu    0.83333   0.83333   0.11978   0.00000  Uiso   1.00
H387   H     0.83273   0.70471   0.09134   0.00000  Uiso   1.00
H388   H     0.83394   0.96196   0.24199   0.00000  Uiso   1.00
H389   H     0.83285   0.96346   0.09116   0.00000  Uiso   1.00
H390   H     0.83382   0.70320   0.24217   0.00000  Uiso   1.00
H391   H     0.78051   0.78366   0.04012   0.00000  Uiso   1.00
H392   H     0.88616   0.88300   0.29322   0.00000  Uiso   1.00
N393   N     0.83335   0.83334   0.28403   0.00000  Uiso   1.00
N394   N     0.83332   0.83332   0.04931   0.00000  Uiso   1.00
O395   O     0.83333   0.77322   0.20625   0.00000  Uiso   1.00
O396   O     0.83334   0.89345   0.12709   0.00000  Uiso   1.00
O397   O     0.83333   0.77321   0.12706   0.00000  Uiso   1.00
O398   O     0.83334   0.89346   0.20628   0.00000  Uiso   1.00
O399   O     0.75828   0.83334   0.19712   0.00000  Uiso   1.00
O400   O     0.90839   0.83333   0.13621   0.00000  Uiso   1.00
O401   O     0.75828   0.83333   0.11793   0.00000  Uiso   1.00
O402   O     0.90839   0.83334   0.21540   0.00000  Uiso   1.00
C403   C     0.99297   0.78931   0.12022   0.00000  Uiso   1.00
H404   H     0.95763   0.77291   0.12595   0.00000  Uiso   1.00
O405   O     0.68260   0.77788   0.08828   0.00000  Uiso   1.00
C406   C     0.67369   0.87737   0.21311   0.00000  Uiso   1.00
H407   H     0.70906   0.89375   0.20742   0.00000  Uiso   1.00
O408   O     0.98402   0.88884   0.24500   0.00000  Uiso   1.00
C409   C     0.76976   0.77344   0.28074   0.00000  Uiso   1.00
H410   H     0.75846   0.77550   0.24379   0.00000  Uiso   1.00
O411   O     0.75310   0.74374   0.30130   0.00000  Uiso   1.00
C412   C     0.89690   0.89323   0.05259   0.00000  Uiso   1.00
H413   H     0.90821   0.89116   0.08955   0.00000  Uiso   1.00
O414   O     0.91355   0.92294   0.03204   0.00000  Uiso   1.00
C415   C     0.16660   0.08742   0.50012   0.00000  Uiso   1.00
C416   C     0.16674   0.24592   0.49988   0.00000  Uiso   1.00
C417   C     0.06828   0.16526   0.48858   0.00000  Uiso   1.00
C418   C     0.26505   0.16808   0.51142   0.00000  Uiso   1.00
C419   C     0.01382   0.15735   0.48475   0.00000  Uiso   1.00
C420   C     0.31951   0.17599   0.51525   0.00000  Uiso   1.00
C421   C     0.16634   0.02171   0.45776   0.00000  Uiso   1.00
C422   C     0.16699   0.31162   0.54224   0.00000  Uiso   1.00
C423   C     0.16642   0.31246   0.45761   0.00000  Uiso   1.00
C424   C     0.16691   0.02087   0.54239   0.00000  Uiso   1.00
C425   C     0.16674   0.29057   0.49984   0.00000  Uiso   1.00
C426   C     0.16660   0.04277   0.50016   0.00000  Uiso   1.00
C427   C     0.13734   0.13883   0.35603   0.00000  Uiso   1.00
C428   C     0.19599   0.19450   0.64397   0.00000  Uiso   1.00
C429   C     0.13686   0.13842   0.63987   0.00000  Uiso   1.00
C430   C     0.19647   0.19491   0.36013   0.00000  Uiso   1.00
Cu431  Cu    0.16667   0.16667   0.54689   0.00000  Uiso   1.00
Cu432  Cu    0.16667   0.16666   0.45311   0.00000  Uiso   1.00
H433   H     0.16606   0.03804   0.42467   0.00000  Uiso   1.00
H434   H     0.16727   0.29529   0.57533   0.00000  Uiso   1.00
H435   H     0.16618   0.29680   0.42450   0.00000  Uiso   1.00
H436   H     0.16715   0.03654   0.57550   0.00000  Uiso   1.00
H437   H     0.11384   0.11700   0.37345   0.00000  Uiso   1.00
H438   H     0.21949   0.21634   0.62655   0.00000  Uiso   1.00
N439   N     0.16668   0.16668   0.61736   0.00000  Uiso   1.00
N440   N     0.16665   0.16666   0.38264   0.00000  Uiso   1.00
O441   O     0.16666   0.10655   0.53958   0.00000  Uiso   1.00
O442   O     0.16667   0.22678   0.46042   0.00000  Uiso   1.00
O443   O     0.16666   0.10654   0.46039   0.00000  Uiso   1.00
O444   O     0.16667   0.22679   0.53961   0.00000  Uiso   1.00
O445   O     0.09161   0.16667   0.53046   0.00000  Uiso   1.00
O446   O     0.24172   0.16666   0.46954   0.00000  Uiso   1.00
O447   O     0.09161   0.16666   0.45127   0.00000  Uiso   1.00
O448   O     0.24172   0.16667   0.54873   0.00000  Uiso   1.00
C449   C     0.32630   0.12264   0.45355   0.00000  Uiso   1.00
H450   H     0.29097   0.10624   0.45928   0.00000  Uiso   1.00
O451   O     0.01593   0.11122   0.42161   0.00000  Uiso   1.00
C452   C     0.00703   0.21070   0.54644   0.00000  Uiso   1.00
H453   H     0.04239   0.22708   0.54075   0.00000  Uiso   1.00
O454   O     0.31736   0.22217   0.57834   0.00000  Uiso   1.00
C455   C     0.10309   0.10677   0.61408   0.00000  Uiso   1.00
H456   H     0.09179   0.10884   0.57712   0.00000  Uiso   1.00
O457   O     0.08644   0.07707   0.63463   0.00000  Uiso   1.00
C458   C     0.23024   0.22657   0.38592   0.00000  Uiso   1.00
H459   H     0.24154   0.22450   0.42288   0.00000  Uiso   1.00
O460   O     0.24688   0.25627   0.36537   0.00000  Uiso   1.00
C461   C     0.49993   0.08742   0.50012   0.00000  Uiso   1.00
C462   C     0.50007   0.24592   0.49988   0.00000  Uiso   1.00
C463   C     0.40161   0.16526   0.48858   0.00000  Uiso   1.00
C464   C     0.59839   0.16808   0.51142   0.00000  Uiso   1.00
C465   C     0.34716   0.15735   0.48475   0.00000  Uiso   1.00
C466   C     0.65284   0.17599   0.51525   0.00000  Uiso   1.00
C467   C     0.49967   0.02171   0.45776   0.00000  Uiso   1.00
C468   C     0.50033   0.31162   0.54224   0.00000  Uiso   1.00
C469   C     0.49975   0.31246   0.45761   0.00000  Uiso   1.00
C470   C     0.50025   0.02087   0.54239   0.00000  Uiso   1.00
C471   C     0.50007   0.29057   0.49984   0.00000  Uiso   1.00
C472   C     0.49993   0.04277   0.50016   0.00000  Uiso   1.00
C473   C     0.47068   0.13883   0.35603   0.00000  Uiso   1.00
C474   C     0.52932   0.19450   0.64397   0.00000  Uiso   1.00
C475   C     0.47020   0.13842   0.63987   0.00000  Uiso   1.00
C476   C     0.52980   0.19491   0.36013   0.00000  Uiso   1.00
Cu477  Cu    0.50000   0.16667   0.54689   0.00000  Uiso   1.00
Cu478  Cu    0.50000   0.16666   0.45311   0.00000  Uiso   1.00
H479   H     0.49940   0.03804   0.42467   0.00000  Uiso   1.00
H480   H     0.50060   0.29529   0.57533   0.00000  Uiso   1.00
H481   H     0.49951   0.29680   0.42450   0.00000  Uiso   1.00
H482   H     0.50049   0.03654   0.57550   0.00000  Uiso   1.00
H483   H     0.44717   0.11700   0.37345   0.00000  Uiso   1.00
H484   H     0.55282   0.21634   0.62655   0.00000  Uiso   1.00
N485   N     0.50001   0.16668   0.61736   0.00000  Uiso   1.00
N486   N     0.49999   0.16666   0.38264   0.00000  Uiso   1.00
O487   O     0.50000   0.10655   0.53958   0.00000  Uiso   1.00
O488   O     0.50000   0.22678   0.46042   0.00000  Uiso   1.00
O489   O     0.50000   0.10654   0.46039   0.00000  Uiso   1.00
O490   O     0.50000   0.22679   0.53961   0.00000  Uiso   1.00
O491   O     0.42495   0.16667   0.53046   0.00000  Uiso   1.00
O492   O     0.57505   0.16666   0.46954   0.00000  Uiso   1.00
O493   O     0.42494   0.16666   0.45127   0.00000  Uiso   1.00
O494   O     0.57506   0.16667   0.54873   0.00000  Uiso   1.00
C495   C     0.65964   0.12264   0.45355   0.00000  Uiso   1.00
H496   H     0.62430   0.10624   0.45928   0.00000  Uiso   1.00
O497   O     0.34926   0.11122   0.42161   0.00000  Uiso   1.00
C498   C     0.34036   0.21070   0.54644   0.00000  Uiso   1.00
H499   H     0.37572   0.22708   0.54075   0.00000  Uiso   1.00
O500   O     0.65069   0.22217   0.57834   0.00000  Uiso   1.00
C501   C     0.43643   0.10677   0.61408   0.00000  Uiso   1.00
H502   H     0.42513   0.10884   0.57712   0.00000  Uiso   1.00
O503   O     0.41977   0.07707   0.63463   0.00000  Uiso   1.00
C504   C     0.56357   0.22657   0.38592   0.00000  Uiso   1.00
H505   H     0.57488   0.22450   0.42288   0.00000  Uiso   1.00
O506   O     0.58021   0.25627   0.36537   0.00000  Uiso   1.00
C507   C     0.83326   0.08742   0.50012   0.00000  Uiso   1.00
C508   C     0.83340   0.24592   0.49988   0.00000  Uiso   1.00
C509   C     0.73494   0.16526   0.48858   0.00000  Uiso   1.00
C510   C     0.93172   0.16808   0.51142   0.00000  Uiso   1.00
C511   C     0.68049   0.15735   0.48475   0.00000  Uiso   1.00
C512   C     0.98617   0.17599   0.51525   0.00000  Uiso   1.00
C513   C     0.83301   0.02171   0.45776   0.00000  Uiso   1.00
C514   C     0.83366   0.31162   0.54224   0.00000  Uiso   1.00
C515   C     0.83308   0.31246   0.45761   0.00000  Uiso   1.00
C516   C     0.83358   0.02087   0.54239   0.00000  Uiso   1.00
C517   C     0.83340   0.29057   0.49984   0.00000  Uiso   1.00
C518   C     0.83326   0.04277   0.50016   0.00000  Uiso   1.00
C519   C     0.80401   0.13883   0.35603   0.00000  Uiso   1.00
C520   C     0.86266   0.19450   0.64397   0.00000  Uiso   1.00
C521   C     0.80353   0.13842   0.63987   0.00000  Uiso   1.00
C522   C     0.86313   0.19491   0.36013   0.00000  Uiso   1.00
Cu523  Cu    0.83333   0.16667   0.54689   0.00000  Uiso   1.00
Cu524  Cu    0.83333   0.16666   0.45311   0.00000  Uiso   1.00
H525   H     0.83273   0.03804   0.42467   0.00000  Uiso   1.00
H526   H     0.83394   0.29529   0.57533   0.00000  Uiso   1.00
H527   H     0.83285   0.29680   0.42450   0.00000  Uiso   1.00
H528   H     0.83382   0.03654   0.57550   0.00000  Uiso   1.00
H529   H     0.78051   0.11700   0.37345   0.00000  Uiso   1.00
H530   H     0.88616   0.21634   0.62655   0.00000  Uiso   1.00
N531   N     0.83335   0.16668   0.61736   0.00000  Uiso   1.00
N532   N     0.83332   0.16666   0.38264   0.00000  Uiso   1.00
O533   O     0.83333   0.10655   0.53958   0.00000  Uiso   1.00
O534   O     0.83334   0.22678   0.46042   0.00000  Uiso   1.00
O535   O     0.83333   0.10654   0.46039   0.00000  Uiso   1.00
O536   O     0.83334   0.22679   0.53961   0.00000  Uiso   1.00
O537   O     0.75828   0.16667   0.53046   0.00000  Uiso   1.00
O538   O     0.90839   0.16666   0.46954   0.00000  Uiso   1.00
O539   O     0.75828   0.16666   0.45127   0.00000  Uiso   1.00
O540   O     0.90839   0.16667   0.54873   0.00000  Uiso   1.00
C541   C     0.99297   0.12264   0.45355   0.00000  Uiso   1.00
H542   H     0.95763   0.10624   0.45928   0.00000  Uiso   1.00
O543   O     0.68260   0.11122   0.42161   0.00000  Uiso   1.00
C544   C     0.67369   0.21070   0.54644   0.00000  Uiso   1.00
H545   H     0.70906   0.22708   0.54075   0.00000  Uiso   1.00
O546   O     0.98402   0.22217   0.57834   0.00000  Uiso   1.00
C547   C     0.76976   0.10677   0.61408   0.00000  Uiso   1.00
H548   H     0.75846   0.10884   0.57712   0.00000  Uiso   1.00
O549   O     0.75310   0.07707   0.63463   0.00000  Uiso   1.00
C550   C     0.89690   0.22657   0.38592   0.00000  Uiso   1.00
H551   H     0.90821   0.22450   0.42288   0.00000  Uiso   1.00
O552   O     0.91355   0.25627   0.36537   0.00000  Uiso   1.00
C553   C     0.16660   0.42075   0.50012   0.00000  Uiso   1.00
C554   C     0.16674   0.57925   0.49988   0.00000  Uiso   1.00
C555   C     0.06828   0.49859   0.48858   0.00000  Uiso   1.00
C556   C     0.26505   0.50141   0.51142   0.00000  Uiso   1.00
C557   C     0.01382   0.49069   0.48475   0.00000  Uiso   1.00
C558   C     0.31951   0.50932   0.51525   0.00000  Uiso   1.00
C559   C     0.16634   0.35505   0.45776   0.00000  Uiso   1.00
C560   C     0.16699   0.64495   0.54224   0.00000  Uiso   1.00
C561   C     0.16642   0.64579   0.45761   0.00000  Uiso   1.00
C562   C     0.16691   0.35421   0.54239   0.00000  Uiso   1.00
C563   C     0.16674   0.62390   0.49984   0.00000  Uiso   1.00
C564   C     0.16660   0.37610   0.50016   0.00000  Uiso   1.00
C565   C     0.13734   0.47217   0.35603   0.00000  Uiso   1.00
C566   C     0.19599   0.52783   0.64397   0.00000  Uiso   1.00
C567   C     0.13686   0.47176   0.63987   0.00000  Uiso   1.00
C568   C     0.19647   0.52824   0.36013   0.00000  Uiso   1.00
Cu569  Cu    0.16667   0.50001   0.54689   0.00000  Uiso   1.00
Cu570  Cu    0.16667   0.49999   0.45311   0.00000  Uiso   1.00
H571   H     0.16606   0.37138   0.42467   0.00000  Uiso   1.00
H572   H     0.16727   0.62862   0.57533   0.00000  Uiso   1.00
H573   H     0.16618   0.63013   0.42450   0.00000  Uiso   1.00
H574   H     0.16715   0.36987   0.57550   0.00000  Uiso   1.00
H575   H     0.11384   0.45033   0.37345   0.00000  Uiso   1.00
H576   H     0.21949   0.54967   0.62655   0.00000  Uiso   1.00
N577   N     0.16668   0.50001   0.61736   0.00000  Uiso   1.00
N578   N     0.16665   0.49999   0.38264   0.00000  Uiso   1.00
O579   O     0.16666   0.43989   0.53958   0.00000  Uiso   1.00
O580   O     0.16667   0.56011   0.46042   0.00000  Uiso   1.00
O581   O     0.16666   0.43988   0.46039   0.00000  Uiso   1.00
O582   O     0.16667   0.56012   0.53961   0.00000  Uiso   1.00
O583   O     0.09161   0.50000   0.53046   0.00000  Uiso   1.00
O584   O     0.24172   0.50000   0.46954   0.00000  Uiso   1.00
O585   O     0.09161   0.49999   0.45127   0.00000  Uiso   1.00
O586   O     0.24172   0.50001   0.54873   0.00000  Uiso   1.00
C587   C     0.32630   0.45598   0.45355   0.00000  Uiso   1.00
H588   H     0.29097   0.43957   0.45928   0.00000  Uiso   1.00
O589   O     0.01593   0.44455   0.42161   0.00000  Uiso   1.00
C590   C     0.00703   0.54403   0.54644   0.00000  Uiso   1.00
H591   H     0.04239   0.56041   0.54075   0.00000  Uiso   1.00
O592   O     0.31736   0.55551   0.57834   0.00000  Uiso   1.00
C593   C     0.10309   0.44010   0.61408   0.00000  Uiso   1.00
H594   H     0.09179   0.44217   0.57712   0.00000  Uiso   1.00
O595   O     0.08644   0.41040   0.63463   0.00000  Uiso   1.00
C596   C     0.23024   0.55990   0.38592   0.00000  Uiso   1.00
H597   H     0.24154   0.55783   0.42288   0.00000  Uiso   1.00
O598   O     0.24688   0.58961   0.36537   0.00000  Uiso   1.00
C599   C     0.49993   0.42075   0.50012   0.00000  Uiso   1.00
C600   C     0.50007   0.57925   0.49988   0.00000  Uiso   1.00
C601   C     0.40161   0.49859   0.48858   0.00000  Uiso   1.00
C602   C     0.59839   0.50141   0.51142   0.00000  Uiso   1.00
C603   C     0.34716   0.49069   0.48475   0.00000  Uiso   1.00
C604   C     0.65284   0.50932   0.51525   0.00000  Uiso   1.00
C605   C     0.49967   0.35505   0.45776   0.00000  Uiso   1.00
C606   C     0.50033   0.64495   0.54224   0.00000  Uiso   1.00
C607   C     0.49975   0.64579   0.45761   0.00000  Uiso   1.00
C608   C     0.50025   0.35421   0.54239   0.00000  Uiso   1.00
C609   C     0.50007   0.62390   0.49984   0.00000  Uiso   1.00
C610   C     0.49993   0.37610   0.50016   0.00000  Uiso   1.00
C611   C     0.47068   0.47217   0.35603   0.00000  Uiso   1.00
C612   C     0.52932   0.52783   0.64397   0.00000  Uiso   1.00
C613   C     0.47020   0.47176   0.63987   0.00000  Uiso   1.00
C614   C     0.52980   0.52824   0.36013   0.00000  Uiso   1.00
Cu615  Cu    0.50000   0.50001   0.54689   0.00000  Uiso   1.00
Cu616  Cu    0.50000   0.49999   0.45311   0.00000  Uiso   1.00
H617   H     0.49940   0.37138   0.42467   0.00000  Uiso   1.00
H618   H     0.50060   0.62862   0.57533   0.00000  Uiso   1.00
H619   H     0.49951   0.63013   0.42450   0.00000  Uiso   1.00
H620   H     0.50049   0.36987   0.57550   0.00000  Uiso   1.00
H621   H     0.44717   0.45033   0.37345   0.00000  Uiso   1.00
H622   H     0.55282   0.54967   0.62655   0.00000  Uiso   1.00
N623   N     0.50001   0.50001   0.61736   0.00000  Uiso   1.00
N624   N     0.49999   0.49999   0.38264   0.00000  Uiso   1.00
O625   O     0.50000   0.43989   0.53958   0.00000  Uiso   1.00
O626   O     0.50000   0.56011   0.46042   0.00000  Uiso   1.00
O627   O     0.50000   0.43988   0.46039   0.00000  Uiso   1.00
O628   O     0.50000   0.56012   0.53961   0.00000  Uiso   1.00
O629   O     0.42495   0.50000   0.53046   0.00000  Uiso   1.00
O630   O     0.57505   0.50000   0.46954   0.00000  Uiso   1.00
O631   O     0.42494   0.49999   0.45127   0.00000  Uiso   1.00
O632   O     0.57506   0.50001   0.54873   0.00000  Uiso   1.00
C633   C     0.65964   0.45598   0.45355   0.00000  Uiso   1.00
H634   H     0.62430   0.43957   0.45928   0.00000  Uiso   1.00
O635   O     0.34926   0.44455   0.42161   0.00000  Uiso   1.00
C636   C     0.34036   0.54403   0.54644   0.00000  Uiso   1.00
H637   H     0.37572   0.56041   0.54075   0.00000  Uiso   1.00
O638   O     0.65069   0.55551   0.57834   0.00000  Uiso   1.00
C639   C     0.43643   0.44010   0.61408   0.00000  Uiso   1.00
H640   H     0.42513   0.44217   0.57712   0.00000  Uiso   1.00
O641   O     0.41977   0.41040   0.63463   0.00000  Uiso   1.00
C642   C     0.56357   0.55990   0.38592   0.00000  Uiso   1.00
H643   H     0.57488   0.55783   0.42288   0.00000  Uiso   1.00
O644   O     0.58021   0.58961   0.36537   0.00000  Uiso   1.00
C645   C     0.83326   0.42075   0.50012   0.00000  Uiso   1.00
C646   C     0.83340   0.57925   0.49988   0.00000  Uiso   1.00
C647   C     0.73494   0.49859   0.48858   0.00000  Uiso   1.00
C648   C     0.93172   0.50141   0.51142   0.00000  Uiso   1.00
C649   C     0.68049   0.49069   0.48475   0.00000  Uiso   1.00
C650   C     0.98617   0.50932   0.51525   0.00000  Uiso   1.00
C651   C     0.83301   0.35505   0.45776   0.00000  Uiso   1.00
C652   C     0.83366   0.64495   0.54224   0.00000  Uiso   1.00
C653   C     0.83308   0.64579   0.45761   0.00000  Uiso   1.00
C654   C     0.83358   0.35421   0.54239   0.00000  Uiso   1.00
C655   C     0.83340   0.62390   0.49984   0.00000  Uiso   1.00
C656   C     0.83326   0.37610   0.50016   0.00000  Uiso   1.00
C657   C     0.80401   0.47217   0.35603   0.00000  Uiso   1.00
C658   C     0.86266   0.52783   0.64397   0.00000  Uiso   1.00
C659   C     0.80353   0.47176   0.63987   0.00000  Uiso   1.00
C660   C     0.86313   0.52824   0.36013   0.00000  Uiso   1.00
Cu661  Cu    0.83333   0.50001   0.54689   0.00000  Uiso   1.00
Cu662  Cu    0.83333   0.49999   0.45311   0.00000  Uiso   1.00
H663   H     0.83273   0.37138   0.42467   0.00000  Uiso   1.00
H664   H     0.83394   0.62862   0.57533   0.00000  Uiso   1.00
H665   H     0.83285   0.63013   0.42450   0.00000  Uiso   1.00
H666   H     0.83382   0.36987   0.57550   0.00000  Uiso   1.00
H667   H     0.78051   0.45033   0.37345   0.00000  Uiso   1.00
H668   H     0.88616   0.54967   0.62655   0.00000  Uiso   1.00
N669   N     0.83335   0.50001   0.61736   0.00000  Uiso   1.00
N670   N     0.83332   0.49999   0.38264   0.00000  Uiso   1.00
O671   O     0.83333   0.43989   0.53958   0.00000  Uiso   1.00
O672   O     0.83334   0.56011   0.46042   0.00000  Uiso   1.00
O673   O     0.83333   0.43988   0.46039   0.00000  Uiso   1.00
O674   O     0.83334   0.56012   0.53961   0.00000  Uiso   1.00
O675   O     0.75828   0.50000   0.53046   0.00000  Uiso   1.00
O676   O     0.90839   0.50000   0.46954   0.00000  Uiso   1.00
O677   O     0.75828   0.49999   0.45127   0.00000  Uiso   1.00
O678   O     0.90839   0.50001   0.54873   0.00000  Uiso   1.00
C679   C     0.99297   0.45598   0.45355   0.00000  Uiso   1.00
H680   H     0.95763   0.43957   0.45928   0.00000  Uiso   1.00
O681   O     0.68260   0.44455   0.42161   0.00000  Uiso   1.00
C682   C     0.67369   0.54403   0.54644   0.00000  Uiso   1.00
H683   H     0.70906   0.56041   0.54075   0.00000  Uiso   1.00
O684   O     0.98402   0.55551   0.57834   0.00000  Uiso   1.00
C685   C     0.76976   0.44010   0.61408   0.00000  Uiso   1.00
H686   H     0.75846   0.44217   0.57712   0.00000  Uiso   1.00
O687   O     0.75310   0.41040   0.63463   0.00000  Uiso   1.00
C688   C     0.89690   0.55990   0.38592   0.00000  Uiso   1.00
H689   H     0.90821   0.55783   0.42288   0.00000  Uiso   1.00
O690   O     0.91355   0.58961   0.36537   0.00000  Uiso   1.00
C691   C     0.16660   0.75409   0.50012   0.00000  Uiso   1.00
C692   C     0.16674   0.91258   0.49988   0.00000  Uiso   1.00
C693   C     0.06828   0.83192   0.48858   0.00000  Uiso   1.00
C694   C     0.26505   0.83475   0.51142   0.00000  Uiso   1.00
C695   C     0.01382   0.82402   0.48475   0.00000  Uiso   1.00
C696   C     0.31951   0.84266   0.51525   0.00000  Uiso   1.00
C697   C     0.16634   0.68838   0.45776   0.00000  Uiso   1.00
C698   C     0.16699   0.97829   0.54224   0.00000  Uiso   1.00
C699   C     0.16642   0.97913   0.45761   0.00000  Uiso   1.00
C700   C     0.16691   0.68754   0.54239   0.00000  Uiso   1.00
C701   C     0.16674   0.95723   0.49984   0.00000  Uiso   1.00
C702   C     0.16660   0.70943   0.50016   0.00000  Uiso   1.00
C703   C     0.13734   0.80550   0.35603   0.00000  Uiso   1.00
C704   C     0.19599   0.86117   0.64397   0.00000  Uiso   1.00
C705   C     0.13686   0.80509   0.63987   0.00000  Uiso   1.00
C706   C     0.19647   0.86158   0.36013   0.00000  Uiso   1.00
Cu707  Cu    0.16667   0.83334   0.54689   0.00000  Uiso   1.00
Cu708  Cu    0.16667   0.83333   0.45311   0.00000  Uiso   1.00
H709   H     0.16606   0.70471   0.42467   0.00000  Uiso   1.00
H710   H     0.16727   0.96196   0.57533   0.00000  Uiso   1.00
H711   H     0.16618   0.96346   0.42450   0.00000  Uiso   1.00
H712   H     0.16715   0.70320   0.57550   0.00000  Uiso   1.00
H713   H     0.11384   0.78366   0.37345   0.00000  Uiso   1.00
H714   H     0.21949   0.88300   0.62655   0.00000  Uiso   1.00
N715   N     0.16668   0.83334   0.61736   0.00000  Uiso   1.00
N716   N     0.16665   0.83332   0.38264   0.00000  Uiso   1.00
O717   O     0.16666   0.77322   0.53958   0.00000  Uiso   1.00
O718   O     0.16667   0.89345   0.46042   0.00000  Uiso   1.00
O719   O     0.16666   0.77321   0.46039   0.00000  Uiso   1.00
O720   O     0.16667   0.89346   0.53961   0.00000  Uiso   1.00
O721   O     0.09161   0.83334   0.53046   0.00000  Uiso   1.00
O722   O     0.24172   0.83333   0.46954   0.00000  Uiso   1.00
O723   O     0.09161   0.83333   0.45127   0.00000  Uiso   1.00
O724   O     0.24172   0.83334   0.54873   0.00000  Uiso   1.00
C725   C     0.32630   0.78931   0.45355   0.00000  Uiso   1.00
H726   H     0.29097   0.77291   0.45928   0.00000  Uiso   1.00
O727   O     0.01593   0.77788   0.42161   0.00000  Uiso   1.00
C728   C     0.00703   0.87737   0.54644   0.00000  Uiso   1.00
H729   H     0.04239   0.89375   0.54075   0.00000  Uiso   1.00
O730   O     0.31736   0.88884   0.57834   0.00000  Uiso   1.00
C731   C     0.10309   0.77344   0.61408   0.00000  Uiso   1.00
H732   H     0.09179   0.77550   0.57712   0.00000  Uiso   1.00
O733   O     0.08644   0.74374   0.63463   0.00000  Uiso   1.00
C734   C     0.23024   0.89323   0.38592   0.00000  Uiso   1.00
H735   H     0.24154   0.89116   0.42288   0.00000  Uiso   1.00
O736   O     0.24688   0.92294   0.36537   0.00000  Uiso   1.00
C737   C     0.49993   0.75409   0.50012   0.00000  Uiso   1.00
C738   C     0.50007   0.91258   0.49988   0.00000  Uiso   1.00
C739   C     0.40161   0.83192   0.48858   0.00000  Uiso   1.00
C740   C     0.59839   0.83475   0.51142   0.00000  Uiso   1.00
C741   C     0.34716   0.82402   0.48475   0.00000  Uiso   1.00
C742   C     0.65284   0.84266   0.51525   0.00000  Uiso   1.00
C743   C     0.49967   0.68838   0.45776   0.00000  Uiso   1.00
C744   C     0.50033   0.97829   0.54224   0.00000  Uiso   1.00
C745   C     0.49975   0.97913   0.45761   0.00000  Uiso   1.00
C746   C     0.50025   0.68754   0.54239   0.00000  Uiso   1.00
C747   C     0.50007   0.95723   0.49984   0.00000  Uiso   1.00
C748   C     0.49993   0.70943   0.50016   0.00000  Uiso   1.00
C749   C     0.47068   0.80550   0.35603   0.00000  Uiso   1.00
C750   C     0.52932   0.86117   0.64397   0.00000  Uiso   1.00
C751   C     0.47020   0.80509   0.63987   0.00000  Uiso   1.00
C752   C     0.52980   0.86158   0.36013   0.00000  Uiso   1.00
Cu753  Cu    0.50000   0.83334   0.54689   0.00000  Uiso   1.00
Cu754  Cu    0.50000   0.83333   0.45311   0.00000  Uiso   1.00
H755   H     0.49940   0.70471   0.42467   0.00000  Uiso   1.00
H756   H     0.50060   0.96196   0.57533   0.00000  Uiso   1.00
H757   H     0.49951   0.96346   0.42450   0.00000  Uiso   1.00
H758   H     0.50049   0.70320   0.57550   0.00000  Uiso   1.00
H759   H     0.44717   0.78366   0.37345   0.00000  Uiso   1.00
H760   H     0.55282   0.88300   0.62655   0.00000  Uiso   1.00
N761   N     0.50001   0.83334   0.61736   0.00000  Uiso   1.00
N762   N     0.49999   0.83332   0.38264   0.00000  Uiso   1.00
O763   O     0.50000   0.77322   0.53958   0.00000  Uiso   1.00
O764   O     0.50000   0.89345   0.46042   0.00000  Uiso   1.00
O765   O     0.50000   0.77321   0.46039   0.00000  Uiso   1.00
O766   O     0.50000   0.89346   0.53961   0.00000  Uiso   1.00
O767   O     0.42495   0.83334   0.53046   0.00000  Uiso   1.00
O768   O     0.57505   0.83333   0.46954   0.00000  Uiso   1.00
O769   O     0.42494   0.83333   0.45127   0.00000  Uiso   1.00
O770   O     0.57506   0.83334   0.54873   0.00000  Uiso   1.00
C771   C     0.65964   0.78931   0.45355   0.00000  Uiso   1.00
H772   H     0.62430   0.77291   0.45928   0.00000  Uiso   1.00
O773   O     0.34926   0.77788   0.42161   0.00000  Uiso   1.00
C774   C     0.34036   0.87737   0.54644   0.00000  Uiso   1.00
H775   H     0.37572   0.89375   0.54075   0.00000  Uiso   1.00
O776   O     0.65069   0.88884   0.57834   0.00000  Uiso   1.00
C777   C     0.43643   0.77344   0.61408   0.00000  Uiso   1.00
H778   H     0.42513   0.77550   0.57712   0.00000  Uiso   1.00
O779   O     0.41977   0.74374   0.63463   0.00000  Uiso   1.00
C780   C     0.56357   0.89323   0.38592   0.00000  Uiso   1.00
H781   H     0.57488   0.89116   0.42288   0.00000  Uiso   1.00
O782   O     0.58021   0.92294   0.36537   0.00000  Uiso   1.00
C783   C     0.83326   0.75409   0.50012   0.00000  Uiso   1.00
C784   C     0.83340   0.91258   0.49988   0.00000  Uiso   1.00
C785   C     0.73494   0.83192   0.48858   0.00000  Uiso   1.00
C786   C     0.93172   0.83475   0.51142   0.00000  Uiso   1.00
C787   C     0.68049   0.82402   0.48475   0.00000  Uiso   1.00
C788   C     0.98617   0.84266   0.51525   0.00000  Uiso   1.00
C789   C     0.83301   0.68838   0.45776   0.00000  Uiso   1.00
C790   C     0.83366   0.97829   0.54224   0.00000  Uiso   1.00
C791   C     0.83308   0.97913   0.45761   0.00000  Uiso   1.00
C792   C     0.83358   0.68754   0.54239   0.00000  Uiso   1.00
C793   C     0.83340   0.95723   0.49984   0.00000  Uiso   1.00
C794   C     0.83326   0.70943   0.50016   0.00000  Uiso   1.00
C795   C     0.80401   0.80550   0.35603   0.00000  Uiso   1.00
C796   C     0.86266   0.86117   0.64397   0.00000  Uiso   1.00
C797   C     0.80353   0.80509   0.63987   0.00000  Uiso   1.00
C798   C     0.86313   0.86158   0.36013   0.00000  Uiso   1.00
Cu799  Cu    0.83333   0.83334   0.54689   0.00000  Uiso   1.00
Cu800  Cu    0.83333   0.83333   0.45311   0.00000  Uiso   1.00
H801   H     0.83273   0.70471   0.42467   0.00000  Uiso   1.00
H802   H     0.83394   0.96196   0.57533   0.00000  Uiso   1.00
H803   H     0.83285   0.96346   0.42450   0.00000  Uiso   1.00
H804   H     0.83382   0.70320   0.57550   0.00000  Uiso   1.00
H805   H     0.78051   0.78366   0.37345   0.00000  Uiso   1.00
H806   H     0.88616   0.88300   0.62655   0.00000  Uiso   1.00
N807   N     0.83335   0.83334   0.61736   0.00000  Uiso   1.00
N808   N     0.83332   0.83332   0.38264   0.00000  Uiso   1.00
O809   O     0.83333   0.77322   0.53958   0.00000  Uiso   1.00
O810   O     0.83334   0.89345   0.46042   0.00000  Uiso   1.00
O811   O     0.83333   0.77321   0.46039   0.00000  Uiso   1.00
O812   O     0.83334   0.89346   0.53961   0.00000  Uiso   1.00
O813   O     0.75828   0.83334   0.53046   0.00000  Uiso   1.00
O814   O     0.90839   0.83333   0.46954   0.00000  Uiso   1.00
O815   O     0.75828   0.83333   0.45127   0.00000  Uiso   1.00
O816   O     0.90839   0.83334   0.54873   0.00000  Uiso   1.00
C817   C     0.99297   0.78931   0.45355   0.00000  Uiso   1.00
H818   H     0.95763   0.77291   0.45928   0.00000  Uiso   1.00
O819   O     0.68260   0.77788   0.42161   0.00000  Uiso   1.00
C820   C     0.67369   0.87737   0.54644   0.00000  Uiso   1.00
H821   H     0.70906   0.89375   0.54075   0.00000  Uiso   1.00
O822   O     0.98402   0.88884   0.57834   0.00000  Uiso   1.00
C823   C     0.76976   0.77344   0.61408   0.00000  Uiso   1.00
H824   H     0.75846   0.77550   0.57712   0.00000  Uiso   1.00
O825   O     0.75310   0.74374   0.63463   0.00000  Uiso   1.00
C826   C     0.89690   0.89323   0.38592   0.00000  Uiso   1.00
H827   H     0.90821   0.89116   0.42288   0.00000  Uiso   1.00
O828   O     0.91355   0.92294   0.36537   0.00000  Uiso   1.00
C829   C     0.16660   0.08742   0.83345   0.00000  Uiso   1.00
C830   C     0.16674   0.24592   0.83321   0.00000  Uiso   1.00
C831   C     0.06828   0.16526   0.82191   0.00000  Uiso   1.00
C832   C     0.26505   0.16808   0.84476   0.00000  Uiso   1.00
C833   C     0.01382   0.15735   0.81808   0.00000  Uiso   1.00
C834   C     0.31951   0.17599   0.84858   0.00000  Uiso   1.00
C835   C     0.16634   0.02171   0.79109   0.00000  Uiso   1.00
C836   C     0.16699   0.31162   0.87558   0.00000  Uiso   1.00
C837   C     0.16642   0.31246   0.79094   0.00000  Uiso   1.00
C838   C     0.16691   0.02087   0.87572   0.00000  Uiso   1.00
C839   C     0.16674   0.29057   0.83318   0.00000  Uiso   1.00
C840   C     0.16660   0.04277   0.83349   0.00000  Uiso   1.00
C841   C     0.13734   0.13883   0.68937   0.00000  Uiso   1.00
C842   C     0.19599   0.19450   0.97730   0.00000  Uiso   1.00
C843   C     0.13686   0.13842   0.97320   0.00000  Uiso   1.00
C844   C     0.19647   0.19491   0.69346   0.00000  Uiso   1.00
Cu845  Cu    0.16667   0.16667   0.88022   0.00000  Uiso   1.00
Cu846  Cu    0.16667   0.16666   0.78645   0.00000  Uiso   1.00
H847   H     0.16606   0.03804   0.75801   0.00000  Uiso   1.00
H848   H     0.16727   0.29529   0.90866   0.00000  Uiso   1.00
H849   H     0.16618   0.29680   0.75783   0.00000  Uiso   1.00
H850   H     0.16715   0.03654   0.90884   0.00000  Uiso   1.00
H851   H     0.11384   0.11700   0.70678   0.00000  Uiso   1.00
H852   H     0.21949   0.21634   0.95988   0.00000  Uiso   1.00
N853   N     0.16668   0.16668   0.95069   0.00000  Uiso   1.00
N854   N     0.16665   0.16666   0.71597   0.00000  Uiso   1.00
O855   O     0.16666   0.10655   0.87291   0.00000  Uiso   1.00
O856   O     0.16667   0.22678   0.79375   0.00000  Uiso   1.00
O857   O     0.16666   0.10654   0.79372   0.00000  Uiso   1.00
O858   O     0.16667   0.22679   0.87294   0.00000  Uiso   1.00
O859   O     0.09161   0.16667   0.86379   0.00000  Uiso   1.00
O860   O     0.24172   0.16666   0.80288   0.00000  Uiso   1.00
O861   O     0.09161   0.16666   0.78460   0.00000  Uiso   1.00
O862   O     0.24172   0.16667   0.88207   0.00000  Uiso   1.00
C863   C     0.32630   0.12264   0.78689   0.00000  Uiso   1.00
H864   H     0.29097   0.10624   0.79261   0.00000  Uiso   1.00
O865   O     0.01593   0.11122   0.75495   0.00000  Uiso   1.00
C866   C     0.00703   0.21070   0.87978   0.00000  Uiso   1.00
H867   H     0.04239   0.22708   0.87408   0.00000  Uiso   1.00
O868   O     0.31736   0.22217   0.91167   0.00000  Uiso   1.00
C869   C     0.10309   0.10677   0.94741   0.00000  Uiso   1.00
H870   H     0.09179   0.10884   0.91045   0.00000  Uiso   1.00
O871   O     0.08644   0.07707   0.96796   0.00000  Uiso   1.00
C872   C     0.23024   0.22657   0.71926   0.00000  Uiso   1.00
H873   H     0.24154   0.22450   0.75621   0.00000  Uiso   1.00
O874   O     0.24688   0.25627   0.69870   0.00000  Uiso   1.00
C875   C     0.49993   0.08742   0.83345   0.00000  Uiso   1.00
C876   C     0.50007   0.24592   0.83321   0.00000  Uiso   1.00
C877   C     0.40161   0.16526   0.82191   0.00000  Uiso   1.00
C878   C     0.59839   0.16808   0.84476   0.00000  Uiso   1.00
C879   C     0.34716   0.15735   0.81808   0.00000  Uiso   1.00
C880   C     0.65284   0.17599   0.84858   0.00000  Uiso   1.00
C881   C     0.49967   0.02171   0.79109   0.00000  Uiso   1.00
C882   C     0.50033   0.31162   0.87558   0.00000  Uiso   1.00
C883   C     0.49975   0.31246   0.79094   0.00000  Uiso   1.00
C884   C     0.50025   0.02087   0.87572   0.00000  Uiso   1.00
C885   C     0.50007   0.29057   0.83318   0.00000  Uiso   1.00
C886   C     0.49993   0.04277   0.83349   0.00000  Uiso   1.00
C887   C     0.47068   0.13883   0.68937   0.00000  Uiso   1.00
C888   C     0.52932   0.19450   0.97730   0.00000  Uiso   1.00
C889   C     0.47020   0.13842   0.97320   0.00000  Uiso   1.00
C890   C     0.52980   0.19491   0.69346   0.00000  Uiso   1.00
Cu891  Cu    0.50000   0.16667   0.88022   0.00000  Uiso   1.00
Cu892  Cu    0.50000   0.16666   0.78645   0.00000  Uiso   1.00
H893   H     0.49940   0.03804   0.75801   0.00000  Uiso   1.00
H894   H     0.50060   0.29529   0.90866   0.00000  Uiso   1.00
H895   H     0.49951   0.29680   0.75783   0.00000  Uiso   1.00
H896   H     0.50049   0.03654   0.90884   0.00000  Uiso   1.00
H897   H     0.44717   0.11700   0.70678   0.00000  Uiso   1.00
H898   H     0.55282   0.21634   0.95988   0.00000  Uiso   1.00
N899   N     0.50001   0.16668   0.95069   0.00000  Uiso   1.00
N900   N     0.49999   0.16666   0.71597   0.00000  Uiso   1.00
O901   O     0.50000   0.10655   0.87291   0.00000  Uiso   1.00
O902   O     0.50000   0.22678   0.79375   0.00000  Uiso   1.00
O903   O     0.50000   0.10654   0.79372   0.00000  Uiso   1.00
O904   O     0.50000   0.22679   0.87294   0.00000  Uiso   1.00
O905   O     0.42495   0.16667   0.86379   0.00000  Uiso   1.00
O906   O     0.57505   0.16666   0.80288   0.00000  Uiso   1.00
O907   O     0.42494   0.16666   0.78460   0.00000  Uiso   1.00
O908   O     0.57506   0.16667   0.88207   0.00000  Uiso   1.00
C909   C     0.65964   0.12264   0.78689   0.00000  Uiso   1.00
H910   H     0.62430   0.10624   0.79261   0.00000  Uiso   1.00
O911   O     0.34926   0.11122   0.75495   0.00000  Uiso   1.00
C912   C     0.34036   0.21070   0.87978   0.00000  Uiso   1.00
H913   H     0.37572   0.22708   0.87408   0.00000  Uiso   1.00
O914   O     0.65069   0.22217   0.91167   0.00000  Uiso   1.00
C915   C     0.43643   0.10677   0.94741   0.00000  Uiso   1.00
H916   H     0.42513   0.10884   0.91045   0.00000  Uiso   1.00
O917   O     0.41977   0.07707   0.96796   0.00000  Uiso   1.00
C918   C     0.56357   0.22657   0.71926   0.00000  Uiso   1.00
H919   H     0.57488   0.22450   0.75621   0.00000  Uiso   1.00
O920   O     0.58021   0.25627   0.69870   0.00000  Uiso   1.00
C921   C     0.83326   0.08742   0.83345   0.00000  Uiso   1.00
C922   C     0.83340   0.24592   0.83321   0.00000  Uiso   1.00
C923   C     0.73494   0.16526   0.82191   0.00000  Uiso   1.00
C924   C     0.93172   0.16808   0.84476   0.00000  Uiso   1.00
C925   C     0.68049   0.15735   0.81808   0.00000  Uiso   1.00
C926   C     0.98617   0.17599   0.84858   0.00000  Uiso   1.00
C927   C     0.83301   0.02171   0.79109   0.00000  Uiso   1.00
C928   C     0.83366   0.31162   0.87558   0.00000  Uiso   1.00
C929   C     0.83308   0.31246   0.79094   0.00000  Uiso   1.00
C930   C     0.83358   0.02087   0.87572   0.00000  Uiso   1.00
C931   C     0.83340   0.29057   0.83318   0.00000  Uiso   1.00
C932   C     0.83326   0.04277   0.83349   0.00000  Uiso   1.00
C933   C     0.80401   0.13883   0.68937   0.00000  Uiso   1.00
C934   C     0.86266   0.19450   0.97730   0.00000  Uiso   1.00
C935   C     0.80353   0.13842   0.97320   0.00000  Uiso   1.00
C936   C     0.86313   0.19491   0.69346   0.00000  Uiso   1.00
Cu937  Cu    0.83333   0.16667   0.88022   0.00000  Uiso   1.00
Cu938  Cu    0.83333   0.16666   0.78645   0.00000  Uiso   1.00
H939   H     0.83273   0.03804   0.75801   0.00000  Uiso   1.00
H940   H     0.83394   0.29529   0.90866   0.00000  Uiso   1.00
H941   H     0.83285   0.29680   0.75783   0.00000  Uiso   1.00
H942   H     0.83382   0.03654   0.90884   0.00000  Uiso   1.00
H943   H     0.78051   0.11700   0.70678   0.00000  Uiso   1.00
H944   H     0.88616   0.21634   0.95988   0.00000  Uiso   1.00
N945   N     0.83335   0.16668   0.95069   0.00000  Uiso   1.00
N946   N     0.83332   0.16666   0.71597   0.00000  Uiso   1.00
O947   O     0.83333   0.10655   0.87291   0.00000  Uiso   1.00
O948   O     0.83334   0.22678   0.79375   0.00000  Uiso   1.00
O949   O     0.83333   0.10654   0.79372   0.00000  Uiso   1.00
O950   O     0.83334   0.22679   0.87294   0.00000  Uiso   1.00
O951   O     0.75828   0.16667   0.86379   0.00000  Uiso   1.00
O952   O     0.90839   0.16666   0.80288   0.00000  Uiso   1.00
O953   O     0.75828   0.16666   0.78460   0.00000  Uiso   1.00
O954   O     0.90839   0.16667   0.88207   0.00000  Uiso   1.00
C955   C     0.99297   0.12264   0.78689   0.00000  Uiso   1.00
H956   H     0.95763   0.10624   0.79261   0.00000  Uiso   1.00
O957   O     0.68260   0.11122   0.75495   0.00000  Uiso   1.00
C958   C     0.67369   0.21070   0.87978   0.00000  Uiso   1.00
H959   H     0.70906   0.22708   0.87408   0.00000  Uiso   1.00
O960   O     0.98402   0.22217   0.91167   0.00000  Uiso   1.00
C961   C     0.76976   0.10677   0.94741   0.00000  Uiso   1.00
H962   H     0.75846   0.10884   0.91045   0.00000  Uiso   1.00
O963   O     0.75310   0.07707   0.96796   0.00000  Uiso   1.00
C964   C     0.89690   0.22657   0.71926   0.00000  Uiso   1.00
H965   H     0.90821   0.22450   0.75621   0.00000  Uiso   1.00
O966   O     0.91355   0.25627   0.69870   0.00000  Uiso   1.00
C967   C     0.16660   0.42075   0.83345   0.00000  Uiso   1.00
C968   C     0.16674   0.57925   0.83321   0.00000  Uiso   1.00
C969   C     0.06828   0.49859   0.82191   0.00000  Uiso   1.00
C970   C     0.26505   0.50141   0.84476   0.00000  Uiso   1.00
C971   C     0.01382   0.49069   0.81808   0.00000  Uiso   1.00
C972   C     0.31951   0.50932   0.84858   0.00000  Uiso   1.00
C973   C     0.16634   0.35505   0.79109   0.00000  Uiso   1.00
C974   C     0.16699   0.64495   0.87558   0.00000  Uiso   1.00
C975   C     0.16642   0.64579   0.79094   0.00000  Uiso   1.00
C976   C     0.16691   0.35421   0.87572   0.00000  Uiso   1.00
C977   C     0.16674   0.62390   0.83318   0.00000  Uiso   1.00
C978   C     0.16660   0.37610   0.83349   0.00000  Uiso   1.00
C979   C     0.13734   0.47217   0.68937   0.00000  Uiso   1.00
C980   C     0.19599   0.52783   0.97730   0.00000  Uiso   1.00
C981   C     0.13686   0.47176   0.97320   0.00000  Uiso   1.00
C982   C     0.19647   0.52824   0.69346   0.00000  Uiso   1.00
Cu983  Cu    0.16667   0.50001   0.88022   0.00000  Uiso   1.00
Cu984  Cu    0.16667   0.49999   0.78645   0.00000  Uiso   1.00
H985   H     0.16606   0.37138   0.75801   0.00000  Uiso   1.00
H986   H     0.16727   0.62862   0.90866   0.00000  Uiso   1.00
H987   H     0.16618   0.63013   0.75783   0.00000  Uiso   1.00
H988   H     0.16715   0.36987   0.90884   0.00000  Uiso   1.00
H989   H     0.11384   0.45033   0.70678   0.00000  Uiso   1.00
H990   H     0.21949   0.54967   0.95988   0.00000  Uiso   1.00
N991   N     0.16668   0.50001   0.95069   0.00000  Uiso   1.00
N992   N     0.16665   0.49999   0.71597   0.00000  Uiso   1.00
O993   O     0.16666   0.43989   0.87291   0.00000  Uiso   1.00
O994   O     0.16667   0.56011   0.79375   0.00000  Uiso   1.00
O995   O     0.16666   0.43988   0.79372   0.00000  Uiso   1.00
O996   O     0.16667   0.56012   0.87294   0.00000  Uiso   1.00
O997   O     0.09161   0.50000   0.86379   0.00000  Uiso   1.00
O998   O     0.24172   0.50000   0.80288   0.00000  Uiso   1.00
O999   O     0.09161   0.49999   0.78460   0.00000  Uiso   1.00
O1000  O     0.24172   0.50001   0.88207   0.00000  Uiso   1.00
C1001  C     0.32630   0.45598   0.78689   0.00000  Uiso   1.00
H1002  H     0.29097   0.43957   0.79261   0.00000  Uiso   1.00
O1003  O     0.01593   0.44455   0.75495   0.00000  Uiso   1.00
C1004  C     0.00703   0.54403   0.87978   0.00000  Uiso   1.00
H1005  H     0.04239   0.56041   0.87408   0.00000  Uiso   1.00
O1006  O     0.31736   0.55551   0.91167   0.00000  Uiso   1.00
C1007  C     0.10309   0.44010   0.94741   0.00000  Uiso   1.00
H1008  H     0.09179   0.44217   0.91045   0.00000  Uiso   1.00
O1009  O     0.08644   0.41040   0.96796   0.00000  Uiso   1.00
C1010  C     0.23024   0.55990   0.71926   0.00000  Uiso   1.00
H1011  H     0.24154   0.55783   0.75621   0.00000  Uiso   1.00
O1012  O     0.24688   0.58961   0.69870   0.00000  Uiso   1.00
C1013  C     0.49993   0.42075   0.83345   0.00000  Uiso   1.00
C1014  C     0.50007   0.57925   0.83321   0.00000  Uiso   1.00
C1015  C     0.40161   0.49859   0.82191   0.00000  Uiso   1.00
C1016  C     0.59839   0.50141   0.84476   0.00000  Uiso   1.00
C1017  C     0.34716   0.49069   0.81808   0.00000  Uiso   1.00
C1018  C     0.65284   0.50932   0.84858   0.00000  Uiso   1.00
C1019  C     0.49967   0.35505   0.79109   0.00000  Uiso   1.00
C1020  C     0.50033   0.64495   0.87558   0.00000  Uiso   1.00
C1021  C     0.49975   0.64579   0.79094   0.00000  Uiso   1.00
C1022  C     0.50025   0.35421   0.87572   0.00000  Uiso   1.00
C1023  C     0.50007   0.62390   0.83318   0.00000  Uiso   1.00
C1024  C     0.49993   0.37610   0.83349   0.00000  Uiso   1.00
C1025  C     0.47068   0.47217   0.68937   0.00000  Uiso   1.00
C1026  C     0.52932   0.52783   0.97730   0.00000  Uiso   1.00
C1027  C     0.47020   0.47176   0.97320   0.00000  Uiso   1.00
C1028  C     0.52980   0.52824   0.69346   0.00000  Uiso   1.00
Cu1029 Cu    0.50000   0.50001   0.88022   0.00000  Uiso   1.00
Cu1030 Cu    0.50000   0.49999   0.78645   0.00000  Uiso   1.00
H1031  H     0.49940   0.37138   0.75801   0.00000  Uiso   1.00
H1032  H     0.50060   0.62862   0.90866   0.00000  Uiso   1.00
H1033  H     0.49951   0.63013   0.75783   0.00000  Uiso   1.00
H1034  H     0.50049   0.36987   0.90884   0.00000  Uiso   1.00
H1035  H     0.44717   0.45033   0.70678   0.00000  Uiso   1.00
H1036  H     0.55282   0.54967   0.95988   0.00000  Uiso   1.00
N1037  N     0.50001   0.50001   0.95069   0.00000  Uiso   1.00
N1038  N     0.49999   0.49999   0.71597   0.00000  Uiso   1.00
O1039  O     0.50000   0.43989   0.87291   0.00000  Uiso   1.00
O1040  O     0.50000   0.56011   0.79375   0.00000  Uiso   1.00
O1041  O     0.50000   0.43988   0.79372   0.00000  Uiso   1.00
O1042  O     0.50000   0.56012   0.87294   0.00000  Uiso   1.00
O1043  O     0.42495   0.50000   0.86379   0.00000  Uiso   1.00
O1044  O     0.57505   0.50000   0.80288   0.00000  Uiso   1.00
O1045  O     0.42494   0.49999   0.78460   0.00000  Uiso   1.00
O1046  O     0.57506   0.50001   0.88207   0.00000  Uiso   1.00
C1047  C     0.65964   0.45598   0.78689   0.00000  Uiso   1.00
H1048  H     0.62430   0.43957   0.79261   0.00000  Uiso   1.00
O1049  O     0.34926   0.44455   0.75495   0.00000  Uiso   1.00
C1050  C     0.34036   0.54403   0.87978   0.00000  Uiso   1.00
H1051  H     0.37572   0.56041   0.87408   0.00000  Uiso   1.00
O1052  O     0.65069   0.55551   0.91167   0.00000  Uiso   1.00
C1053  C     0.43643   0.44010   0.94741   0.00000  Uiso   1.00
H1054  H     0.42513   0.44217   0.91045   0.00000  Uiso   1.00
O1055  O     0.41977   0.41040   0.96796   0.00000  Uiso   1.00
C1056  C     0.56357   0.55990   0.71926   0.00000  Uiso   1.00
H1057  H     0.57488   0.55783   0.75621   0.00000  Uiso   1.00
O1058  O     0.58021   0.58961   0.69870   0.00000  Uiso   1.00
C1059  C     0.83326   0.42075   0.83345   0.00000  Uiso   1.00
C1060  C     0.83340   0.57925   0.83321   0.00000  Uiso   1.00
C1061  C     0.73494   0.49859   0.82191   0.00000  Uiso   1.00
C1062  C     0.93172   0.50141   0.84476   0.00000  Uiso   1.00
C1063  C     0.68049   0.49069   0.81808   0.00000  Uiso   1.00
C1064  C     0.98617   0.50932   0.84858   0.00000  Uiso   1.00
C1065  C     0.83301   0.35505   0.79109   0.00000  Uiso   1.00
C1066  C     0.83366   0.64495   0.87558   0.00000  Uiso   1.00
C1067  C     0.83308   0.64579   0.79094   0.00000  Uiso   1.00
C1068  C     0.83358   0.35421   0.87572   0.00000  Uiso   1.00
C1069  C     0.83340   0.62390   0.83318   0.00000  Uiso   1.00
C1070  C     0.83326   0.37610   0.83349   0.00000  Uiso   1.00
C1071  C     0.80401   0.47217   0.68937   0.00000  Uiso   1.00
C1072  C     0.86266   0.52783   0.97730   0.00000  Uiso   1.00
C1073  C     0.80353   0.47176   0.97320   0.00000  Uiso   1.00
C1074  C     0.86313   0.52824   0.69346   0.00000  Uiso   1.00
Cu1075 Cu    0.83333   0.50001   0.88022   0.00000  Uiso   1.00
Cu1076 Cu    0.83333   0.49999   0.78645   0.00000  Uiso   1.00
H1077  H     0.83273   0.37138   0.75801   0.00000  Uiso   1.00
H1078  H     0.83394   0.62862   0.90866   0.00000  Uiso   1.00
H1079  H     0.83285   0.63013   0.75783   0.00000  Uiso   1.00
H1080  H     0.83382   0.36987   0.90884   0.00000  Uiso   1.00
H1081  H     0.78051   0.45033   0.70678   0.00000  Uiso   1.00
H1082  H     0.88616   0.54967   0.95988   0.00000  Uiso   1.00
N1083  N     0.83335   0.50001   0.95069   0.00000  Uiso   1.00
N1084  N     0.83332   0.49999   0.71597   0.00000  Uiso   1.00
O1085  O     0.83333   0.43989   0.87291   0.00000  Uiso   1.00
O1086  O     0.83334   0.56011   0.79375   0.00000  Uiso   1.00
O1087  O     0.83333   0.43988   0.79372   0.00000  Uiso   1.00
O1088  O     0.83334   0.56012   0.87294   0.00000  Uiso   1.00
O1089  O     0.75828   0.50000   0.86379   0.00000  Uiso   1.00
O1090  O     0.90839   0.50000   0.80288   0.00000  Uiso   1.00
O1091  O     0.75828   0.49999   0.78460   0.00000  Uiso   1.00
O1092  O     0.90839   0.50001   0.88207   0.00000  Uiso   1.00
C1093  C     0.99297   0.45598   0.78689   0.00000  Uiso   1.00
H1094  H     0.95763   0.43957   0.79261   0.00000  Uiso   1.00
O1095  O     0.68260   0.44455   0.75495   0.00000  Uiso   1.00
C1096  C     0.67369   0.54403   0.87978   0.00000  Uiso   1.00
H1097  H     0.70906   0.56041   0.87408   0.00000  Uiso   1.00
O1098  O     0.98402   0.55551   0.91167   0.00000  Uiso   1.00
C1099  C     0.76976   0.44010   0.94741   0.00000  Uiso   1.00
H1100  H     0.75846   0.44217   0.91045   0.00000  Uiso   1.00
O1101  O     0.75310   0.41040   0.96796   0.00000  Uiso   1.00
C1102  C     0.89690   0.55990   0.71926   0.00000  Uiso   1.00
H1103  H     0.90821   0.55783   0.75621   0.00000  Uiso   1.00
O1104  O     0.91355   0.58961   0.69870   0.00000  Uiso   1.00
C1105  C     0.16660   0.75409   0.83345   0.00000  Uiso   1.00
C1106  C     0.16674   0.91258   0.83321   0.00000  Uiso   1.00
C1107  C     0.06828   0.83192   0.82191   0.00000  Uiso   1.00
C1108  C     0.26505   0.83475   0.84476   0.00000  Uiso   1.00
C1109  C     0.01382   0.82402   0.81808   0.00000  Uiso   1.00
C1110  C     0.31951   0.84266   0.84858   0.00000  Uiso   1.00
C1111  C     0.16634   0.68838   0.79109   0.00000  Uiso   1.00
C1112  C     0.16699   0.97829   0.87558   0.00000  Uiso   1.00
C1113  C     0.16642   0.97913   0.79094   0.00000  Uiso   1.00
C1114  C     0.16691   0.68754   0.87572   0.00000  Uiso   1.00
C1115  C     0.16674   0.95723   0.83318   0.00000  Uiso   1.00
C1116  C     0.16660   0.70943   0.83349   0.00000  Uiso   1.00
C1117  C     0.13734   0.80550   0.68937   0.00000  Uiso   1.00
C1118  C     0.19599   0.86117   0.97730   0.00000  Uiso   1.00
C1119  C     0.13686   0.80509   0.97320   0.00000  Uiso   1.00
C1120  C     0.19647   0.86158   0.69346   0.00000  Uiso   1.00
Cu1121 Cu    0.16667   0.83334   0.88022   0.00000  Uiso   1.00
Cu1122 Cu    0.16667   0.83333   0.78645   0.00000  Uiso   1.00
H1123  H     0.16606   0.70471   0.75801   0.00000  Uiso   1.00
H1124  H     0.16727   0.96196   0.90866   0.00000  Uiso   1.00
H1125  H     0.16618   0.96346   0.75783   0.00000  Uiso   1.00
H1126  H     0.16715   0.70320   0.90884   0.00000  Uiso   1.00
H1127  H     0.11384   0.78366   0.70678   0.00000  Uiso   1.00
H1128  H     0.21949   0.88300   0.95988   0.00000  Uiso   1.00
N1129  N     0.16668   0.83334   0.95069   0.00000  Uiso   1.00
N1130  N     0.16665   0.83332   0.71597   0.00000  Uiso   1.00
O1131  O     0.16666   0.77322   0.87291   0.00000  Uiso   1.00
O1132  O     0.16667   0.89345   0.79375   0.00000  Uiso   1.00
O1133  O     0.16666   0.77321   0.79372   0.00000  Uiso   1.00
O1134  O     0.16667   0.89346   0.87294   0.00000  Uiso   1.00
O1135  O     0.09161   0.83334   0.86379   0.00000  Uiso   1.00
O1136  O     0.24172   0.83333   0.80288   0.00000  Uiso   1.00
O1137  O     0.09161   0.83333   0.78460   0.00000  Uiso   1.00
O1138  O     0.24172   0.83334   0.88207   0.00000  Uiso   1.00
C1139  C     0.32630   0.78931   0.78689   0.00000  Uiso   1.00
H1140  H     0.29097   0.77291   0.79261   0.00000  Uiso   1.00
O1141  O     0.01593   0.77788   0.75495   0.00000  Uiso   1.00
C1142  C     0.00703   0.87737   0.87978   0.00000  Uiso   1.00
H1143  H     0.04239   0.89375   0.87408   0.00000  Uiso   1.00
O1144  O     0.31736   0.88884   0.91167   0.00000  Uiso   1.00
C1145  C     0.10309   0.77344   0.94741   0.00000  Uiso   1.00
H1146  H     0.09179   0.77550   0.91045   0.00000  Uiso   1.00
O1147  O     0.08644   0.74374   0.96796   0.00000  Uiso   1.00
C1148  C     0.23024   0.89323   0.71926   0.00000  Uiso   1.00
H1149  H     0.24154   0.89116   0.75621   0.00000  Uiso   1.00
O1150  O     0.24688   0.92294   0.69870   0.00000  Uiso   1.00
C1151  C     0.49993   0.75409   0.83345   0.00000  Uiso   1.00
C1152  C     0.50007   0.91258   0.83321   0.00000  Uiso   1.00
C1153  C     0.40161   0.83192   0.82191   0.00000  Uiso   1.00
C1154  C     0.59839   0.83475   0.84476   0.00000  Uiso   1.00
C1155  C     0.34716   0.82402   0.81808   0.00000  Uiso   1.00
C1156  C     0.65284   0.84266   0.84858   0.00000  Uiso   1.00
C1157  C     0.49967   0.68838   0.79109   0.00000  Uiso   1.00
C1158  C     0.50033   0.97829   0.87558   0.00000  Uiso   1.00
C1159  C     0.49975   0.97913   0.79094   0.00000  Uiso   1.00
C1160  C     0.50025   0.68754   0.87572   0.00000  Uiso   1.00
C1161  C     0.50007   0.95723   0.83318   0.00000  Uiso   1.00
C1162  C     0.49993   0.70943   0.83349   0.00000  Uiso   1.00
C1163  C     0.47068   0.80550   0.68937   0.00000  Uiso   1.00
C1164  C     0.52932   0.86117   0.97730   0.00000  Uiso   1.00
C1165  C     0.47020   0.80509   0.97320   0.00000  Uiso   1.00
C1166  C     0.52980   0.86158   0.69346   0.00000  Uiso   1.00
Cu1167 Cu    0.50000   0.83334   0.88022   0.00000  Uiso   1.00
Cu1168 Cu    0.50000   0.83333   0.78645   0.00000  Uiso   1.00
H1169  H     0.49940   0.70471   0.75801   0.00000  Uiso   1.00
H1170  H     0.50060   0.96196   0.90866   0.00000  Uiso   1.00
H1171  H     0.49951   0.96346   0.75783   0.00000  Uiso   1.00
H1172  H     0.50049   0.70320   0.90884   0.00000  Uiso   1.00
H1173  H     0.44717   0.78366   0.70678   0.00000  Uiso   1.00
H1174  H     0.55282   0.88300   0.95988   0.00000  Uiso   1.00
N1175  N     0.50001   0.83334   0.95069   0.00000  Uiso   1.00
N1176  N     0.49999   0.83332   0.71597   0.00000  Uiso   1.00
O1177  O     0.50000   0.77322   0.87291   0.00000  Uiso   1.00
O1178  O     0.50000   0.89345   0.79375   0.00000  Uiso   1.00
O1179  O     0.50000   0.77321   0.79372   0.00000  Uiso   1.00
O1180  O     0.50000   0.89346   0.87294   0.00000  Uiso   1.00
O1181  O     0.42495   0.83334   0.86379   0.00000  Uiso   1.00
O1182  O     0.57505   0.83333   0.80288   0.00000  Uiso   1.00
O1183  O     0.42494   0.83333   0.78460   0.00000  Uiso   1.00
O1184  O     0.57506   0.83334   0.88207   0.00000  Uiso   1.00
C1185  C     0.65964   0.78931   0.78689   0.00000  Uiso   1.00
H1186  H     0.62430   0.77291   0.79261   0.00000  Uiso   1.00
O1187  O     0.34926   0.77788   0.75495   0.00000  Uiso   1.00
C1188  C     0.34036   0.87737   0.87978   0.00000  Uiso   1.00
H1189  H     0.37572   0.89375   0.87408   0.00000  Uiso   1.00
O1190  O     0.65069   0.88884   0.91167   0.00000  Uiso   1.00
C1191  C     0.43643   0.77344   0.94741   0.00000  Uiso   1.00
H1192  H     0.42513   0.77550   0.91045   0.00000  Uiso   1.00
O1193  O     0.41977   0.74374   0.96796   0.00000  Uiso   1.00
C1194  C     0.56357   0.89323   0.71926   0.00000  Uiso   1.00
H1195  H     0.57488   0.89116   0.75621   0.00000  Uiso   1.00
O1196  O     0.58021   0.92294   0.69870   0.00000  Uiso   1.00
C1197  C     0.83326   0.75409   0.83345   0.00000  Uiso   1.00
C1198  C     0.83340   0.91258   0.83321   0.00000  Uiso   1.00
C1199  C     0.73494   0.83192   0.82191   0.00000  Uiso   1.00
C1200  C     0.93172   0.83475   0.84476   0.00000  Uiso   1.00
C1201  C     0.68049   0.82402   0.81808   0.00000  Uiso   1.00
C1202  C     0.98617   0.84266   0.84858   0.00000  Uiso   1.00
C1203  C     0.83301   0.68838   0.79109   0.00000  Uiso   1.00
C1204  C     0.83366   0.97829   0.87558   0.00000  Uiso   1.00
C1205  C     0.83308   0.97913   0.79094   0.00000  Uiso   1.00
C1206  C     0.83358   0.68754   0.87572   0.00000  Uiso   1.00
C1207  C     0.83340   0.95723   0.83318   0.00000  Uiso   1.00
C1208  C     0.83326   0.70943   0.83349   0.00000  Uiso   1.00
C1209  C     0.80401   0.80550   0.68937   0.00000  Uiso   1.00
C1210  C     0.86266   0.86117   0.97730   0.00000  Uiso   1.00
C1211  C     0.80353   0.80509   0.97320   0.00000  Uiso   1.00
C1212  C     0.86313   0.86158   0.69346   0.00000  Uiso   1.00
Cu1213 Cu    0.83333   0.83334   0.88022   0.00000  Uiso   1.00
Cu1214 Cu    0.83333   0.83333   0.78645   0.00000  Uiso   1.00
H1215  H     0.83273   0.70471   0.75801   0.00000  Uiso   1.00
H1216  H     0.83394   0.96196   0.90866   0.00000  Uiso   1.00
H1217  H     0.83285   0.96346   0.75783   0.00000  Uiso   1.00
H1218  H     0.83382   0.70320   0.90884   0.00000  Uiso   1.00
H1219  H     0.78051   0.78366   0.70678   0.00000  Uiso   1.00
H1220  H     0.88616   0.88300   0.95988   0.00000  Uiso   1.00
N1221  N     0.83335   0.83334   0.95069   0.00000  Uiso   1.00
N1222  N     0.83332   0.83332   0.71597   0.00000  Uiso   1.00
O1223  O     0.83333   0.77322   0.87291   0.00000  Uiso   1.00
O1224  O     0.83334   0.89345   0.79375   0.00000  Uiso   1.00
O1225  O     0.83333   0.77321   0.79372   0.00000  Uiso   1.00
O1226  O     0.83334   0.89346   0.87294   0.00000  Uiso   1.00
O1227  O     0.75828   0.83334   0.86379   0.00000  Uiso   1.00
O1228  O     0.90839   0.83333   0.80288   0.00000  Uiso   1.00
O1229  O     0.75828   0.83333   0.78460   0.00000  Uiso   1.00
O1230  O     0.90839   0.83334   0.88207   0.00000  Uiso   1.00
C1231  C     0.99297   0.78931   0.78689   0.00000  Uiso   1.00
H1232  H     0.95763   0.77291   0.79261   0.00000  Uiso   1.00
O1233  O     0.68260   0.77788   0.75495   0.00000  Uiso   1.00
C1234  C     0.67369   0.87737   0.87978   0.00000  Uiso   1.00
H1235  H     0.70906   0.89375   0.87408   0.00000  Uiso   1.00
O1236  O     0.98402   0.88884   0.91167   0.00000  Uiso   1.00
C1237  C     0.76976   0.77344   0.94741   0.00000  Uiso   1.00
H1238  H     0.75846   0.77550   0.91045   0.00000  Uiso   1.00
O1239  O     0.75310   0.74374   0.96796   0.00000  Uiso   1.00
C1240  C     0.89690   0.89323   0.71926   0.00000  Uiso   1.00
H1241  H     0.90821   0.89116   0.75621   0.00000  Uiso   1.00
O1242  O     0.91355   0.92294   0.69870   0.00000  Uiso   1.00
loop_
_geom_bond_atom_site_label_1
_geom_bond_atom_site_label_2
_geom_bond_distance
_geom_bond_site_symmetry_2
_ccdc_geom_bond_type
C1     O29     1.294   .     A
C1     C12     1.450   .     S
C1     O27     1.299   .     A
C2     O30     1.294   .     A
C2     C11     1.450   .     S
C2     O28     1.299   .     A
C3     O31     1.287   .     A
C3     O33     1.294   .     A
C3     C5      1.438   .     S
C4     O34     1.294   .     A
C4     O32     1.287   .     A
C4     C6      1.438   .     S
C5     C98     1.359   1_455 S
C5     C127    1.499   1_455 S
C6     C51     1.359   .     S
C6     C84     1.499   .     S
C7     H19     1.083   .     S
C7     C12     1.403   .     A
C7     C285    1.383   1_545 S
C8     H20     1.083   .     S
C8     C11     1.403   .     A
C8     C148    1.383   .     S
C9     C11     1.400   .     A
C9     H21     1.083   .     S
C9     C145    1.383   .     S
C10    H22     1.083   .     S
C10    C12     1.400   .     A
C10    C284    1.383   1_545 S
C13    N26     1.354   .     A
C13    H23     1.082   .     S
C13    C843    1.421   1_554 S
C14    N25     1.354   .     A
C14    H24     1.082   .     S
C14    C430    1.421   .     S
C15    N25     1.391   .     A
C15    C41     1.485   .     S
C15    C427    1.421   .     S
C16    C44     1.485   .     S
C16    N26     1.391   .     A
C16    C842    1.421   1_554 S
Cu17   N25     2.025   .     S
Cu17   Cu18    2.695   .     S
Cu17   O30     1.962   .     S
Cu17   O31     1.975   .     S
Cu17   O34     1.967   .     S
Cu17   O27     1.966   .     S
Cu18   N26     2.025   .     S
Cu18   O29     1.962   .     S
Cu18   O33     1.967   .     S
Cu18   O32     1.975   .     S
Cu18   O28     1.966   .     S
C35    H36     1.085   .     S
C35    C51     1.499   .     S
C35    O83     1.221   .     S
O37    C127    1.221   1_455 S
C38    H39     1.085   .     S
C38    C98     1.499   1_455 S
C38    O132    1.221   1_455 S
O40    C84     1.221   .     S
C41    H42     1.072   .     S
C41    O43     1.222   .     D
C44    O46     1.222   .     D
C44    H45     1.072   .     S
C47    O75     1.294   .     A
C47    C58     1.450   .     S
C47    O73     1.299   .     A
C48    O76     1.294   .     A
C48    C57     1.450   .     S
C48    O74     1.299   .     A
C49    O77     1.287   .     A
C49    O79     1.294   .     A
C49    C51     1.438   .     S
C50    O80     1.294   .     A
C50    O78     1.287   .     A
C50    C52     1.438   .     S
C52    C97     1.359   .     S
C52    C130    1.499   .     S
C53    H65     1.083   .     S
C53    C58     1.403   .     A
C53    C331    1.383   1_545 S
C54    H66     1.083   .     S
C54    C57     1.403   .     A
C54    C194    1.383   .     S
C55    C57     1.400   .     A
C55    H67     1.083   .     S
C55    C191    1.383   .     S
C56    H68     1.083   .     S
C56    C58     1.400   .     A
C56    C330    1.383   1_545 S
C59    N72     1.354   .     A
C59    H69     1.082   .     S
C59    C889    1.421   1_554 S
C60    N71     1.354   .     A
C60    H70     1.082   .     S
C60    C476    1.421   .     S
C61    N71     1.391   .     A
C61    C87     1.485   .     S
C61    C473    1.421   .     S
C62    C90     1.485   .     S
C62    N72     1.391   .     A
C62    C888    1.421   1_554 S
Cu63   N71     2.025   .     S
Cu63   Cu64    2.695   .     S
Cu63   O76     1.962   .     S
Cu63   O77     1.975   .     S
Cu63   O80     1.967   .     S
Cu63   O73     1.966   .     S
Cu64   N72     2.025   .     S
Cu64   O75     1.962   .     S
Cu64   O79     1.967   .     S
Cu64   O78     1.975   .     S
Cu64   O74     1.966   .     S
C81    H82     1.085   .     S
C81    C97     1.499   .     S
C81    O129    1.221   .     S
C84    H85     1.085   .     S
O86    C130    1.221   .     S
C87    H88     1.072   .     S
C87    O89     1.222   .     D
C90    O92     1.222   .     D
C90    H91     1.072   .     S
C93    O121    1.294   .     A
C93    C104    1.450   .     S
C93    O119    1.299   .     A
C94    O122    1.294   .     A
C94    C103    1.450   .     S
C94    O120    1.299   .     A
C95    O123    1.287   .     A
C95    O125    1.294   .     A
C95    C97     1.438   .     S
C96    O126    1.294   .     A
C96    O124    1.287   .     A
C96    C98     1.438   .     S
C98    C5      1.359   1_655 S
C98    C38     1.499   1_655 S
C99    H111    1.083   .     S
C99    C104    1.403   .     A
C99    C377    1.383   1_545 S
C100   H112    1.083   .     S
C100   C103    1.403   .     A
C100   C240    1.383   .     S
C101   C103    1.400   .     A
C101   H113    1.083   .     S
C101   C237    1.383   .     S
C102   H114    1.083   .     S
C102   C104    1.400   .     A
C102   C376    1.383   1_545 S
C105   N118    1.354   .     A
C105   H115    1.082   .     S
C105   C935    1.421   1_554 S
C106   N117    1.354   .     A
C106   H116    1.082   .     S
C106   C522    1.421   .     S
C107   N117    1.391   .     A
C107   C133    1.485   .     S
C107   C519    1.421   .     S
C108   C136    1.485   .     S
C108   N118    1.391   .     A
C108   C934    1.421   1_554 S
Cu109  N117    2.025   .     S
Cu109  Cu110   2.695   .     S
Cu109  O122    1.962   .     S
Cu109  O123    1.975   .     S
Cu109  O126    1.967   .     S
Cu109  O119    1.966   .     S
Cu110  N118    2.025   .     S
Cu110  O121    1.962   .     S
Cu110  O125    1.967   .     S
Cu110  O124    1.975   .     S
Cu110  O120    1.966   .     S
C127   H128    1.085   .     S
C127   C5      1.499   1_655 S
C127   O37     1.221   1_655 S
C130   H131    1.085   .     S
O132   C38     1.221   1_655 S
C133   H134    1.072   .     S
C133   O135    1.222   .     D
C136   O138    1.222   .     D
C136   H137    1.072   .     S
C139   O167    1.294   .     A
C139   C150    1.450   .     S
C139   O165    1.299   .     A
C140   O168    1.294   .     A
C140   C149    1.450   .     S
C140   O166    1.299   .     A
C141   O169    1.287   .     A
C141   O171    1.294   .     A
C141   C143    1.438   .     S
C142   O172    1.294   .     A
C142   O170    1.287   .     A
C142   C144    1.438   .     S
C143   C236    1.359   1_455 S
C143   C265    1.499   1_455 S
C144   C189    1.359   .     S
C144   C222    1.499   .     S
C145   H157    1.083   .     S
C145   C150    1.403   .     A
C146   H158    1.083   .     S
C146   C149    1.403   .     A
C146   C286    1.383   .     S
C147   C149    1.400   .     A
C147   H159    1.083   .     S
C147   C283    1.383   .     S
C148   H160    1.083   .     S
C148   C150    1.400   .     A
C151   N164    1.354   .     A
C151   H161    1.082   .     S
C151   C981    1.421   1_554 S
C152   N163    1.354   .     A
C152   H162    1.082   .     S
C152   C568    1.421   .     S
C153   N163    1.391   .     A
C153   C179    1.485   .     S
C153   C565    1.421   .     S
C154   C182    1.485   .     S
C154   N164    1.391   .     A
C154   C980    1.421   1_554 S
Cu155  N163    2.025   .     S
Cu155  Cu156   2.695   .     S
Cu155  O168    1.962   .     S
Cu155  O169    1.975   .     S
Cu155  O172    1.967   .     S
Cu155  O165    1.966   .     S
Cu156  N164    2.025   .     S
Cu156  O167    1.962   .     S
Cu156  O171    1.967   .     S
Cu156  O170    1.975   .     S
Cu156  O166    1.966   .     S
C173   H174    1.085   .     S
C173   C189    1.499   .     S
C173   O221    1.221   .     S
O175   C265    1.221   1_455 S
C176   H177    1.085   .     S
C176   C236    1.499   1_455 S
C176   O270    1.221   1_455 S
O178   C222    1.221   .     S
C179   H180    1.072   .     S
C179   O181    1.222   .     D
C182   O184    1.222   .     D
C182   H183    1.072   .     S
C185   O213    1.294   .     A
C185   C196    1.450   .     S
C185   O211    1.299   .     A
C186   O214    1.294   .     A
C186   C195    1.450   .     S
C186   O212    1.299   .     A
C187   O215    1.287   .     A
C187   O217    1.294   .     A
C187   C189    1.438   .     S
C188   O218    1.294   .     A
C188   O216    1.287   .     A
C188   C190    1.438   .     S
C190   C235    1.359   .     S
C190   C268    1.499   .     S
C191   H203    1.083   .     S
C191   C196    1.403   .     A
C192   H204    1.083   .     S
C192   C195    1.403   .     A
C192   C332    1.383   .     S
C193   C195    1.400   .     A
C193   H205    1.083   .     S
C193   C329    1.383   .     S
C194   H206    1.083   .     S
C194   C196    1.400   .     A
C197   N210    1.354   .     A
C197   H207    1.082   .     S
C197   C1027   1.421   1_554 S
C198   N209    1.354   .     A
C198   H208    1.082   .     S
C198   C614    1.421   .     S
C199   N209    1.391   .     A
C199   C225    1.485   .     S
C199   C611    1.421   .     S
C200   C228    1.485   .     S
C200   N210    1.391   .     A
C200   C1026   1.421   1_554 S
Cu201  N209    2.025   .     S
Cu201  Cu202   2.695   .     S
Cu201  O214    1.962   .     S
Cu201  O215    1.975   .     S
Cu201  O218    1.967   .     S
Cu201  O211    1.966   .     S
Cu202  N210    2.025   .     S
Cu202  O213    1.962   .     S
Cu202  O217    1.967   .     S
Cu202  O216    1.975   .     S
Cu202  O212    1.966   .     S
C219   H220    1.085   .     S
C219   C235    1.499   .     S
C219   O267    1.221   .     S
C222   H223    1.085   .     S
O224   C268    1.221   .     S
C225   H226    1.072   .     S
C225   O227    1.222   .     D
C228   O230    1.222   .     D
C228   H229    1.072   .     S
C231   O259    1.294   .     A
C231   C242    1.450   .     S
C231   O257    1.299   .     A
C232   O260    1.294   .     A
C232   C241    1.450   .     S
C232   O258    1.299   .     A
C233   O261    1.287   .     A
C233   O263    1.294   .     A
C233   C235    1.438   .     S
C234   O264    1.294   .     A
C234   O262    1.287   .     A
C234   C236    1.438   .     S
C236   C143    1.359   1_655 S
C236   C176    1.499   1_655 S
C237   H249    1.083   .     S
C237   C242    1.403   .     A
C238   H250    1.083   .     S
C238   C241    1.403   .     A
C238   C378    1.383   .     S
C239   C241    1.400   .     A
C239   H251    1.083   .     S
C239   C375    1.383   .     S
C240   H252    1.083   .     S
C240   C242    1.400   .     A
C243   N256    1.354   .     A
C243   H253    1.082   .     S
C243   C1073   1.421   1_554 S
C244   N255    1.354   .     A
C244   H254    1.082   .     S
C244   C660    1.421   .     S
C245   N255    1.391   .     A
C245   C271    1.485   .     S
C245   C657    1.421   .     S
C246   C274    1.485   .     S
C246   N256    1.391   .     A
C246   C1072   1.421   1_554 S
Cu247  N255    2.025   .     S
Cu247  Cu248   2.695   .     S
Cu247  O260    1.962   .     S
Cu247  O261    1.975   .     S
Cu247  O264    1.967   .     S
Cu247  O257    1.966   .     S
Cu248  N256    2.025   .     S
Cu248  O259    1.962   .     S
Cu248  O263    1.967   .     S
Cu248  O262    1.975   .     S
Cu248  O258    1.966   .     S
C265   H266    1.085   .     S
C265   C143    1.499   1_655 S
C265   O175    1.221   1_655 S
C268   H269    1.085   .     S
O270   C176    1.221   1_655 S
C271   H272    1.072   .     S
C271   O273    1.222   .     D
C274   O276    1.222   .     D
C274   H275    1.072   .     S
C277   O305    1.294   .     A
C277   C288    1.450   .     S
C277   O303    1.299   .     A
C278   O306    1.294   .     A
C278   C287    1.450   .     S
C278   O304    1.299   .     A
C279   O307    1.287   .     A
C279   O309    1.294   .     A
C279   C281    1.438   .     S
C280   O310    1.294   .     A
C280   O308    1.287   .     A
C280   C282    1.438   .     S
C281   C374    1.359   1_455 S
C281   C403    1.499   1_455 S
C282   C327    1.359   .     S
C282   C360    1.499   .     S
C283   H295    1.083   .     S
C283   C288    1.403   .     A
C284   H296    1.083   .     S
C284   C287    1.403   .     A
C284   C10     1.383   1_565 S
C285   C287    1.400   .     A
C285   H297    1.083   .     S
C285   C7      1.383   1_565 S
C286   H298    1.083   .     S
C286   C288    1.400   .     A
C289   N302    1.354   .     A
C289   H299    1.082   .     S
C289   C1119   1.421   1_554 S
C290   N301    1.354   .     A
C290   H300    1.082   .     S
C290   C706    1.421   .     S
C291   N301    1.391   .     A
C291   C317    1.485   .     S
C291   C703    1.421   .     S
C292   C320    1.485   .     S
C292   N302    1.391   .     A
C292   C1118   1.421   1_554 S
Cu293  N301    2.025   .     S
Cu293  Cu294   2.695   .     S
Cu293  O306    1.962   .     S
Cu293  O307    1.975   .     S
Cu293  O310    1.967   .     S
Cu293  O303    1.966   .     S
Cu294  N302    2.025   .     S
Cu294  O305    1.962   .     S
Cu294  O309    1.967   .     S
Cu294  O308    1.975   .     S
Cu294  O304    1.966   .     S
C311   H312    1.085   .     S
C311   C327    1.499   .     S
C311   O359    1.221   .     S
O313   C403    1.221   1_455 S
C314   H315    1.085   .     S
C314   C374    1.499   1_455 S
C314   O408    1.221   1_455 S
O316   C360    1.221   .     S
C317   H318    1.072   .     S
C317   O319    1.222   .     D
C320   O322    1.222   .     D
C320   H321    1.072   .     S
C323   O351    1.294   .     A
C323   C334    1.450   .     S
C323   O349    1.299   .     A
C324   O352    1.294   .     A
C324   C333    1.450   .     S
C324   O350    1.299   .     A
C325   O353    1.287   .     A
C325   O355    1.294   .     A
C325   C327    1.438   .     S
C326   O356    1.294   .     A
C326   O354    1.287   .     A
C326   C328    1.438   .     S
C328   C373    1.359   .     S
C328   C406    1.499   .     S
C329   H341    1.083   .     S
C329   C334    1.403   .     A
C330   H342    1.083   .     S
C330   C333    1.403   .     A
C330   C56     1.383   1_565 S
C331   C333    1.400   .     A
C331   H343    1.083   .     S
C331   C53     1.383   1_565 S
C332   H344    1.083   .     S
C332   C334    1.400   .     A
C335   N348    1.354   .     A
C335   H345    1.082   .     S
C335   C1165   1.421   1_554 S
C336   N347    1.354   .     A
C336   H346    1.082   .     S
C336   C752    1.421   .     S
C337   N347    1.391   .     A
C337   C363    1.485   .     S
C337   C749    1.421   .     S
C338   C366    1.485   .     S
C338   N348    1.391   .     A
C338   C1164   1.421   1_554 S
Cu339  N347    2.025   .     S
Cu339  Cu340   2.695   .     S
Cu339  O352    1.962   .     S
Cu339  O353    1.975   .     S
Cu339  O356    1.967   .     S
Cu339  O349    1.966   .     S
Cu340  N348    2.025   .     S
Cu340  O351    1.962   .     S
Cu340  O355    1.967   .     S
Cu340  O354    1.975   .     S
Cu340  O350    1.966   .     S
C357   H358    1.085   .     S
C357   C373    1.499   .     S
C357   O405    1.221   .     S
C360   H361    1.085   .     S
O362   C406    1.221   .     S
C363   H364    1.072   .     S
C363   O365    1.222   .     D
C366   O368    1.222   .     D
C366   H367    1.072   .     S
C369   O397    1.294   .     A
C369   C380    1.450   .     S
C369   O395    1.299   .     A
C370   O398    1.294   .     A
C370   C379    1.450   .     S
C370   O396    1.299   .     A
C371   O399    1.287   .     A
C371   O401    1.294   .     A
C371   C373    1.438   .     S
C372   O402    1.294   .     A
C372   O400    1.287   .     A
C372   C374    1.438   .     S
C374   C281    1.359   1_655 S
C374   C314    1.499   1_655 S
C375   H387    1.083   .     S
C375   C380    1.403   .     A
C376   H388    1.083   .     S
C376   C379    1.403   .     A
C376   C102    1.383   1_565 S
C377   C379    1.400   .     A
C377   H389    1.083   .     S
C377   C99     1.383   1_565 S
C378   H390    1.083   .     S
C378   C380    1.400   .     A
C381   N394    1.354   .     A
C381   H391    1.082   .     S
C381   C1211   1.421   1_554 S
C382   N393    1.354   .     A
C382   H392    1.082   .     S
C382   C798    1.421   .     S
C383   N393    1.391   .     A
C383   C409    1.485   .     S
C383   C795    1.421   .     S
C384   C412    1.485   .     S
C384   N394    1.391   .     A
C384   C1210   1.421   1_554 S
Cu385  N393    2.025   .     S
Cu385  Cu386   2.695   .     S
Cu385  O398    1.962   .     S
Cu385  O399    1.975   .     S
Cu385  O402    1.967   .     S
Cu385  O395    1.966   .     S
Cu386  N394    2.025   .     S
Cu386  O397    1.962   .     S
Cu386  O401    1.967   .     S
Cu386  O400    1.975   .     S
Cu386  O396    1.966   .     S
C403   H404    1.085   .     S
C403   C281    1.499   1_655 S
C403   O313    1.221   1_655 S
C406   H407    1.085   .     S
O408   C314    1.221   1_655 S
C409   H410    1.072   .     S
C409   O411    1.222   .     D
C412   O414    1.222   .     D
C412   H413    1.072   .     S
C415   O443    1.294   .     A
C415   C426    1.450   .     S
C415   O441    1.299   .     A
C416   O444    1.294   .     A
C416   C425    1.450   .     S
C416   O442    1.299   .     A
C417   O445    1.287   .     A
C417   O447    1.294   .     A
C417   C419    1.438   .     S
C418   O448    1.294   .     A
C418   O446    1.287   .     A
C418   C420    1.438   .     S
C419   C512    1.359   1_455 S
C419   C541    1.499   1_455 S
C420   C465    1.359   .     S
C420   C498    1.499   .     S
C421   H433    1.083   .     S
C421   C426    1.403   .     A
C421   C699    1.383   1_545 S
C422   H434    1.083   .     S
C422   C425    1.403   .     A
C422   C562    1.383   .     S
C423   C425    1.400   .     A
C423   H435    1.083   .     S
C423   C559    1.383   .     S
C424   H436    1.083   .     S
C424   C426    1.400   .     A
C424   C698    1.383   1_545 S
C427   N440    1.354   .     A
C427   H437    1.082   .     S
C428   N439    1.354   .     A
C428   H438    1.082   .     S
C428   C844    1.421   .     S
C429   N439    1.391   .     A
C429   C455    1.485   .     S
C429   C841    1.421   .     S
C430   C458    1.485   .     S
C430   N440    1.391   .     A
Cu431  N439    2.025   .     S
Cu431  Cu432   2.695   .     S
Cu431  O444    1.962   .     S
Cu431  O445    1.975   .     S
Cu431  O448    1.967   .     S
Cu431  O441    1.966   .     S
Cu432  N440    2.025   .     S
Cu432  O443    1.962   .     S
Cu432  O447    1.967   .     S
Cu432  O446    1.975   .     S
Cu432  O442    1.966   .     S
C449   H450    1.085   .     S
C449   C465    1.499   .     S
C449   O497    1.221   .     S
O451   C541    1.221   1_455 S
C452   H453    1.085   .     S
C452   C512    1.499   1_455 S
C452   O546    1.221   1_455 S
O454   C498    1.221   .     S
C455   H456    1.072   .     S
C455   O457    1.222   .     D
C458   O460    1.222   .     D
C458   H459    1.072   .     S
C461   O489    1.294   .     A
C461   C472    1.450   .     S
C461   O487    1.299   .     A
C462   O490    1.294   .     A
C462   C471    1.450   .     S
C462   O488    1.299   .     A
C463   O491    1.287   .     A
C463   O493    1.294   .     A
C463   C465    1.438   .     S
C464   O494    1.294   .     A
C464   O492    1.287   .     A
C464   C466    1.438   .     S
C466   C511    1.359   .     S
C466   C544    1.499   .     S
C467   H479    1.083   .     S
C467   C472    1.403   .     A
C467   C745    1.383   1_545 S
C468   H480    1.083   .     S
C468   C471    1.403   .     A
C468   C608    1.383   .     S
C469   C471    1.400   .     A
C469   H481    1.083   .     S
C469   C605    1.383   .     S
C470   H482    1.083   .     S
C470   C472    1.400   .     A
C470   C744    1.383   1_545 S
C473   N486    1.354   .     A
C473   H483    1.082   .     S
C474   N485    1.354   .     A
C474   H484    1.082   .     S
C474   C890    1.421   .     S
C475   N485    1.391   .     A
C475   C501    1.485   .     S
C475   C887    1.421   .     S
C476   C504    1.485   .     S
C476   N486    1.391   .     A
Cu477  N485    2.025   .     S
Cu477  Cu478   2.695   .     S
Cu477  O490    1.962   .     S
Cu477  O491    1.975   .     S
Cu477  O494    1.967   .     S
Cu477  O487    1.966   .     S
Cu478  N486    2.025   .     S
Cu478  O489    1.962   .     S
Cu478  O493    1.967   .     S
Cu478  O492    1.975   .     S
Cu478  O488    1.966   .     S
C495   H496    1.085   .     S
C495   C511    1.499   .     S
C495   O543    1.221   .     S
C498   H499    1.085   .     S
O500   C544    1.221   .     S
C501   H502    1.072   .     S
C501   O503    1.222   .     D
C504   O506    1.222   .     D
C504   H505    1.072   .     S
C507   O535    1.294   .     A
C507   C518    1.450   .     S
C507   O533    1.299   .     A
C508   O536    1.294   .     A
C508   C517    1.450   .     S
C508   O534    1.299   .     A
C509   O537    1.287   .     A
C509   O539    1.294   .     A
C509   C511    1.438   .     S
C510   O540    1.294   .     A
C510   O538    1.287   .     A
C510   C512    1.438   .     S
C512   C419    1.359   1_655 S
C512   C452    1.499   1_655 S
C513   H525    1.083   .     S
C513   C518    1.403   .     A
C513   C791    1.383   1_545 S
C514   H526    1.083   .     S
C514   C517    1.403   .     A
C514   C654    1.383   .     S
C515   C517    1.400   .     A
C515   H527    1.083   .     S
C515   C651    1.383   .     S
C516   H528    1.083   .     S
C516   C518    1.400   .     A
C516   C790    1.383   1_545 S
C519   N532    1.354   .     A
C519   H529    1.082   .     S
C520   N531    1.354   .     A
C520   H530    1.082   .     S
C520   C936    1.421   .     S
C521   N531    1.391   .     A
C521   C547    1.485   .     S
C521   C933    1.421   .     S
C522   C550    1.485   .     S
C522   N532    1.391   .     A
Cu523  N531    2.025   .     S
Cu523  Cu524   2.695   .     S
Cu523  O536    1.962   .     S
Cu523  O537    1.975   .     S
Cu523  O540    1.967   .     S
Cu523  O533    1.966   .     S
Cu524  N532    2.025   .     S
Cu524  O535    1.962   .     S
Cu524  O539    1.967   .     S
Cu524  O538    1.975   .     S
Cu524  O534    1.966   .     S
C541   H542    1.085   .     S
C541   C419    1.499   1_655 S
C541   O451    1.221   1_655 S
C544   H545    1.085   .     S
O546   C452    1.221   1_655 S
C547   H548    1.072   .     S
C547   O549    1.222   .     D
C550   O552    1.222   .     D
C550   H551    1.072   .     S
C553   O581    1.294   .     A
C553   C564    1.450   .     S
C553   O579    1.299   .     A
C554   O582    1.294   .     A
C554   C563    1.450   .     S
C554   O580    1.299   .     A
C555   O583    1.287   .     A
C555   O585    1.294   .     A
C555   C557    1.438   .     S
C556   O586    1.294   .     A
C556   O584    1.287   .     A
C556   C558    1.438   .     S
C557   C650    1.359   1_455 S
C557   C679    1.499   1_455 S
C558   C603    1.359   .     S
C558   C636    1.499   .     S
C559   H571    1.083   .     S
C559   C564    1.403   .     A
C560   H572    1.083   .     S
C560   C563    1.403   .     A
C560   C700    1.383   .     S
C561   C563    1.400   .     A
C561   H573    1.083   .     S
C561   C697    1.383   .     S
C562   H574    1.083   .     S
C562   C564    1.400   .     A
C565   N578    1.354   .     A
C565   H575    1.082   .     S
C566   N577    1.354   .     A
C566   H576    1.082   .     S
C566   C982    1.421   .     S
C567   N577    1.391   .     A
C567   C593    1.485   .     S
C567   C979    1.421   .     S
C568   C596    1.485   .     S
C568   N578    1.391   .     A
Cu569  N577    2.025   .     S
Cu569  Cu570   2.695   .     S
Cu569  O582    1.962   .     S
Cu569  O583    1.975   .     S
Cu569  O586    1.967   .     S
Cu569  O579    1.966   .     S
Cu570  N578    2.025   .     S
Cu570  O581    1.962   .     S
Cu570  O585    1.967   .     S
Cu570  O584    1.975   .     S
Cu570  O580    1.966   .     S
C587   H588    1.085   .     S
C587   C603    1.499   .     S
C587   O635    1.221   .     S
O589   C679    1.221   1_455 S
C590   H591    1.085   .     S
C590   C650    1.499   1_455 S
C590   O684    1.221   1_455 S
O592   C636    1.221   .     S
C593   H594    1.072   .     S
C593   O595    1.222   .     D
C596   O598    1.222   .     D
C596   H597    1.072   .     S
C599   O627    1.294   .     A
C599   C610    1.450   .     S
C599   O625    1.299   .     A
C600   O628    1.294   .     A
C600   C609    1.450   .     S
C600   O626    1.299   .     A
C601   O629    1.287   .     A
C601   O631    1.294   .     A
C601   C603    1.438   .     S
C602   O632    1.294   .     A
C602   O630    1.287   .     A
C602   C604    1.438   .     S
C604   C649    1.359   .     S
C604   C682    1.499   .     S
C605   H617    1.083   .     S
C605   C610    1.403   .     A
C606   H618    1.083   .     S
C606   C609    1.403   .     A
C606   C746    1.383   .     S
C607   C609    1.400   .     A
C607   H619    1.083   .     S
C607   C743    1.383   .     S
C608   H620    1.083   .     S
C608   C610    1.400   .     A
C611   N624    1.354   .     A
C611   H621    1.082   .     S
C612   N623    1.354   .     A
C612   H622    1.082   .     S
C612   C1028   1.421   .     S
C613   N623    1.391   .     A
C613   C639    1.485   .     S
C613   C1025   1.421   .     S
C614   C642    1.485   .     S
C614   N624    1.391   .     A
Cu615  N623    2.025   .     S
Cu615  Cu616   2.695   .     S
Cu615  O628    1.962   .     S
Cu615  O629    1.975   .     S
Cu615  O632    1.967   .     S
Cu615  O625    1.966   .     S
Cu616  N624    2.025   .     S
Cu616  O627    1.962   .     S
Cu616  O631    1.967   .     S
Cu616  O630    1.975   .     S
Cu616  O626    1.966   .     S
C633   H634    1.085   .     S
C633   C649    1.499   .     S
C633   O681    1.221   .     S
C636   H637    1.085   .     S
O638   C682    1.221   .     S
C639   H640    1.072   .     S
C639   O641    1.222   .     D
C642   O644    1.222   .     D
C642   H643    1.072   .     S
C645   O673    1.294   .     A
C645   C656    1.450   .     S
C645   O671    1.299   .     A
C646   O674    1.294   .     A
C646   C655    1.450   .     S
C646   O672    1.299   .     A
C647   O675    1.287   .     A
C647   O677    1.294   .     A
C647   C649    1.438   .     S
C648   O678    1.294   .     A
C648   O676    1.287   .     A
C648   C650    1.438   .     S
C650   C557    1.359   1_655 S
C650   C590    1.499   1_655 S
C651   H663    1.083   .     S
C651   C656    1.403   .     A
C652   H664    1.083   .     S
C652   C655    1.403   .     A
C652   C792    1.383   .     S
C653   C655    1.400   .     A
C653   H665    1.083   .     S
C653   C789    1.383   .     S
C654   H666    1.083   .     S
C654   C656    1.400   .     A
C657   N670    1.354   .     A
C657   H667    1.082   .     S
C658   N669    1.354   .     A
C658   H668    1.082   .     S
C658   C1074   1.421   .     S
C659   N669    1.391   .     A
C659   C685    1.485   .     S
C659   C1071   1.421   .     S
C660   C688    1.485   .     S
C660   N670    1.391   .     A
Cu661  N669    2.025   .     S
Cu661  Cu662   2.695   .     S
Cu661  O674    1.962   .     S
Cu661  O675    1.975   .     S
Cu661  O678    1.967   .     S
Cu661  O671    1.966   .     S
Cu662  N670    2.025   .     S
Cu662  O673    1.962   .     S
Cu662  O677    1.967   .     S
Cu662  O676    1.975   .     S
Cu662  O672    1.966   .     S
C679   H680    1.085   .     S
C679   C557    1.499   1_655 S
C679   O589    1.221   1_655 S
C682   H683    1.085   .     S
O684   C590    1.221   1_655 S
C685   H686    1.072   .     S
C685   O687    1.222   .     D
C688   O690    1.222   .     D
C688   H689    1.072   .     S
C691   O719    1.294   .     A
C691   C702    1.450   .     S
C691   O717    1.299   .     A
C692   O720    1.294   .     A
C692   C701    1.450   .     S
C692   O718    1.299   .     A
C693   O721    1.287   .     A
C693   O723    1.294   .     A
C693   C695    1.438   .     S
C694   O724    1.294   .     A
C694   O722    1.287   .     A
C694   C696    1.438   .     S
C695   C788    1.359   1_455 S
C695   C817    1.499   1_455 S
C696   C741    1.359   .     S
C696   C774    1.499   .     S
C697   H709    1.083   .     S
C697   C702    1.403   .     A
C698   H710    1.083   .     S
C698   C701    1.403   .     A
C698   C424    1.383   1_565 S
C699   C701    1.400   .     A
C699   H711    1.083   .     S
C699   C421    1.383   1_565 S
C700   H712    1.083   .     S
C700   C702    1.400   .     A
C703   N716    1.354   .     A
C703   H713    1.082   .     S
C704   N715    1.354   .     A
C704   H714    1.082   .     S
C704   C1120   1.421   .     S
C705   N715    1.391   .     A
C705   C731    1.485   .     S
C705   C1117   1.421   .     S
C706   C734    1.485   .     S
C706   N716    1.391   .     A
Cu707  N715    2.025   .     S
Cu707  Cu708   2.695   .     S
Cu707  O720    1.962   .     S
Cu707  O721    1.975   .     S
Cu707  O724    1.967   .     S
Cu707  O717    1.966   .     S
Cu708  N716    2.025   .     S
Cu708  O719    1.962   .     S
Cu708  O723    1.967   .     S
Cu708  O722    1.975   .     S
Cu708  O718    1.966   .     S
C725   H726    1.085   .     S
C725   C741    1.499   .     S
C725   O773    1.221   .     S
O727   C817    1.221   1_455 S
C728   H729    1.085   .     S
C728   C788    1.499   1_455 S
C728   O822    1.221   1_455 S
O730   C774    1.221   .     S
C731   H732    1.072   .     S
C731   O733    1.222   .     D
C734   O736    1.222   .     D
C734   H735    1.072   .     S
C737   O765    1.294   .     A
C737   C748    1.450   .     S
C737   O763    1.299   .     A
C738   O766    1.294   .     A
C738   C747    1.450   .     S
C738   O764    1.299   .     A
C739   O767    1.287   .     A
C739   O769    1.294   .     A
C739   C741    1.438   .     S
C740   O770    1.294   .     A
C740   O768    1.287   .     A
C740   C742    1.438   .     S
C742   C787    1.359   .     S
C742   C820    1.499   .     S
C743   H755    1.083   .     S
C743   C748    1.403   .     A
C744   H756    1.083   .     S
C744   C747    1.403   .     A
C744   C470    1.383   1_565 S
C745   C747    1.400   .     A
C745   H757    1.083   .     S
C745   C467    1.383   1_565 S
C746   H758    1.083   .     S
C746   C748    1.400   .     A
C749   N762    1.354   .     A
C749   H759    1.082   .     S
C750   N761    1.354   .     A
C750   H760    1.082   .     S
C750   C1166   1.421   .     S
C751   N761    1.391   .     A
C751   C777    1.485   .     S
C751   C1163   1.421   .     S
C752   C780    1.485   .     S
C752   N762    1.391   .     A
Cu753  N761    2.025   .     S
Cu753  Cu754   2.695   .     S
Cu753  O766    1.962   .     S
Cu753  O767    1.975   .     S
Cu753  O770    1.967   .     S
Cu753  O763    1.966   .     S
Cu754  N762    2.025   .     S
Cu754  O765    1.962   .     S
Cu754  O769    1.967   .     S
Cu754  O768    1.975   .     S
Cu754  O764    1.966   .     S
C771   H772    1.085   .     S
C771   C787    1.499   .     S
C771   O819    1.221   .     S
C774   H775    1.085   .     S
O776   C820    1.221   .     S
C777   H778    1.072   .     S
C777   O779    1.222   .     D
C780   O782    1.222   .     D
C780   H781    1.072   .     S
C783   O811    1.294   .     A
C783   C794    1.450   .     S
C783   O809    1.299   .     A
C784   O812    1.294   .     A
C784   C793    1.450   .     S
C784   O810    1.299   .     A
C785   O813    1.287   .     A
C785   O815    1.294   .     A
C785   C787    1.438   .     S
C786   O816    1.294   .     A
C786   O814    1.287   .     A
C786   C788    1.438   .     S
C788   C695    1.359   1_655 S
C788   C728    1.499   1_655 S
C789   H801    1.083   .     S
C789   C794    1.403   .     A
C790   H802    1.083   .     S
C790   C793    1.403   .     A
C790   C516    1.383   1_565 S
C791   C793    1.400   .     A
C791   H803    1.083   .     S
C791   C513    1.383   1_565 S
C792   H804    1.083   .     S
C792   C794    1.400   .     A
C795   N808    1.354   .     A
C795   H805    1.082   .     S
C796   N807    1.354   .     A
C796   H806    1.082   .     S
C796   C1212   1.421   .     S
C797   N807    1.391   .     A
C797   C823    1.485   .     S
C797   C1209   1.421   .     S
C798   C826    1.485   .     S
C798   N808    1.391   .     A
Cu799  N807    2.025   .     S
Cu799  Cu800   2.695   .     S
Cu799  O812    1.962   .     S
Cu799  O813    1.975   .     S
Cu799  O816    1.967   .     S
Cu799  O809    1.966   .     S
Cu800  N808    2.025   .     S
Cu800  O811    1.962   .     S
Cu800  O815    1.967   .     S
Cu800  O814    1.975   .     S
Cu800  O810    1.966   .     S
C817   H818    1.085   .     S
C817   C695    1.499   1_655 S
C817   O727    1.221   1_655 S
C820   H821    1.085   .     S
O822   C728    1.221   1_655 S
C823   H824    1.072   .     S
C823   O825    1.222   .     D
C826   O828    1.222   .     D
C826   H827    1.072   .     S
C829   O857    1.294   .     A
C829   C840    1.450   .     S
C829   O855    1.299   .     A
C830   O858    1.294   .     A
C830   C839    1.450   .     S
C830   O856    1.299   .     A
C831   O859    1.287   .     A
C831   O861    1.294   .     A
C831   C833    1.438   .     S
C832   O862    1.294   .     A
C832   O860    1.287   .     A
C832   C834    1.438   .     S
C833   C926    1.359   1_455 S
C833   C955    1.499   1_455 S
C834   C879    1.359   .     S
C834   C912    1.499   .     S
C835   H847    1.083   .     S
C835   C840    1.403   .     A
C835   C1113   1.383   1_545 S
C836   H848    1.083   .     S
C836   C839    1.403   .     A
C836   C976    1.383   .     S
C837   C839    1.400   .     A
C837   H849    1.083   .     S
C837   C973    1.383   .     S
C838   H850    1.083   .     S
C838   C840    1.400   .     A
C838   C1112   1.383   1_545 S
C841   N854    1.354   .     A
C841   H851    1.082   .     S
C842   N853    1.354   .     A
C842   H852    1.082   .     S
C842   C16     1.421   1_556 S
C843   N853    1.391   .     A
C843   C869    1.485   .     S
C843   C13     1.421   1_556 S
C844   C872    1.485   .     S
C844   N854    1.391   .     A
Cu845  N853    2.025   .     S
Cu845  Cu846   2.695   .     S
Cu845  O858    1.962   .     S
Cu845  O859    1.975   .     S
Cu845  O862    1.967   .     S
Cu845  O855    1.966   .     S
Cu846  N854    2.025   .     S
Cu846  O857    1.962   .     S
Cu846  O861    1.967   .     S
Cu846  O860    1.975   .     S
Cu846  O856    1.966   .     S
C863   H864    1.085   .     S
C863   C879    1.499   .     S
C863   O911    1.221   .     S
O865   C955    1.221   1_455 S
C866   H867    1.085   .     S
C866   C926    1.499   1_455 S
C866   O960    1.221   1_455 S
O868   C912    1.221   .     S
C869   H870    1.072   .     S
C869   O871    1.222   .     D
C872   O874    1.222   .     D
C872   H873    1.072   .     S
C875   O903    1.294   .     A
C875   C886    1.450   .     S
C875   O901    1.299   .     A
C876   O904    1.294   .     A
C876   C885    1.450   .     S
C876   O902    1.299   .     A
C877   O905    1.287   .     A
C877   O907    1.294   .     A
C877   C879    1.438   .     S
C878   O908    1.294   .     A
C878   O906    1.287   .     A
C878   C880    1.438   .     S
C880   C925    1.359   .     S
C880   C958    1.499   .     S
C881   H893    1.083   .     S
C881   C886    1.403   .     A
C881   C1159   1.383   1_545 S
C882   H894    1.083   .     S
C882   C885    1.403   .     A
C882   C1022   1.383   .     S
C883   C885    1.400   .     A
C883   H895    1.083   .     S
C883   C1019   1.383   .     S
C884   H896    1.083   .     S
C884   C886    1.400   .     A
C884   C1158   1.383   1_545 S
C887   N900    1.354   .     A
C887   H897    1.082   .     S
C888   N899    1.354   .     A
C888   H898    1.082   .     S
C888   C62     1.421   1_556 S
C889   N899    1.391   .     A
C889   C915    1.485   .     S
C889   C59     1.421   1_556 S
C890   C918    1.485   .     S
C890   N900    1.391   .     A
Cu891  N899    2.025   .     S
Cu891  Cu892   2.695   .     S
Cu891  O904    1.962   .     S
Cu891  O905    1.975   .     S
Cu891  O908    1.967   .     S
Cu891  O901    1.966   .     S
Cu892  N900    2.025   .     S
Cu892  O903    1.962   .     S
Cu892  O907    1.967   .     S
Cu892  O906    1.975   .     S
Cu892  O902    1.966   .     S
C909   H910    1.085   .     S
C909   C925    1.499   .     S
C909   O957    1.221   .     S
C912   H913    1.085   .     S
O914   C958    1.221   .     S
C915   H916    1.072   .     S
C915   O917    1.222   .     D
C918   O920    1.222   .     D
C918   H919    1.072   .     S
C921   O949    1.294   .     A
C921   C932    1.450   .     S
C921   O947    1.299   .     A
C922   O950    1.294   .     A
C922   C931    1.450   .     S
C922   O948    1.299   .     A
C923   O951    1.287   .     A
C923   O953    1.294   .     A
C923   C925    1.438   .     S
C924   O954    1.294   .     A
C924   O952    1.287   .     A
C924   C926    1.438   .     S
C926   C833    1.359   1_655 S
C926   C866    1.499   1_655 S
C927   H939    1.083   .     S
C927   C932    1.403   .     A
C927   C1205   1.383   1_545 S
C928   H940    1.083   .     S
C928   C931    1.403   .     A
C928   C1068   1.383   .     S
C929   C931    1.400   .     A
C929   H941    1.083   .     S
C929   C1065   1.383   .     S
C930   H942    1.083   .     S
C930   C932    1.400   .     A
C930   C1204   1.383   1_545 S
C933   N946    1.354   .     A
C933   H943    1.082   .     S
C934   N945    1.354   .     A
C934   H944    1.082   .     S
C934   C108    1.421   1_556 S
C935   N945    1.391   .     A
C935   C961    1.485   .     S
C935   C105    1.421   1_556 S
C936   C964    1.485   .     S
C936   N946    1.391   .     A
Cu937  N945    2.025   .     S
Cu937  Cu938   2.695   .     S
Cu937  O950    1.962   .     S
Cu937  O951    1.975   .     S
Cu937  O954    1.967   .     S
Cu937  O947    1.966   .     S
Cu938  N946    2.025   .     S
Cu938  O949    1.962   .     S
Cu938  O953    1.967   .     S
Cu938  O952    1.975   .     S
Cu938  O948    1.966   .     S
C955   H956    1.085   .     S
C955   C833    1.499   1_655 S
C955   O865    1.221   1_655 S
C958   H959    1.085   .     S
O960   C866    1.221   1_655 S
C961   H962    1.072   .     S
C961   O963    1.222   .     D
C964   O966    1.222   .     D
C964   H965    1.072   .     S
C967   O995    1.294   .     A
C967   C978    1.450   .     S
C967   O993    1.299   .     A
C968   O996    1.294   .     A
C968   C977    1.450   .     S
C968   O994    1.299   .     A
C969   O997    1.287   .     A
C969   O999    1.294   .     A
C969   C971    1.438   .     S
C970   O1000   1.294   .     A
C970   O998    1.287   .     A
C970   C972    1.438   .     S
C971   C1064   1.359   1_455 S
C971   C1093   1.499   1_455 S
C972   C1017   1.359   .     S
C972   C1050   1.499   .     S
C973   H985    1.083   .     S
C973   C978    1.403   .     A
C974   H986    1.083   .     S
C974   C977    1.403   .     A
C974   C1114   1.383   .     S
C975   C977    1.400   .     A
C975   H987    1.083   .     S
C975   C1111   1.383   .     S
C976   H988    1.083   .     S
C976   C978    1.400   .     A
C979   N992    1.354   .     A
C979   H989    1.082   .     S
C980   N991    1.354   .     A
C980   H990    1.082   .     S
C980   C154    1.421   1_556 S
C981   N991    1.391   .     A
C981   C1007   1.485   .     S
C981   C151    1.421   1_556 S
C982   C1010   1.485   .     S
C982   N992    1.391   .     A
Cu983  N991    2.025   .     S
Cu983  Cu984   2.695   .     S
Cu983  O996    1.962   .     S
Cu983  O997    1.975   .     S
Cu983  O1000   1.967   .     S
Cu983  O993    1.966   .     S
Cu984  N992    2.025   .     S
Cu984  O995    1.962   .     S
Cu984  O999    1.967   .     S
Cu984  O998    1.975   .     S
Cu984  O994    1.966   .     S
C1001  H1002   1.085   .     S
C1001  C1017   1.499   .     S
C1001  O1049   1.221   .     S
O1003  C1093   1.221   1_455 S
C1004  H1005   1.085   .     S
C1004  C1064   1.499   1_455 S
C1004  O1098   1.221   1_455 S
O1006  C1050   1.221   .     S
C1007  H1008   1.072   .     S
C1007  O1009   1.222   .     D
C1010  O1012   1.222   .     D
C1010  H1011   1.072   .     S
C1013  O1041   1.294   .     A
C1013  C1024   1.450   .     S
C1013  O1039   1.299   .     A
C1014  O1042   1.294   .     A
C1014  C1023   1.450   .     S
C1014  O1040   1.299   .     A
C1015  O1043   1.287   .     A
C1015  O1045   1.294   .     A
C1015  C1017   1.438   .     S
C1016  O1046   1.294   .     A
C1016  O1044   1.287   .     A
C1016  C1018   1.438   .     S
C1018  C1063   1.359   .     S
C1018  C1096   1.499   .     S
C1019  H1031   1.083   .     S
C1019  C1024   1.403   .     A
C1020  H1032   1.083   .     S
C1020  C1023   1.403   .     A
C1020  C1160   1.383   .     S
C1021  C1023   1.400   .     A
C1021  H1033   1.083   .     S
C1021  C1157   1.383   .     S
C1022  H1034   1.083   .     S
C1022  C1024   1.400   .     A
C1025  N1038   1.354   .     A
C1025  H1035   1.082   .     S
C1026  N1037   1.354   .     A
C1026  H1036   1.082   .     S
C1026  C200    1.421   1_556 S
C1027  N1037   1.391   .     A
C1027  C1053   1.485   .     S
C1027  C197    1.421   1_556 S
C1028  C1056   1.485   .     S
C1028  N1038   1.391   .     A
Cu1029 N1037   2.025   .     S
Cu1029 Cu1030  2.695   .     S
Cu1029 O1042   1.962   .     S
Cu1029 O1043   1.975   .     S
Cu1029 O1046   1.967   .     S
Cu1029 O1039   1.966   .     S
Cu1030 N1038   2.025   .     S
Cu1030 O1041   1.962   .     S
Cu1030 O1045   1.967   .     S
Cu1030 O1044   1.975   .     S
Cu1030 O1040   1.966   .     S
C1047  H1048   1.085   .     S
C1047  C1063   1.499   .     S
C1047  O1095   1.221   .     S
C1050  H1051   1.085   .     S
O1052  C1096   1.221   .     S
C1053  H1054   1.072   .     S
C1053  O1055   1.222   .     D
C1056  O1058   1.222   .     D
C1056  H1057   1.072   .     S
C1059  O1087   1.294   .     A
C1059  C1070   1.450   .     S
C1059  O1085   1.299   .     A
C1060  O1088   1.294   .     A
C1060  C1069   1.450   .     S
C1060  O1086   1.299   .     A
C1061  O1089   1.287   .     A
C1061  O1091   1.294   .     A
C1061  C1063   1.438   .     S
C1062  O1092   1.294   .     A
C1062  O1090   1.287   .     A
C1062  C1064   1.438   .     S
C1064  C971    1.359   1_655 S
C1064  C1004   1.499   1_655 S
C1065  H1077   1.083   .     S
C1065  C1070   1.403   .     A
C1066  H1078   1.083   .     S
C1066  C1069   1.403   .     A
C1066  C1206   1.383   .     S
C1067  C1069   1.400   .     A
C1067  H1079   1.083   .     S
C1067  C1203   1.383   .     S
C1068  H1080   1.083   .     S
C1068  C1070   1.400   .     A
C1071  N1084   1.354   .     A
C1071  H1081   1.082   .     S
C1072  N1083   1.354   .     A
C1072  H1082   1.082   .     S
C1072  C246    1.421   1_556 S
C1073  N1083   1.391   .     A
C1073  C1099   1.485   .     S
C1073  C243    1.421   1_556 S
C1074  C1102   1.485   .     S
C1074  N1084   1.391   .     A
Cu1075 N1083   2.025   .     S
Cu1075 Cu1076  2.695   .     S
Cu1075 O1088   1.962   .     S
Cu1075 O1089   1.975   .     S
Cu1075 O1092   1.967   .     S
Cu1075 O1085   1.966   .     S
Cu1076 N1084   2.025   .     S
Cu1076 O1087   1.962   .     S
Cu1076 O1091   1.967   .     S
Cu1076 O1090   1.975   .     S
Cu1076 O1086   1.966   .     S
C1093  H1094   1.085   .     S
C1093  C971    1.499   1_655 S
C1093  O1003   1.221   1_655 S
C1096  H1097   1.085   .     S
O1098  C1004   1.221   1_655 S
C1099  H1100   1.072   .     S
C1099  O1101   1.222   .     D
C1102  O1104   1.222   .     D
C1102  H1103   1.072   .     S
C1105  O1133   1.294   .     A
C1105  C1116   1.450   .     S
C1105  O1131   1.299   .     A
C1106  O1134   1.294   .     A
C1106  C1115   1.450   .     S
C1106  O1132   1.299   .     A
C1107  O1135   1.287   .     A
C1107  O1137   1.294   .     A
C1107  C1109   1.438   .     S
C1108  O1138   1.294   .     A
C1108  O1136   1.287   .     A
C1108  C1110   1.438   .     S
C1109  C1202   1.359   1_455 S
C1109  C1231   1.499   1_455 S
C1110  C1155   1.359   .     S
C1110  C1188   1.499   .     S
C1111  H1123   1.083   .     S
C1111  C1116   1.403   .     A
C1112  H1124   1.083   .     S
C1112  C1115   1.403   .     A
C1112  C838    1.383   1_565 S
C1113  C1115   1.400   .     A
C1113  H1125   1.083   .     S
C1113  C835    1.383   1_565 S
C1114  H1126   1.083   .     S
C1114  C1116   1.400   .     A
C1117  N1130   1.354   .     A
C1117  H1127   1.082   .     S
C1118  N1129   1.354   .     A
C1118  H1128   1.082   .     S
C1118  C292    1.421   1_556 S
C1119  N1129   1.391   .     A
C1119  C1145   1.485   .     S
C1119  C289    1.421   1_556 S
C1120  C1148   1.485   .     S
C1120  N1130   1.391   .     A
Cu1121 N1129   2.025   .     S
Cu1121 Cu1122  2.695   .     S
Cu1121 O1134   1.962   .     S
Cu1121 O1135   1.975   .     S
Cu1121 O1138   1.967   .     S
Cu1121 O1131   1.966   .     S
Cu1122 N1130   2.025   .     S
Cu1122 O1133   1.962   .     S
Cu1122 O1137   1.967   .     S
Cu1122 O1136   1.975   .     S
Cu1122 O1132   1.966   .     S
C1139  H1140   1.085   .     S
C1139  C1155   1.499   .     S
C1139  O1187   1.221   .     S
O1141  C1231   1.221   1_455 S
C1142  H1143   1.085   .     S
C1142  C1202   1.499   1_455 S
C1142  O1236   1.221   1_455 S
O1144  C1188   1.221   .     S
C1145  H1146   1.072   .     S
C1145  O1147   1.222   .     D
C1148  O1150   1.222   .     D
C1148  H1149   1.072   .     S
C1151  O1179   1.294   .     A
C1151  C1162   1.450   .     S
C1151  O1177   1.299   .     A
C1152  O1180   1.294   .     A
C1152  C1161   1.450   .     S
C1152  O1178   1.299   .     A
C1153  O1181   1.287   .     A
C1153  O1183   1.294   .     A
C1153  C1155   1.438   .     S
C1154  O1184   1.294   .     A
C1154  O1182   1.287   .     A
C1154  C1156   1.438   .     S
C1156  C1201   1.359   .     S
C1156  C1234   1.499   .     S
C1157  H1169   1.083   .     S
C1157  C1162   1.403   .     A
C1158  H1170   1.083   .     S
C1158  C1161   1.403   .     A
C1158  C884    1.383   1_565 S
C1159  C1161   1.400   .     A
C1159  H1171   1.083   .     S
C1159  C881    1.383   1_565 S
C1160  H1172   1.083   .     S
C1160  C1162   1.400   .     A
C1163  N1176   1.354   .     A
C1163  H1173   1.082   .     S
C1164  N1175   1.354   .     A
C1164  H1174   1.082   .     S
C1164  C338    1.421   1_556 S
C1165  N1175   1.391   .     A
C1165  C1191   1.485   .     S
C1165  C335    1.421   1_556 S
C1166  C1194   1.485   .     S
C1166  N1176   1.391   .     A
Cu1167 N1175   2.025   .     S
Cu1167 Cu1168  2.695   .     S
Cu1167 O1180   1.962   .     S
Cu1167 O1181   1.975   .     S
Cu1167 O1184   1.967   .     S
Cu1167 O1177   1.966   .     S
Cu1168 N1176   2.025   .     S
Cu1168 O1179   1.962   .     S
Cu1168 O1183   1.967   .     S
Cu1168 O1182   1.975   .     S
Cu1168 O1178   1.966   .     S
C1185  H1186   1.085   .     S
C1185  C1201   1.499   .     S
C1185  O1233   1.221   .     S
C1188  H1189   1.085   .     S
O1190  C1234   1.221   .     S
C1191  H1192   1.072   .     S
C1191  O1193   1.222   .     D
C1194  O1196   1.222   .     D
C1194  H1195   1.072   .     S
C1197  O1225   1.294   .     A
C1197  C1208   1.450   .     S
C1197  O1223   1.299   .     A
C1198  O1226   1.294   .     A
C1198  C1207   1.450   .     S
C1198  O1224   1.299   .     A
C1199  O1227   1.287   .     A
C1199  O1229   1.294   .     A
C1199  C1201   1.438   .     S
C1200  O1230   1.294   .     A
C1200  O1228   1.287   .     A
C1200  C1202   1.438   .     S
C1202  C1109   1.359   1_655 S
C1202  C1142   1.499   1_655 S
C1203  H1215   1.083   .     S
C1203  C1208   1.403   .     A
C1204  H1216   1.083   .     S
C1204  C1207   1.403   .     A
C1204  C930    1.383   1_565 S
C1205  C1207   1.400   .     A
C1205  H1217   1.083   .     S
C1205  C927    1.383   1_565 S
C1206  H1218   1.083   .     S
C1206  C1208   1.400   .     A
C1209  N1222   1.354   .     A
C1209  H1219   1.082   .     S
C1210  N1221   1.354   .     A
C1210  H1220   1.082   .     S
C1210  C384    1.421   1_556 S
C1211  N1221   1.391   .     A
C1211  C1237   1.485   .     S
C1211  C381    1.421   1_556 S
C1212  C1240   1.485   .     S
C1212  N1222   1.391   .     A
Cu1213 N1221   2.025   .     S
Cu1213 Cu1214  2.695   .     S
Cu1213 O1226   1.962   .     S
Cu1213 O1227   1.975   .     S
Cu1213 O1230   1.967   .     S
Cu1213 O1223   1.966   .     S
Cu1214 N1222   2.025   .     S
Cu1214 O1225   1.962   .     S
Cu1214 O1229   1.967   .     S
Cu1214 O1228   1.975   .     S
Cu1214 O1224   1.966   .     S
C1231  H1232   1.085   .     S
C1231  C1109   1.499   1_655 S
C1231  O1141   1.221   1_655 S
C1234  H1235   1.085   .     S
O1236  C1142   1.221   1_655 S
C1237  H1238   1.072   .     S
C1237  O1239   1.222   .     D
C1240  O1242   1.222   .     D
C1240  H1241   1.072   .     S
