data_str_m2_o1_o10_pcu_sym.123
_audit_creation_date              2020-01-03
_audit_creation_method            'Materials Studio'
_symmetry_space_group_name_H-M    'P1'
_symmetry_Int_Tables_number       1
_symmetry_cell_setting            triclinic
loop_
_symmetry_equiv_pos_as_xyz
  x,y,z
_cell_length_a                    26.3750
_cell_length_b                    32.4986
_cell_length_c                    28.5415
_cell_angle_alpha                 89.9899
_cell_angle_beta                  97.7857
_cell_angle_gamma                 90.1771
loop_
_atom_site_label
_atom_site_type_symbol
_atom_site_fract_x
_atom_site_fract_y
_atom_site_fract_z
_atom_site_U_iso_or_equiv
_atom_site_adp_type
_atom_site_occupancy
O1     O     0.16666   0.10655   0.20625   0.00000  Uiso   1.00
O2     O     0.16667   0.22678   0.12709   0.00000  Uiso   1.00
O3     O     0.16666   0.10654   0.12706   0.00000  Uiso   1.00
O4     O     0.16667   0.22679   0.20628   0.00000  Uiso   1.00
C5     C     0.16664   0.08735   0.16665   0.00000  Uiso   1.00
C6     C     0.16669   0.24598   0.16668   0.00000  Uiso   1.00
O7     O     0.09161   0.16667   0.19712   0.00000  Uiso   1.00
O8     O     0.24172   0.16666   0.13621   0.00000  Uiso   1.00
O9     O     0.09161   0.16666   0.11793   0.00000  Uiso   1.00
O10    O     0.24172   0.16667   0.21540   0.00000  Uiso   1.00
C11    C     0.06805   0.16658   0.15471   0.00000  Uiso   1.00
C12    C     0.26528   0.16676   0.17862   0.00000  Uiso   1.00
Cu13   Cu    0.16667   0.16667   0.21355   0.00000  Uiso   1.00
Cu14   Cu    0.16667   0.16666   0.11978   0.00000  Uiso   1.00
N15    N     0.16668   0.16668   0.28403   0.00000  Uiso   1.00
N16    N     0.16665   0.16666   0.04931   0.00000  Uiso   1.00
C17    C     0.01334   0.16142   0.14880   0.00000  Uiso   1.00
C18    C     0.31999   0.17192   0.18453   0.00000  Uiso   1.00
C19    C     0.16776   0.02129   0.12423   0.00000  Uiso   1.00
C20    C     0.16557   0.31204   0.20910   0.00000  Uiso   1.00
H21    H     0.16865   0.03731   0.09107   0.00000  Uiso   1.00
H22    H     0.16468   0.29602   0.24227   0.00000  Uiso   1.00
C23    C     0.16779   0.31206   0.12424   0.00000  Uiso   1.00
C24    C     0.16555   0.02128   0.20909   0.00000  Uiso   1.00
H25    H     0.16871   0.29605   0.09108   0.00000  Uiso   1.00
H26    H     0.16463   0.03728   0.24225   0.00000  Uiso   1.00
C27    C     0.16669   0.29059   0.16667   0.00000  Uiso   1.00
C28    C     0.16665   0.04274   0.16666   0.00000  Uiso   1.00
C29    C     0.13269   0.14291   0.02055   0.00000  Uiso   1.00
C30    C     0.20065   0.19042   0.31278   0.00000  Uiso   1.00
H31    H     0.10554   0.12383   0.03585   0.00000  Uiso   1.00
H32    H     0.22780   0.20950   0.29748   0.00000  Uiso   1.00
C33    C     0.13270   0.14292   0.30427   0.00000  Uiso   1.00
C34    C     0.20063   0.19041   0.02907   0.00000  Uiso   1.00
H35    H     0.10554   0.12386   0.28215   0.00000  Uiso   1.00
H36    H     0.22779   0.20947   0.05118   0.00000  Uiso   1.00
N37    N     0.32369   0.13929   0.10749   0.00000  Uiso   1.00
O38    O     0.33035   0.15196   0.06550   0.00000  Uiso   1.00
O39    O     0.30256   0.10354   0.11212   0.00000  Uiso   1.00
N40    N     0.00964   0.19404   0.22584   0.00000  Uiso   1.00
O41    O     0.00298   0.18138   0.26783   0.00000  Uiso   1.00
O42    O     0.03078   0.22980   0.22121   0.00000  Uiso   1.00
O43    O     0.50000   0.10655   0.20625   0.00000  Uiso   1.00
O44    O     0.50000   0.22678   0.12709   0.00000  Uiso   1.00
O45    O     0.50000   0.10654   0.12706   0.00000  Uiso   1.00
O46    O     0.50000   0.22679   0.20628   0.00000  Uiso   1.00
C47    C     0.49998   0.08735   0.16665   0.00000  Uiso   1.00
C48    C     0.50002   0.24598   0.16668   0.00000  Uiso   1.00
O49    O     0.42495   0.16667   0.19712   0.00000  Uiso   1.00
O50    O     0.57505   0.16666   0.13621   0.00000  Uiso   1.00
O51    O     0.42494   0.16666   0.11793   0.00000  Uiso   1.00
O52    O     0.57506   0.16667   0.21540   0.00000  Uiso   1.00
C53    C     0.40139   0.16658   0.15471   0.00000  Uiso   1.00
C54    C     0.59861   0.16676   0.17862   0.00000  Uiso   1.00
Cu55   Cu    0.50000   0.16667   0.21355   0.00000  Uiso   1.00
Cu56   Cu    0.50000   0.16666   0.11978   0.00000  Uiso   1.00
N57    N     0.50001   0.16668   0.28403   0.00000  Uiso   1.00
N58    N     0.49999   0.16666   0.04931   0.00000  Uiso   1.00
C59    C     0.34667   0.16142   0.14880   0.00000  Uiso   1.00
C60    C     0.65333   0.17192   0.18453   0.00000  Uiso   1.00
C61    C     0.50109   0.02129   0.12423   0.00000  Uiso   1.00
C62    C     0.49891   0.31204   0.20910   0.00000  Uiso   1.00
H63    H     0.50198   0.03731   0.09107   0.00000  Uiso   1.00
H64    H     0.49802   0.29602   0.24227   0.00000  Uiso   1.00
C65    C     0.50112   0.31206   0.12424   0.00000  Uiso   1.00
C66    C     0.49888   0.02128   0.20909   0.00000  Uiso   1.00
H67    H     0.50204   0.29605   0.09108   0.00000  Uiso   1.00
H68    H     0.49796   0.03728   0.24225   0.00000  Uiso   1.00
C69    C     0.50002   0.29059   0.16667   0.00000  Uiso   1.00
C70    C     0.49998   0.04274   0.16666   0.00000  Uiso   1.00
C71    C     0.46602   0.14291   0.02055   0.00000  Uiso   1.00
C72    C     0.53398   0.19042   0.31278   0.00000  Uiso   1.00
H73    H     0.43887   0.12383   0.03585   0.00000  Uiso   1.00
H74    H     0.56113   0.20950   0.29748   0.00000  Uiso   1.00
C75    C     0.46603   0.14292   0.30427   0.00000  Uiso   1.00
C76    C     0.53397   0.19041   0.02907   0.00000  Uiso   1.00
H77    H     0.43888   0.12386   0.28215   0.00000  Uiso   1.00
H78    H     0.56112   0.20947   0.05118   0.00000  Uiso   1.00
N79    N     0.65702   0.13929   0.10749   0.00000  Uiso   1.00
O80    O     0.66368   0.15196   0.06550   0.00000  Uiso   1.00
O81    O     0.63589   0.10354   0.11212   0.00000  Uiso   1.00
N82    N     0.34298   0.19404   0.22584   0.00000  Uiso   1.00
O83    O     0.33631   0.18138   0.26783   0.00000  Uiso   1.00
O84    O     0.36411   0.22980   0.22121   0.00000  Uiso   1.00
O85    O     0.83333   0.10655   0.20625   0.00000  Uiso   1.00
O86    O     0.83334   0.22678   0.12709   0.00000  Uiso   1.00
O87    O     0.83333   0.10654   0.12706   0.00000  Uiso   1.00
O88    O     0.83334   0.22679   0.20628   0.00000  Uiso   1.00
C89    C     0.83331   0.08735   0.16665   0.00000  Uiso   1.00
C90    C     0.83336   0.24598   0.16668   0.00000  Uiso   1.00
O91    O     0.75828   0.16667   0.19712   0.00000  Uiso   1.00
O92    O     0.90839   0.16666   0.13621   0.00000  Uiso   1.00
O93    O     0.75828   0.16666   0.11793   0.00000  Uiso   1.00
O94    O     0.90839   0.16667   0.21540   0.00000  Uiso   1.00
C95    C     0.73472   0.16658   0.15471   0.00000  Uiso   1.00
C96    C     0.93195   0.16676   0.17862   0.00000  Uiso   1.00
Cu97   Cu    0.83333   0.16667   0.21355   0.00000  Uiso   1.00
Cu98   Cu    0.83333   0.16666   0.11978   0.00000  Uiso   1.00
N99    N     0.83335   0.16668   0.28403   0.00000  Uiso   1.00
N100   N     0.83332   0.16666   0.04931   0.00000  Uiso   1.00
C101   C     0.68001   0.16142   0.14880   0.00000  Uiso   1.00
C102   C     0.98666   0.17192   0.18453   0.00000  Uiso   1.00
C103   C     0.83443   0.02129   0.12423   0.00000  Uiso   1.00
C104   C     0.83224   0.31204   0.20910   0.00000  Uiso   1.00
H105   H     0.83532   0.03731   0.09107   0.00000  Uiso   1.00
H106   H     0.83135   0.29602   0.24227   0.00000  Uiso   1.00
C107   C     0.83445   0.31206   0.12424   0.00000  Uiso   1.00
C108   C     0.83221   0.02128   0.20909   0.00000  Uiso   1.00
H109   H     0.83537   0.29605   0.09108   0.00000  Uiso   1.00
H110   H     0.83129   0.03728   0.24225   0.00000  Uiso   1.00
C111   C     0.83335   0.29059   0.16667   0.00000  Uiso   1.00
C112   C     0.83331   0.04274   0.16666   0.00000  Uiso   1.00
C113   C     0.79935   0.14291   0.02055   0.00000  Uiso   1.00
C114   C     0.86731   0.19042   0.31278   0.00000  Uiso   1.00
H115   H     0.77220   0.12383   0.03585   0.00000  Uiso   1.00
H116   H     0.89446   0.20950   0.29748   0.00000  Uiso   1.00
C117   C     0.79937   0.14292   0.30427   0.00000  Uiso   1.00
C118   C     0.86730   0.19041   0.02907   0.00000  Uiso   1.00
H119   H     0.77221   0.12386   0.28215   0.00000  Uiso   1.00
H120   H     0.89446   0.20947   0.05118   0.00000  Uiso   1.00
N121   N     0.99036   0.13929   0.10749   0.00000  Uiso   1.00
O122   O     0.99701   0.15196   0.06550   0.00000  Uiso   1.00
O123   O     0.96922   0.10354   0.11212   0.00000  Uiso   1.00
N124   N     0.67631   0.19404   0.22584   0.00000  Uiso   1.00
O125   O     0.66965   0.18138   0.26783   0.00000  Uiso   1.00
O126   O     0.69745   0.22980   0.22121   0.00000  Uiso   1.00
O127   O     0.16666   0.43989   0.20625   0.00000  Uiso   1.00
O128   O     0.16667   0.56011   0.12709   0.00000  Uiso   1.00
O129   O     0.16666   0.43988   0.12706   0.00000  Uiso   1.00
O130   O     0.16667   0.56012   0.20628   0.00000  Uiso   1.00
C131   C     0.16664   0.42069   0.16665   0.00000  Uiso   1.00
C132   C     0.16669   0.57931   0.16668   0.00000  Uiso   1.00
O133   O     0.09161   0.50000   0.19712   0.00000  Uiso   1.00
O134   O     0.24172   0.50000   0.13621   0.00000  Uiso   1.00
O135   O     0.09161   0.49999   0.11793   0.00000  Uiso   1.00
O136   O     0.24172   0.50001   0.21540   0.00000  Uiso   1.00
C137   C     0.06805   0.49991   0.15471   0.00000  Uiso   1.00
C138   C     0.26528   0.50009   0.17862   0.00000  Uiso   1.00
Cu139  Cu    0.16667   0.50001   0.21355   0.00000  Uiso   1.00
Cu140  Cu    0.16667   0.49999   0.11978   0.00000  Uiso   1.00
N141   N     0.16668   0.50001   0.28403   0.00000  Uiso   1.00
N142   N     0.16665   0.49999   0.04931   0.00000  Uiso   1.00
C143   C     0.01334   0.49475   0.14880   0.00000  Uiso   1.00
C144   C     0.31999   0.50525   0.18453   0.00000  Uiso   1.00
C145   C     0.16776   0.35462   0.12423   0.00000  Uiso   1.00
C146   C     0.16557   0.64537   0.20910   0.00000  Uiso   1.00
H147   H     0.16865   0.37064   0.09107   0.00000  Uiso   1.00
H148   H     0.16468   0.62936   0.24227   0.00000  Uiso   1.00
C149   C     0.16779   0.64539   0.12424   0.00000  Uiso   1.00
C150   C     0.16555   0.35461   0.20909   0.00000  Uiso   1.00
H151   H     0.16871   0.62938   0.09108   0.00000  Uiso   1.00
H152   H     0.16463   0.37062   0.24225   0.00000  Uiso   1.00
C153   C     0.16669   0.62393   0.16667   0.00000  Uiso   1.00
C154   C     0.16665   0.37607   0.16666   0.00000  Uiso   1.00
C155   C     0.13269   0.47624   0.02055   0.00000  Uiso   1.00
C156   C     0.20065   0.52375   0.31278   0.00000  Uiso   1.00
H157   H     0.10554   0.45716   0.03585   0.00000  Uiso   1.00
H158   H     0.22780   0.54284   0.29748   0.00000  Uiso   1.00
C159   C     0.13270   0.47626   0.30427   0.00000  Uiso   1.00
C160   C     0.20063   0.52374   0.02907   0.00000  Uiso   1.00
H161   H     0.10554   0.45719   0.28215   0.00000  Uiso   1.00
H162   H     0.22779   0.54281   0.05118   0.00000  Uiso   1.00
N163   N     0.32369   0.47263   0.10749   0.00000  Uiso   1.00
O164   O     0.33035   0.48529   0.06550   0.00000  Uiso   1.00
O165   O     0.30256   0.43687   0.11212   0.00000  Uiso   1.00
N166   N     0.00964   0.52737   0.22584   0.00000  Uiso   1.00
O167   O     0.00298   0.51471   0.26783   0.00000  Uiso   1.00
O168   O     0.03078   0.56313   0.22121   0.00000  Uiso   1.00
O169   O     0.50000   0.43989   0.20625   0.00000  Uiso   1.00
O170   O     0.50000   0.56011   0.12709   0.00000  Uiso   1.00
O171   O     0.50000   0.43988   0.12706   0.00000  Uiso   1.00
O172   O     0.50000   0.56012   0.20628   0.00000  Uiso   1.00
C173   C     0.49998   0.42069   0.16665   0.00000  Uiso   1.00
C174   C     0.50002   0.57931   0.16668   0.00000  Uiso   1.00
O175   O     0.42495   0.50000   0.19712   0.00000  Uiso   1.00
O176   O     0.57505   0.50000   0.13621   0.00000  Uiso   1.00
O177   O     0.42494   0.49999   0.11793   0.00000  Uiso   1.00
O178   O     0.57506   0.50001   0.21540   0.00000  Uiso   1.00
C179   C     0.40139   0.49991   0.15471   0.00000  Uiso   1.00
C180   C     0.59861   0.50009   0.17862   0.00000  Uiso   1.00
Cu181  Cu    0.50000   0.50001   0.21355   0.00000  Uiso   1.00
Cu182  Cu    0.50000   0.49999   0.11978   0.00000  Uiso   1.00
N183   N     0.50001   0.50001   0.28403   0.00000  Uiso   1.00
N184   N     0.49999   0.49999   0.04931   0.00000  Uiso   1.00
C185   C     0.34667   0.49475   0.14880   0.00000  Uiso   1.00
C186   C     0.65333   0.50525   0.18453   0.00000  Uiso   1.00
C187   C     0.50109   0.35462   0.12423   0.00000  Uiso   1.00
C188   C     0.49891   0.64537   0.20910   0.00000  Uiso   1.00
H189   H     0.50198   0.37064   0.09107   0.00000  Uiso   1.00
H190   H     0.49802   0.62936   0.24227   0.00000  Uiso   1.00
C191   C     0.50112   0.64539   0.12424   0.00000  Uiso   1.00
C192   C     0.49888   0.35461   0.20909   0.00000  Uiso   1.00
H193   H     0.50204   0.62938   0.09108   0.00000  Uiso   1.00
H194   H     0.49796   0.37062   0.24225   0.00000  Uiso   1.00
C195   C     0.50002   0.62393   0.16667   0.00000  Uiso   1.00
C196   C     0.49998   0.37607   0.16666   0.00000  Uiso   1.00
C197   C     0.46602   0.47624   0.02055   0.00000  Uiso   1.00
C198   C     0.53398   0.52375   0.31278   0.00000  Uiso   1.00
H199   H     0.43887   0.45716   0.03585   0.00000  Uiso   1.00
H200   H     0.56113   0.54284   0.29748   0.00000  Uiso   1.00
C201   C     0.46603   0.47626   0.30427   0.00000  Uiso   1.00
C202   C     0.53397   0.52374   0.02907   0.00000  Uiso   1.00
H203   H     0.43888   0.45719   0.28215   0.00000  Uiso   1.00
H204   H     0.56112   0.54281   0.05118   0.00000  Uiso   1.00
N205   N     0.65702   0.47263   0.10749   0.00000  Uiso   1.00
O206   O     0.66368   0.48529   0.06550   0.00000  Uiso   1.00
O207   O     0.63589   0.43687   0.11212   0.00000  Uiso   1.00
N208   N     0.34298   0.52737   0.22584   0.00000  Uiso   1.00
O209   O     0.33631   0.51471   0.26783   0.00000  Uiso   1.00
O210   O     0.36411   0.56313   0.22121   0.00000  Uiso   1.00
O211   O     0.83333   0.43989   0.20625   0.00000  Uiso   1.00
O212   O     0.83334   0.56011   0.12709   0.00000  Uiso   1.00
O213   O     0.83333   0.43988   0.12706   0.00000  Uiso   1.00
O214   O     0.83334   0.56012   0.20628   0.00000  Uiso   1.00
C215   C     0.83331   0.42069   0.16665   0.00000  Uiso   1.00
C216   C     0.83336   0.57931   0.16668   0.00000  Uiso   1.00
O217   O     0.75828   0.50000   0.19712   0.00000  Uiso   1.00
O218   O     0.90839   0.50000   0.13621   0.00000  Uiso   1.00
O219   O     0.75828   0.49999   0.11793   0.00000  Uiso   1.00
O220   O     0.90839   0.50001   0.21540   0.00000  Uiso   1.00
C221   C     0.73472   0.49991   0.15471   0.00000  Uiso   1.00
C222   C     0.93195   0.50009   0.17862   0.00000  Uiso   1.00
Cu223  Cu    0.83333   0.50001   0.21355   0.00000  Uiso   1.00
Cu224  Cu    0.83333   0.49999   0.11978   0.00000  Uiso   1.00
N225   N     0.83335   0.50001   0.28403   0.00000  Uiso   1.00
N226   N     0.83332   0.49999   0.04931   0.00000  Uiso   1.00
C227   C     0.68001   0.49475   0.14880   0.00000  Uiso   1.00
C228   C     0.98666   0.50525   0.18453   0.00000  Uiso   1.00
C229   C     0.83443   0.35462   0.12423   0.00000  Uiso   1.00
C230   C     0.83224   0.64537   0.20910   0.00000  Uiso   1.00
H231   H     0.83532   0.37064   0.09107   0.00000  Uiso   1.00
H232   H     0.83135   0.62936   0.24227   0.00000  Uiso   1.00
C233   C     0.83445   0.64539   0.12424   0.00000  Uiso   1.00
C234   C     0.83221   0.35461   0.20909   0.00000  Uiso   1.00
H235   H     0.83537   0.62938   0.09108   0.00000  Uiso   1.00
H236   H     0.83129   0.37062   0.24225   0.00000  Uiso   1.00
C237   C     0.83335   0.62393   0.16667   0.00000  Uiso   1.00
C238   C     0.83331   0.37607   0.16666   0.00000  Uiso   1.00
C239   C     0.79935   0.47624   0.02055   0.00000  Uiso   1.00
C240   C     0.86731   0.52375   0.31278   0.00000  Uiso   1.00
H241   H     0.77220   0.45716   0.03585   0.00000  Uiso   1.00
H242   H     0.89446   0.54284   0.29748   0.00000  Uiso   1.00
C243   C     0.79937   0.47626   0.30427   0.00000  Uiso   1.00
C244   C     0.86730   0.52374   0.02907   0.00000  Uiso   1.00
H245   H     0.77221   0.45719   0.28215   0.00000  Uiso   1.00
H246   H     0.89446   0.54281   0.05118   0.00000  Uiso   1.00
N247   N     0.99036   0.47263   0.10749   0.00000  Uiso   1.00
O248   O     0.99701   0.48529   0.06550   0.00000  Uiso   1.00
O249   O     0.96922   0.43687   0.11212   0.00000  Uiso   1.00
N250   N     0.67631   0.52737   0.22584   0.00000  Uiso   1.00
O251   O     0.66965   0.51471   0.26783   0.00000  Uiso   1.00
O252   O     0.69745   0.56313   0.22121   0.00000  Uiso   1.00
O253   O     0.16666   0.77322   0.20625   0.00000  Uiso   1.00
O254   O     0.16667   0.89345   0.12709   0.00000  Uiso   1.00
O255   O     0.16666   0.77321   0.12706   0.00000  Uiso   1.00
O256   O     0.16667   0.89346   0.20628   0.00000  Uiso   1.00
C257   C     0.16664   0.75402   0.16665   0.00000  Uiso   1.00
C258   C     0.16669   0.91265   0.16668   0.00000  Uiso   1.00
O259   O     0.09161   0.83334   0.19712   0.00000  Uiso   1.00
O260   O     0.24172   0.83333   0.13621   0.00000  Uiso   1.00
O261   O     0.09161   0.83333   0.11793   0.00000  Uiso   1.00
O262   O     0.24172   0.83334   0.21540   0.00000  Uiso   1.00
C263   C     0.06805   0.83324   0.15471   0.00000  Uiso   1.00
C264   C     0.26528   0.83342   0.17862   0.00000  Uiso   1.00
Cu265  Cu    0.16667   0.83334   0.21355   0.00000  Uiso   1.00
Cu266  Cu    0.16667   0.83333   0.11978   0.00000  Uiso   1.00
N267   N     0.16668   0.83334   0.28403   0.00000  Uiso   1.00
N268   N     0.16665   0.83332   0.04931   0.00000  Uiso   1.00
C269   C     0.01334   0.82808   0.14880   0.00000  Uiso   1.00
C270   C     0.31999   0.83859   0.18453   0.00000  Uiso   1.00
C271   C     0.16776   0.68796   0.12423   0.00000  Uiso   1.00
C272   C     0.16557   0.97871   0.20910   0.00000  Uiso   1.00
H273   H     0.16865   0.70398   0.09107   0.00000  Uiso   1.00
H274   H     0.16468   0.96269   0.24227   0.00000  Uiso   1.00
C275   C     0.16779   0.97872   0.12424   0.00000  Uiso   1.00
C276   C     0.16555   0.68794   0.20909   0.00000  Uiso   1.00
H277   H     0.16871   0.96272   0.09108   0.00000  Uiso   1.00
H278   H     0.16463   0.70395   0.24225   0.00000  Uiso   1.00
C279   C     0.16669   0.95726   0.16667   0.00000  Uiso   1.00
C280   C     0.16665   0.70941   0.16666   0.00000  Uiso   1.00
C281   C     0.13269   0.80958   0.02055   0.00000  Uiso   1.00
C282   C     0.20065   0.85709   0.31278   0.00000  Uiso   1.00
H283   H     0.10554   0.79050   0.03585   0.00000  Uiso   1.00
H284   H     0.22780   0.87617   0.29748   0.00000  Uiso   1.00
C285   C     0.13270   0.80959   0.30427   0.00000  Uiso   1.00
C286   C     0.20063   0.85708   0.02907   0.00000  Uiso   1.00
H287   H     0.10554   0.79053   0.28215   0.00000  Uiso   1.00
H288   H     0.22779   0.87614   0.05118   0.00000  Uiso   1.00
N289   N     0.32369   0.80596   0.10749   0.00000  Uiso   1.00
O290   O     0.33035   0.81863   0.06550   0.00000  Uiso   1.00
O291   O     0.30256   0.77020   0.11212   0.00000  Uiso   1.00
N292   N     0.00964   0.86071   0.22584   0.00000  Uiso   1.00
O293   O     0.00298   0.84805   0.26783   0.00000  Uiso   1.00
O294   O     0.03078   0.89646   0.22121   0.00000  Uiso   1.00
O295   O     0.50000   0.77322   0.20625   0.00000  Uiso   1.00
O296   O     0.50000   0.89345   0.12709   0.00000  Uiso   1.00
O297   O     0.50000   0.77321   0.12706   0.00000  Uiso   1.00
O298   O     0.50000   0.89346   0.20628   0.00000  Uiso   1.00
C299   C     0.49998   0.75402   0.16665   0.00000  Uiso   1.00
C300   C     0.50002   0.91265   0.16668   0.00000  Uiso   1.00
O301   O     0.42495   0.83334   0.19712   0.00000  Uiso   1.00
O302   O     0.57505   0.83333   0.13621   0.00000  Uiso   1.00
O303   O     0.42494   0.83333   0.11793   0.00000  Uiso   1.00
O304   O     0.57506   0.83334   0.21540   0.00000  Uiso   1.00
C305   C     0.40139   0.83324   0.15471   0.00000  Uiso   1.00
C306   C     0.59861   0.83342   0.17862   0.00000  Uiso   1.00
Cu307  Cu    0.50000   0.83334   0.21355   0.00000  Uiso   1.00
Cu308  Cu    0.50000   0.83333   0.11978   0.00000  Uiso   1.00
N309   N     0.50001   0.83334   0.28403   0.00000  Uiso   1.00
N310   N     0.49999   0.83332   0.04931   0.00000  Uiso   1.00
C311   C     0.34667   0.82808   0.14880   0.00000  Uiso   1.00
C312   C     0.65333   0.83859   0.18453   0.00000  Uiso   1.00
C313   C     0.50109   0.68796   0.12423   0.00000  Uiso   1.00
C314   C     0.49891   0.97871   0.20910   0.00000  Uiso   1.00
H315   H     0.50198   0.70398   0.09107   0.00000  Uiso   1.00
H316   H     0.49802   0.96269   0.24227   0.00000  Uiso   1.00
C317   C     0.50112   0.97872   0.12424   0.00000  Uiso   1.00
C318   C     0.49888   0.68794   0.20909   0.00000  Uiso   1.00
H319   H     0.50204   0.96272   0.09108   0.00000  Uiso   1.00
H320   H     0.49796   0.70395   0.24225   0.00000  Uiso   1.00
C321   C     0.50002   0.95726   0.16667   0.00000  Uiso   1.00
C322   C     0.49998   0.70941   0.16666   0.00000  Uiso   1.00
C323   C     0.46602   0.80958   0.02055   0.00000  Uiso   1.00
C324   C     0.53398   0.85709   0.31278   0.00000  Uiso   1.00
H325   H     0.43887   0.79050   0.03585   0.00000  Uiso   1.00
H326   H     0.56113   0.87617   0.29748   0.00000  Uiso   1.00
C327   C     0.46603   0.80959   0.30427   0.00000  Uiso   1.00
C328   C     0.53397   0.85708   0.02907   0.00000  Uiso   1.00
H329   H     0.43888   0.79053   0.28215   0.00000  Uiso   1.00
H330   H     0.56112   0.87614   0.05118   0.00000  Uiso   1.00
N331   N     0.65702   0.80596   0.10749   0.00000  Uiso   1.00
O332   O     0.66368   0.81863   0.06550   0.00000  Uiso   1.00
O333   O     0.63589   0.77020   0.11212   0.00000  Uiso   1.00
N334   N     0.34298   0.86071   0.22584   0.00000  Uiso   1.00
O335   O     0.33631   0.84805   0.26783   0.00000  Uiso   1.00
O336   O     0.36411   0.89646   0.22121   0.00000  Uiso   1.00
O337   O     0.83333   0.77322   0.20625   0.00000  Uiso   1.00
O338   O     0.83334   0.89345   0.12709   0.00000  Uiso   1.00
O339   O     0.83333   0.77321   0.12706   0.00000  Uiso   1.00
O340   O     0.83334   0.89346   0.20628   0.00000  Uiso   1.00
C341   C     0.83331   0.75402   0.16665   0.00000  Uiso   1.00
C342   C     0.83336   0.91265   0.16668   0.00000  Uiso   1.00
O343   O     0.75828   0.83334   0.19712   0.00000  Uiso   1.00
O344   O     0.90839   0.83333   0.13621   0.00000  Uiso   1.00
O345   O     0.75828   0.83333   0.11793   0.00000  Uiso   1.00
O346   O     0.90839   0.83334   0.21540   0.00000  Uiso   1.00
C347   C     0.73472   0.83324   0.15471   0.00000  Uiso   1.00
C348   C     0.93195   0.83342   0.17862   0.00000  Uiso   1.00
Cu349  Cu    0.83333   0.83334   0.21355   0.00000  Uiso   1.00
Cu350  Cu    0.83333   0.83333   0.11978   0.00000  Uiso   1.00
N351   N     0.83335   0.83334   0.28403   0.00000  Uiso   1.00
N352   N     0.83332   0.83332   0.04931   0.00000  Uiso   1.00
C353   C     0.68001   0.82808   0.14880   0.00000  Uiso   1.00
C354   C     0.98666   0.83859   0.18453   0.00000  Uiso   1.00
C355   C     0.83443   0.68796   0.12423   0.00000  Uiso   1.00
C356   C     0.83224   0.97871   0.20910   0.00000  Uiso   1.00
H357   H     0.83532   0.70398   0.09107   0.00000  Uiso   1.00
H358   H     0.83135   0.96269   0.24227   0.00000  Uiso   1.00
C359   C     0.83445   0.97872   0.12424   0.00000  Uiso   1.00
C360   C     0.83221   0.68794   0.20909   0.00000  Uiso   1.00
H361   H     0.83537   0.96272   0.09108   0.00000  Uiso   1.00
H362   H     0.83129   0.70395   0.24225   0.00000  Uiso   1.00
C363   C     0.83335   0.95726   0.16667   0.00000  Uiso   1.00
C364   C     0.83331   0.70941   0.16666   0.00000  Uiso   1.00
C365   C     0.79935   0.80958   0.02055   0.00000  Uiso   1.00
C366   C     0.86731   0.85709   0.31278   0.00000  Uiso   1.00
H367   H     0.77220   0.79050   0.03585   0.00000  Uiso   1.00
H368   H     0.89446   0.87617   0.29748   0.00000  Uiso   1.00
C369   C     0.79937   0.80959   0.30427   0.00000  Uiso   1.00
C370   C     0.86730   0.85708   0.02907   0.00000  Uiso   1.00
H371   H     0.77221   0.79053   0.28215   0.00000  Uiso   1.00
H372   H     0.89446   0.87614   0.05118   0.00000  Uiso   1.00
N373   N     0.99036   0.80596   0.10749   0.00000  Uiso   1.00
O374   O     0.99701   0.81863   0.06550   0.00000  Uiso   1.00
O375   O     0.96922   0.77020   0.11212   0.00000  Uiso   1.00
N376   N     0.67631   0.86071   0.22584   0.00000  Uiso   1.00
O377   O     0.66965   0.84805   0.26783   0.00000  Uiso   1.00
O378   O     0.69745   0.89646   0.22121   0.00000  Uiso   1.00
O379   O     0.16666   0.10655   0.53958   0.00000  Uiso   1.00
O380   O     0.16667   0.22678   0.46042   0.00000  Uiso   1.00
O381   O     0.16666   0.10654   0.46039   0.00000  Uiso   1.00
O382   O     0.16667   0.22679   0.53961   0.00000  Uiso   1.00
C383   C     0.16664   0.08735   0.49999   0.00000  Uiso   1.00
C384   C     0.16669   0.24598   0.50001   0.00000  Uiso   1.00
O385   O     0.09161   0.16667   0.53046   0.00000  Uiso   1.00
O386   O     0.24172   0.16666   0.46954   0.00000  Uiso   1.00
O387   O     0.09161   0.16666   0.45127   0.00000  Uiso   1.00
O388   O     0.24172   0.16667   0.54873   0.00000  Uiso   1.00
C389   C     0.06805   0.16658   0.48805   0.00000  Uiso   1.00
C390   C     0.26528   0.16676   0.51195   0.00000  Uiso   1.00
Cu391  Cu    0.16667   0.16667   0.54689   0.00000  Uiso   1.00
Cu392  Cu    0.16667   0.16666   0.45311   0.00000  Uiso   1.00
N393   N     0.16668   0.16668   0.61736   0.00000  Uiso   1.00
N394   N     0.16665   0.16666   0.38264   0.00000  Uiso   1.00
C395   C     0.01334   0.16142   0.48214   0.00000  Uiso   1.00
C396   C     0.31999   0.17192   0.51786   0.00000  Uiso   1.00
C397   C     0.16776   0.02129   0.45757   0.00000  Uiso   1.00
C398   C     0.16557   0.31204   0.54243   0.00000  Uiso   1.00
H399   H     0.16865   0.03731   0.42440   0.00000  Uiso   1.00
H400   H     0.16468   0.29602   0.57560   0.00000  Uiso   1.00
C401   C     0.16779   0.31206   0.45758   0.00000  Uiso   1.00
C402   C     0.16555   0.02128   0.54242   0.00000  Uiso   1.00
H403   H     0.16871   0.29605   0.42441   0.00000  Uiso   1.00
H404   H     0.16463   0.03728   0.57559   0.00000  Uiso   1.00
C405   C     0.16669   0.29059   0.50001   0.00000  Uiso   1.00
C406   C     0.16665   0.04274   0.49999   0.00000  Uiso   1.00
C407   C     0.13269   0.14291   0.35388   0.00000  Uiso   1.00
C408   C     0.20065   0.19042   0.64612   0.00000  Uiso   1.00
H409   H     0.10554   0.12383   0.36919   0.00000  Uiso   1.00
H410   H     0.22780   0.20950   0.63081   0.00000  Uiso   1.00
C411   C     0.13270   0.14292   0.63760   0.00000  Uiso   1.00
C412   C     0.20063   0.19041   0.36240   0.00000  Uiso   1.00
H413   H     0.10554   0.12386   0.61549   0.00000  Uiso   1.00
H414   H     0.22779   0.20947   0.38451   0.00000  Uiso   1.00
N415   N     0.32369   0.13929   0.44082   0.00000  Uiso   1.00
O416   O     0.33035   0.15196   0.39883   0.00000  Uiso   1.00
O417   O     0.30256   0.10354   0.44545   0.00000  Uiso   1.00
N418   N     0.00964   0.19404   0.55918   0.00000  Uiso   1.00
O419   O     0.00298   0.18138   0.60117   0.00000  Uiso   1.00
O420   O     0.03078   0.22980   0.55454   0.00000  Uiso   1.00
O421   O     0.50000   0.10655   0.53958   0.00000  Uiso   1.00
O422   O     0.50000   0.22678   0.46042   0.00000  Uiso   1.00
O423   O     0.50000   0.10654   0.46039   0.00000  Uiso   1.00
O424   O     0.50000   0.22679   0.53961   0.00000  Uiso   1.00
C425   C     0.49998   0.08735   0.49999   0.00000  Uiso   1.00
C426   C     0.50002   0.24598   0.50001   0.00000  Uiso   1.00
O427   O     0.42495   0.16667   0.53046   0.00000  Uiso   1.00
O428   O     0.57505   0.16666   0.46954   0.00000  Uiso   1.00
O429   O     0.42494   0.16666   0.45127   0.00000  Uiso   1.00
O430   O     0.57506   0.16667   0.54873   0.00000  Uiso   1.00
C431   C     0.40139   0.16658   0.48805   0.00000  Uiso   1.00
C432   C     0.59861   0.16676   0.51195   0.00000  Uiso   1.00
Cu433  Cu    0.50000   0.16667   0.54689   0.00000  Uiso   1.00
Cu434  Cu    0.50000   0.16666   0.45311   0.00000  Uiso   1.00
N435   N     0.50001   0.16668   0.61736   0.00000  Uiso   1.00
N436   N     0.49999   0.16666   0.38264   0.00000  Uiso   1.00
C437   C     0.34667   0.16142   0.48214   0.00000  Uiso   1.00
C438   C     0.65333   0.17192   0.51786   0.00000  Uiso   1.00
C439   C     0.50109   0.02129   0.45757   0.00000  Uiso   1.00
C440   C     0.49891   0.31204   0.54243   0.00000  Uiso   1.00
H441   H     0.50198   0.03731   0.42440   0.00000  Uiso   1.00
H442   H     0.49802   0.29602   0.57560   0.00000  Uiso   1.00
C443   C     0.50112   0.31206   0.45758   0.00000  Uiso   1.00
C444   C     0.49888   0.02128   0.54242   0.00000  Uiso   1.00
H445   H     0.50204   0.29605   0.42441   0.00000  Uiso   1.00
H446   H     0.49796   0.03728   0.57559   0.00000  Uiso   1.00
C447   C     0.50002   0.29059   0.50001   0.00000  Uiso   1.00
C448   C     0.49998   0.04274   0.49999   0.00000  Uiso   1.00
C449   C     0.46602   0.14291   0.35388   0.00000  Uiso   1.00
C450   C     0.53398   0.19042   0.64612   0.00000  Uiso   1.00
H451   H     0.43887   0.12383   0.36919   0.00000  Uiso   1.00
H452   H     0.56113   0.20950   0.63081   0.00000  Uiso   1.00
C453   C     0.46603   0.14292   0.63760   0.00000  Uiso   1.00
C454   C     0.53397   0.19041   0.36240   0.00000  Uiso   1.00
H455   H     0.43888   0.12386   0.61549   0.00000  Uiso   1.00
H456   H     0.56112   0.20947   0.38451   0.00000  Uiso   1.00
N457   N     0.65702   0.13929   0.44082   0.00000  Uiso   1.00
O458   O     0.66368   0.15196   0.39883   0.00000  Uiso   1.00
O459   O     0.63589   0.10354   0.44545   0.00000  Uiso   1.00
N460   N     0.34298   0.19404   0.55918   0.00000  Uiso   1.00
O461   O     0.33631   0.18138   0.60117   0.00000  Uiso   1.00
O462   O     0.36411   0.22980   0.55454   0.00000  Uiso   1.00
O463   O     0.83333   0.10655   0.53958   0.00000  Uiso   1.00
O464   O     0.83334   0.22678   0.46042   0.00000  Uiso   1.00
O465   O     0.83333   0.10654   0.46039   0.00000  Uiso   1.00
O466   O     0.83334   0.22679   0.53961   0.00000  Uiso   1.00
C467   C     0.83331   0.08735   0.49999   0.00000  Uiso   1.00
C468   C     0.83336   0.24598   0.50001   0.00000  Uiso   1.00
O469   O     0.75828   0.16667   0.53046   0.00000  Uiso   1.00
O470   O     0.90839   0.16666   0.46954   0.00000  Uiso   1.00
O471   O     0.75828   0.16666   0.45127   0.00000  Uiso   1.00
O472   O     0.90839   0.16667   0.54873   0.00000  Uiso   1.00
C473   C     0.73472   0.16658   0.48805   0.00000  Uiso   1.00
C474   C     0.93195   0.16676   0.51195   0.00000  Uiso   1.00
Cu475  Cu    0.83333   0.16667   0.54689   0.00000  Uiso   1.00
Cu476  Cu    0.83333   0.16666   0.45311   0.00000  Uiso   1.00
N477   N     0.83335   0.16668   0.61736   0.00000  Uiso   1.00
N478   N     0.83332   0.16666   0.38264   0.00000  Uiso   1.00
C479   C     0.68001   0.16142   0.48214   0.00000  Uiso   1.00
C480   C     0.98666   0.17192   0.51786   0.00000  Uiso   1.00
C481   C     0.83443   0.02129   0.45757   0.00000  Uiso   1.00
C482   C     0.83224   0.31204   0.54243   0.00000  Uiso   1.00
H483   H     0.83532   0.03731   0.42440   0.00000  Uiso   1.00
H484   H     0.83135   0.29602   0.57560   0.00000  Uiso   1.00
C485   C     0.83445   0.31206   0.45758   0.00000  Uiso   1.00
C486   C     0.83221   0.02128   0.54242   0.00000  Uiso   1.00
H487   H     0.83537   0.29605   0.42441   0.00000  Uiso   1.00
H488   H     0.83129   0.03728   0.57559   0.00000  Uiso   1.00
C489   C     0.83335   0.29059   0.50001   0.00000  Uiso   1.00
C490   C     0.83331   0.04274   0.49999   0.00000  Uiso   1.00
C491   C     0.79935   0.14291   0.35388   0.00000  Uiso   1.00
C492   C     0.86731   0.19042   0.64612   0.00000  Uiso   1.00
H493   H     0.77220   0.12383   0.36919   0.00000  Uiso   1.00
H494   H     0.89446   0.20950   0.63081   0.00000  Uiso   1.00
C495   C     0.79937   0.14292   0.63760   0.00000  Uiso   1.00
C496   C     0.86730   0.19041   0.36240   0.00000  Uiso   1.00
H497   H     0.77221   0.12386   0.61549   0.00000  Uiso   1.00
H498   H     0.89446   0.20947   0.38451   0.00000  Uiso   1.00
N499   N     0.99036   0.13929   0.44082   0.00000  Uiso   1.00
O500   O     0.99701   0.15196   0.39883   0.00000  Uiso   1.00
O501   O     0.96922   0.10354   0.44545   0.00000  Uiso   1.00
N502   N     0.67631   0.19404   0.55918   0.00000  Uiso   1.00
O503   O     0.66965   0.18138   0.60117   0.00000  Uiso   1.00
O504   O     0.69745   0.22980   0.55454   0.00000  Uiso   1.00
O505   O     0.16666   0.43989   0.53958   0.00000  Uiso   1.00
O506   O     0.16667   0.56011   0.46042   0.00000  Uiso   1.00
O507   O     0.16666   0.43988   0.46039   0.00000  Uiso   1.00
O508   O     0.16667   0.56012   0.53961   0.00000  Uiso   1.00
C509   C     0.16664   0.42069   0.49999   0.00000  Uiso   1.00
C510   C     0.16669   0.57931   0.50001   0.00000  Uiso   1.00
O511   O     0.09161   0.50000   0.53046   0.00000  Uiso   1.00
O512   O     0.24172   0.50000   0.46954   0.00000  Uiso   1.00
O513   O     0.09161   0.49999   0.45127   0.00000  Uiso   1.00
O514   O     0.24172   0.50001   0.54873   0.00000  Uiso   1.00
C515   C     0.06805   0.49991   0.48805   0.00000  Uiso   1.00
C516   C     0.26528   0.50009   0.51195   0.00000  Uiso   1.00
Cu517  Cu    0.16667   0.50001   0.54689   0.00000  Uiso   1.00
Cu518  Cu    0.16667   0.49999   0.45311   0.00000  Uiso   1.00
N519   N     0.16668   0.50001   0.61736   0.00000  Uiso   1.00
N520   N     0.16665   0.49999   0.38264   0.00000  Uiso   1.00
C521   C     0.01334   0.49475   0.48214   0.00000  Uiso   1.00
C522   C     0.31999   0.50525   0.51786   0.00000  Uiso   1.00
C523   C     0.16776   0.35462   0.45757   0.00000  Uiso   1.00
C524   C     0.16557   0.64537   0.54243   0.00000  Uiso   1.00
H525   H     0.16865   0.37064   0.42440   0.00000  Uiso   1.00
H526   H     0.16468   0.62936   0.57560   0.00000  Uiso   1.00
C527   C     0.16779   0.64539   0.45758   0.00000  Uiso   1.00
C528   C     0.16555   0.35461   0.54242   0.00000  Uiso   1.00
H529   H     0.16871   0.62938   0.42441   0.00000  Uiso   1.00
H530   H     0.16463   0.37062   0.57559   0.00000  Uiso   1.00
C531   C     0.16669   0.62393   0.50001   0.00000  Uiso   1.00
C532   C     0.16665   0.37607   0.49999   0.00000  Uiso   1.00
C533   C     0.13269   0.47624   0.35388   0.00000  Uiso   1.00
C534   C     0.20065   0.52375   0.64612   0.00000  Uiso   1.00
H535   H     0.10554   0.45716   0.36919   0.00000  Uiso   1.00
H536   H     0.22780   0.54284   0.63081   0.00000  Uiso   1.00
C537   C     0.13270   0.47626   0.63760   0.00000  Uiso   1.00
C538   C     0.20063   0.52374   0.36240   0.00000  Uiso   1.00
H539   H     0.10554   0.45719   0.61549   0.00000  Uiso   1.00
H540   H     0.22779   0.54281   0.38451   0.00000  Uiso   1.00
N541   N     0.32369   0.47263   0.44082   0.00000  Uiso   1.00
O542   O     0.33035   0.48529   0.39883   0.00000  Uiso   1.00
O543   O     0.30256   0.43687   0.44545   0.00000  Uiso   1.00
N544   N     0.00964   0.52737   0.55918   0.00000  Uiso   1.00
O545   O     0.00298   0.51471   0.60117   0.00000  Uiso   1.00
O546   O     0.03078   0.56313   0.55454   0.00000  Uiso   1.00
O547   O     0.50000   0.43989   0.53958   0.00000  Uiso   1.00
O548   O     0.50000   0.56011   0.46042   0.00000  Uiso   1.00
O549   O     0.50000   0.43988   0.46039   0.00000  Uiso   1.00
O550   O     0.50000   0.56012   0.53961   0.00000  Uiso   1.00
C551   C     0.49998   0.42069   0.49999   0.00000  Uiso   1.00
C552   C     0.50002   0.57931   0.50001   0.00000  Uiso   1.00
O553   O     0.42495   0.50000   0.53046   0.00000  Uiso   1.00
O554   O     0.57505   0.50000   0.46954   0.00000  Uiso   1.00
O555   O     0.42494   0.49999   0.45127   0.00000  Uiso   1.00
O556   O     0.57506   0.50001   0.54873   0.00000  Uiso   1.00
C557   C     0.40139   0.49991   0.48805   0.00000  Uiso   1.00
C558   C     0.59861   0.50009   0.51195   0.00000  Uiso   1.00
Cu559  Cu    0.50000   0.50001   0.54689   0.00000  Uiso   1.00
Cu560  Cu    0.50000   0.49999   0.45311   0.00000  Uiso   1.00
N561   N     0.50001   0.50001   0.61736   0.00000  Uiso   1.00
N562   N     0.49999   0.49999   0.38264   0.00000  Uiso   1.00
C563   C     0.34667   0.49475   0.48214   0.00000  Uiso   1.00
C564   C     0.65333   0.50525   0.51786   0.00000  Uiso   1.00
C565   C     0.50109   0.35462   0.45757   0.00000  Uiso   1.00
C566   C     0.49891   0.64537   0.54243   0.00000  Uiso   1.00
H567   H     0.50198   0.37064   0.42440   0.00000  Uiso   1.00
H568   H     0.49802   0.62936   0.57560   0.00000  Uiso   1.00
C569   C     0.50112   0.64539   0.45758   0.00000  Uiso   1.00
C570   C     0.49888   0.35461   0.54242   0.00000  Uiso   1.00
H571   H     0.50204   0.62938   0.42441   0.00000  Uiso   1.00
H572   H     0.49796   0.37062   0.57559   0.00000  Uiso   1.00
C573   C     0.50002   0.62393   0.50001   0.00000  Uiso   1.00
C574   C     0.49998   0.37607   0.49999   0.00000  Uiso   1.00
C575   C     0.46602   0.47624   0.35388   0.00000  Uiso   1.00
C576   C     0.53398   0.52375   0.64612   0.00000  Uiso   1.00
H577   H     0.43887   0.45716   0.36919   0.00000  Uiso   1.00
H578   H     0.56113   0.54284   0.63081   0.00000  Uiso   1.00
C579   C     0.46603   0.47626   0.63760   0.00000  Uiso   1.00
C580   C     0.53397   0.52374   0.36240   0.00000  Uiso   1.00
H581   H     0.43888   0.45719   0.61549   0.00000  Uiso   1.00
H582   H     0.56112   0.54281   0.38451   0.00000  Uiso   1.00
N583   N     0.65702   0.47263   0.44082   0.00000  Uiso   1.00
O584   O     0.66368   0.48529   0.39883   0.00000  Uiso   1.00
O585   O     0.63589   0.43687   0.44545   0.00000  Uiso   1.00
N586   N     0.34298   0.52737   0.55918   0.00000  Uiso   1.00
O587   O     0.33631   0.51471   0.60117   0.00000  Uiso   1.00
O588   O     0.36411   0.56313   0.55454   0.00000  Uiso   1.00
O589   O     0.83333   0.43989   0.53958   0.00000  Uiso   1.00
O590   O     0.83334   0.56011   0.46042   0.00000  Uiso   1.00
O591   O     0.83333   0.43988   0.46039   0.00000  Uiso   1.00
O592   O     0.83334   0.56012   0.53961   0.00000  Uiso   1.00
C593   C     0.83331   0.42069   0.49999   0.00000  Uiso   1.00
C594   C     0.83336   0.57931   0.50001   0.00000  Uiso   1.00
O595   O     0.75828   0.50000   0.53046   0.00000  Uiso   1.00
O596   O     0.90839   0.50000   0.46954   0.00000  Uiso   1.00
O597   O     0.75828   0.49999   0.45127   0.00000  Uiso   1.00
O598   O     0.90839   0.50001   0.54873   0.00000  Uiso   1.00
C599   C     0.73472   0.49991   0.48805   0.00000  Uiso   1.00
C600   C     0.93195   0.50009   0.51195   0.00000  Uiso   1.00
Cu601  Cu    0.83333   0.50001   0.54689   0.00000  Uiso   1.00
Cu602  Cu    0.83333   0.49999   0.45311   0.00000  Uiso   1.00
N603   N     0.83335   0.50001   0.61736   0.00000  Uiso   1.00
N604   N     0.83332   0.49999   0.38264   0.00000  Uiso   1.00
C605   C     0.68001   0.49475   0.48214   0.00000  Uiso   1.00
C606   C     0.98666   0.50525   0.51786   0.00000  Uiso   1.00
C607   C     0.83443   0.35462   0.45757   0.00000  Uiso   1.00
C608   C     0.83224   0.64537   0.54243   0.00000  Uiso   1.00
H609   H     0.83532   0.37064   0.42440   0.00000  Uiso   1.00
H610   H     0.83135   0.62936   0.57560   0.00000  Uiso   1.00
C611   C     0.83445   0.64539   0.45758   0.00000  Uiso   1.00
C612   C     0.83221   0.35461   0.54242   0.00000  Uiso   1.00
H613   H     0.83537   0.62938   0.42441   0.00000  Uiso   1.00
H614   H     0.83129   0.37062   0.57559   0.00000  Uiso   1.00
C615   C     0.83335   0.62393   0.50001   0.00000  Uiso   1.00
C616   C     0.83331   0.37607   0.49999   0.00000  Uiso   1.00
C617   C     0.79935   0.47624   0.35388   0.00000  Uiso   1.00
C618   C     0.86731   0.52375   0.64612   0.00000  Uiso   1.00
H619   H     0.77220   0.45716   0.36919   0.00000  Uiso   1.00
H620   H     0.89446   0.54284   0.63081   0.00000  Uiso   1.00
C621   C     0.79937   0.47626   0.63760   0.00000  Uiso   1.00
C622   C     0.86730   0.52374   0.36240   0.00000  Uiso   1.00
H623   H     0.77221   0.45719   0.61549   0.00000  Uiso   1.00
H624   H     0.89446   0.54281   0.38451   0.00000  Uiso   1.00
N625   N     0.99036   0.47263   0.44082   0.00000  Uiso   1.00
O626   O     0.99701   0.48529   0.39883   0.00000  Uiso   1.00
O627   O     0.96922   0.43687   0.44545   0.00000  Uiso   1.00
N628   N     0.67631   0.52737   0.55918   0.00000  Uiso   1.00
O629   O     0.66965   0.51471   0.60117   0.00000  Uiso   1.00
O630   O     0.69745   0.56313   0.55454   0.00000  Uiso   1.00
O631   O     0.16666   0.77322   0.53958   0.00000  Uiso   1.00
O632   O     0.16667   0.89345   0.46042   0.00000  Uiso   1.00
O633   O     0.16666   0.77321   0.46039   0.00000  Uiso   1.00
O634   O     0.16667   0.89346   0.53961   0.00000  Uiso   1.00
C635   C     0.16664   0.75402   0.49999   0.00000  Uiso   1.00
C636   C     0.16669   0.91265   0.50001   0.00000  Uiso   1.00
O637   O     0.09161   0.83334   0.53046   0.00000  Uiso   1.00
O638   O     0.24172   0.83333   0.46954   0.00000  Uiso   1.00
O639   O     0.09161   0.83333   0.45127   0.00000  Uiso   1.00
O640   O     0.24172   0.83334   0.54873   0.00000  Uiso   1.00
C641   C     0.06805   0.83324   0.48805   0.00000  Uiso   1.00
C642   C     0.26528   0.83342   0.51195   0.00000  Uiso   1.00
Cu643  Cu    0.16667   0.83334   0.54689   0.00000  Uiso   1.00
Cu644  Cu    0.16667   0.83333   0.45311   0.00000  Uiso   1.00
N645   N     0.16668   0.83334   0.61736   0.00000  Uiso   1.00
N646   N     0.16665   0.83332   0.38264   0.00000  Uiso   1.00
C647   C     0.01334   0.82808   0.48214   0.00000  Uiso   1.00
C648   C     0.31999   0.83859   0.51786   0.00000  Uiso   1.00
C649   C     0.16776   0.68796   0.45757   0.00000  Uiso   1.00
C650   C     0.16557   0.97871   0.54243   0.00000  Uiso   1.00
H651   H     0.16865   0.70398   0.42440   0.00000  Uiso   1.00
H652   H     0.16468   0.96269   0.57560   0.00000  Uiso   1.00
C653   C     0.16779   0.97872   0.45758   0.00000  Uiso   1.00
C654   C     0.16555   0.68794   0.54242   0.00000  Uiso   1.00
H655   H     0.16871   0.96272   0.42441   0.00000  Uiso   1.00
H656   H     0.16463   0.70395   0.57559   0.00000  Uiso   1.00
C657   C     0.16669   0.95726   0.50001   0.00000  Uiso   1.00
C658   C     0.16665   0.70941   0.49999   0.00000  Uiso   1.00
C659   C     0.13269   0.80958   0.35388   0.00000  Uiso   1.00
C660   C     0.20065   0.85709   0.64612   0.00000  Uiso   1.00
H661   H     0.10554   0.79050   0.36919   0.00000  Uiso   1.00
H662   H     0.22780   0.87617   0.63081   0.00000  Uiso   1.00
C663   C     0.13270   0.80959   0.63760   0.00000  Uiso   1.00
C664   C     0.20063   0.85708   0.36240   0.00000  Uiso   1.00
H665   H     0.10554   0.79053   0.61549   0.00000  Uiso   1.00
H666   H     0.22779   0.87614   0.38451   0.00000  Uiso   1.00
N667   N     0.32369   0.80596   0.44082   0.00000  Uiso   1.00
O668   O     0.33035   0.81863   0.39883   0.00000  Uiso   1.00
O669   O     0.30256   0.77020   0.44545   0.00000  Uiso   1.00
N670   N     0.00964   0.86071   0.55918   0.00000  Uiso   1.00
O671   O     0.00298   0.84805   0.60117   0.00000  Uiso   1.00
O672   O     0.03078   0.89646   0.55454   0.00000  Uiso   1.00
O673   O     0.50000   0.77322   0.53958   0.00000  Uiso   1.00
O674   O     0.50000   0.89345   0.46042   0.00000  Uiso   1.00
O675   O     0.50000   0.77321   0.46039   0.00000  Uiso   1.00
O676   O     0.50000   0.89346   0.53961   0.00000  Uiso   1.00
C677   C     0.49998   0.75402   0.49999   0.00000  Uiso   1.00
C678   C     0.50002   0.91265   0.50001   0.00000  Uiso   1.00
O679   O     0.42495   0.83334   0.53046   0.00000  Uiso   1.00
O680   O     0.57505   0.83333   0.46954   0.00000  Uiso   1.00
O681   O     0.42494   0.83333   0.45127   0.00000  Uiso   1.00
O682   O     0.57506   0.83334   0.54873   0.00000  Uiso   1.00
C683   C     0.40139   0.83324   0.48805   0.00000  Uiso   1.00
C684   C     0.59861   0.83342   0.51195   0.00000  Uiso   1.00
Cu685  Cu    0.50000   0.83334   0.54689   0.00000  Uiso   1.00
Cu686  Cu    0.50000   0.83333   0.45311   0.00000  Uiso   1.00
N687   N     0.50001   0.83334   0.61736   0.00000  Uiso   1.00
N688   N     0.49999   0.83332   0.38264   0.00000  Uiso   1.00
C689   C     0.34667   0.82808   0.48214   0.00000  Uiso   1.00
C690   C     0.65333   0.83859   0.51786   0.00000  Uiso   1.00
C691   C     0.50109   0.68796   0.45757   0.00000  Uiso   1.00
C692   C     0.49891   0.97871   0.54243   0.00000  Uiso   1.00
H693   H     0.50198   0.70398   0.42440   0.00000  Uiso   1.00
H694   H     0.49802   0.96269   0.57560   0.00000  Uiso   1.00
C695   C     0.50112   0.97872   0.45758   0.00000  Uiso   1.00
C696   C     0.49888   0.68794   0.54242   0.00000  Uiso   1.00
H697   H     0.50204   0.96272   0.42441   0.00000  Uiso   1.00
H698   H     0.49796   0.70395   0.57559   0.00000  Uiso   1.00
C699   C     0.50002   0.95726   0.50001   0.00000  Uiso   1.00
C700   C     0.49998   0.70941   0.49999   0.00000  Uiso   1.00
C701   C     0.46602   0.80958   0.35388   0.00000  Uiso   1.00
C702   C     0.53398   0.85709   0.64612   0.00000  Uiso   1.00
H703   H     0.43887   0.79050   0.36919   0.00000  Uiso   1.00
H704   H     0.56113   0.87617   0.63081   0.00000  Uiso   1.00
C705   C     0.46603   0.80959   0.63760   0.00000  Uiso   1.00
C706   C     0.53397   0.85708   0.36240   0.00000  Uiso   1.00
H707   H     0.43888   0.79053   0.61549   0.00000  Uiso   1.00
H708   H     0.56112   0.87614   0.38451   0.00000  Uiso   1.00
N709   N     0.65702   0.80596   0.44082   0.00000  Uiso   1.00
O710   O     0.66368   0.81863   0.39883   0.00000  Uiso   1.00
O711   O     0.63589   0.77020   0.44545   0.00000  Uiso   1.00
N712   N     0.34298   0.86071   0.55918   0.00000  Uiso   1.00
O713   O     0.33631   0.84805   0.60117   0.00000  Uiso   1.00
O714   O     0.36411   0.89646   0.55454   0.00000  Uiso   1.00
O715   O     0.83333   0.77322   0.53958   0.00000  Uiso   1.00
O716   O     0.83334   0.89345   0.46042   0.00000  Uiso   1.00
O717   O     0.83333   0.77321   0.46039   0.00000  Uiso   1.00
O718   O     0.83334   0.89346   0.53961   0.00000  Uiso   1.00
C719   C     0.83331   0.75402   0.49999   0.00000  Uiso   1.00
C720   C     0.83336   0.91265   0.50001   0.00000  Uiso   1.00
O721   O     0.75828   0.83334   0.53046   0.00000  Uiso   1.00
O722   O     0.90839   0.83333   0.46954   0.00000  Uiso   1.00
O723   O     0.75828   0.83333   0.45127   0.00000  Uiso   1.00
O724   O     0.90839   0.83334   0.54873   0.00000  Uiso   1.00
C725   C     0.73472   0.83324   0.48805   0.00000  Uiso   1.00
C726   C     0.93195   0.83342   0.51195   0.00000  Uiso   1.00
Cu727  Cu    0.83333   0.83334   0.54689   0.00000  Uiso   1.00
Cu728  Cu    0.83333   0.83333   0.45311   0.00000  Uiso   1.00
N729   N     0.83335   0.83334   0.61736   0.00000  Uiso   1.00
N730   N     0.83332   0.83332   0.38264   0.00000  Uiso   1.00
C731   C     0.68001   0.82808   0.48214   0.00000  Uiso   1.00
C732   C     0.98666   0.83859   0.51786   0.00000  Uiso   1.00
C733   C     0.83443   0.68796   0.45757   0.00000  Uiso   1.00
C734   C     0.83224   0.97871   0.54243   0.00000  Uiso   1.00
H735   H     0.83532   0.70398   0.42440   0.00000  Uiso   1.00
H736   H     0.83135   0.96269   0.57560   0.00000  Uiso   1.00
C737   C     0.83445   0.97872   0.45758   0.00000  Uiso   1.00
C738   C     0.83221   0.68794   0.54242   0.00000  Uiso   1.00
H739   H     0.83537   0.96272   0.42441   0.00000  Uiso   1.00
H740   H     0.83129   0.70395   0.57559   0.00000  Uiso   1.00
C741   C     0.83335   0.95726   0.50001   0.00000  Uiso   1.00
C742   C     0.83331   0.70941   0.49999   0.00000  Uiso   1.00
C743   C     0.79935   0.80958   0.35388   0.00000  Uiso   1.00
C744   C     0.86731   0.85709   0.64612   0.00000  Uiso   1.00
H745   H     0.77220   0.79050   0.36919   0.00000  Uiso   1.00
H746   H     0.89446   0.87617   0.63081   0.00000  Uiso   1.00
C747   C     0.79937   0.80959   0.63760   0.00000  Uiso   1.00
C748   C     0.86730   0.85708   0.36240   0.00000  Uiso   1.00
H749   H     0.77221   0.79053   0.61549   0.00000  Uiso   1.00
H750   H     0.89446   0.87614   0.38451   0.00000  Uiso   1.00
N751   N     0.99036   0.80596   0.44082   0.00000  Uiso   1.00
O752   O     0.99701   0.81863   0.39883   0.00000  Uiso   1.00
O753   O     0.96922   0.77020   0.44545   0.00000  Uiso   1.00
N754   N     0.67631   0.86071   0.55918   0.00000  Uiso   1.00
O755   O     0.66965   0.84805   0.60117   0.00000  Uiso   1.00
O756   O     0.69745   0.89646   0.55454   0.00000  Uiso   1.00
O757   O     0.16666   0.10655   0.87291   0.00000  Uiso   1.00
O758   O     0.16667   0.22678   0.79375   0.00000  Uiso   1.00
O759   O     0.16666   0.10654   0.79372   0.00000  Uiso   1.00
O760   O     0.16667   0.22679   0.87294   0.00000  Uiso   1.00
C761   C     0.16664   0.08735   0.83332   0.00000  Uiso   1.00
C762   C     0.16669   0.24598   0.83335   0.00000  Uiso   1.00
O763   O     0.09161   0.16667   0.86379   0.00000  Uiso   1.00
O764   O     0.24172   0.16666   0.80288   0.00000  Uiso   1.00
O765   O     0.09161   0.16666   0.78460   0.00000  Uiso   1.00
O766   O     0.24172   0.16667   0.88207   0.00000  Uiso   1.00
C767   C     0.06805   0.16658   0.82138   0.00000  Uiso   1.00
C768   C     0.26528   0.16676   0.84529   0.00000  Uiso   1.00
Cu769  Cu    0.16667   0.16667   0.88022   0.00000  Uiso   1.00
Cu770  Cu    0.16667   0.16666   0.78645   0.00000  Uiso   1.00
N771   N     0.16668   0.16668   0.95069   0.00000  Uiso   1.00
N772   N     0.16665   0.16666   0.71597   0.00000  Uiso   1.00
C773   C     0.01334   0.16142   0.81547   0.00000  Uiso   1.00
C774   C     0.31999   0.17192   0.85120   0.00000  Uiso   1.00
C775   C     0.16776   0.02129   0.79090   0.00000  Uiso   1.00
C776   C     0.16557   0.31204   0.87577   0.00000  Uiso   1.00
H777   H     0.16865   0.03731   0.75773   0.00000  Uiso   1.00
H778   H     0.16468   0.29602   0.90893   0.00000  Uiso   1.00
C779   C     0.16779   0.31206   0.79091   0.00000  Uiso   1.00
C780   C     0.16555   0.02128   0.87576   0.00000  Uiso   1.00
H781   H     0.16871   0.29605   0.75775   0.00000  Uiso   1.00
H782   H     0.16463   0.03728   0.90892   0.00000  Uiso   1.00
C783   C     0.16669   0.29059   0.83334   0.00000  Uiso   1.00
C784   C     0.16665   0.04274   0.83333   0.00000  Uiso   1.00
C785   C     0.13269   0.14291   0.68722   0.00000  Uiso   1.00
C786   C     0.20065   0.19042   0.97945   0.00000  Uiso   1.00
H787   H     0.10554   0.12383   0.70252   0.00000  Uiso   1.00
H788   H     0.22780   0.20950   0.96415   0.00000  Uiso   1.00
C789   C     0.13270   0.14292   0.97093   0.00000  Uiso   1.00
C790   C     0.20063   0.19041   0.69574   0.00000  Uiso   1.00
H791   H     0.10554   0.12386   0.94882   0.00000  Uiso   1.00
H792   H     0.22779   0.20947   0.71785   0.00000  Uiso   1.00
N793   N     0.32369   0.13929   0.77415   0.00000  Uiso   1.00
O794   O     0.33035   0.15196   0.73216   0.00000  Uiso   1.00
O795   O     0.30256   0.10354   0.77879   0.00000  Uiso   1.00
N796   N     0.00964   0.19404   0.89251   0.00000  Uiso   1.00
O797   O     0.00298   0.18138   0.93450   0.00000  Uiso   1.00
O798   O     0.03078   0.22980   0.88788   0.00000  Uiso   1.00
O799   O     0.50000   0.10655   0.87291   0.00000  Uiso   1.00
O800   O     0.50000   0.22678   0.79375   0.00000  Uiso   1.00
O801   O     0.50000   0.10654   0.79372   0.00000  Uiso   1.00
O802   O     0.50000   0.22679   0.87294   0.00000  Uiso   1.00
C803   C     0.49998   0.08735   0.83332   0.00000  Uiso   1.00
C804   C     0.50002   0.24598   0.83335   0.00000  Uiso   1.00
O805   O     0.42495   0.16667   0.86379   0.00000  Uiso   1.00
O806   O     0.57505   0.16666   0.80288   0.00000  Uiso   1.00
O807   O     0.42494   0.16666   0.78460   0.00000  Uiso   1.00
O808   O     0.57506   0.16667   0.88207   0.00000  Uiso   1.00
C809   C     0.40139   0.16658   0.82138   0.00000  Uiso   1.00
C810   C     0.59861   0.16676   0.84529   0.00000  Uiso   1.00
Cu811  Cu    0.50000   0.16667   0.88022   0.00000  Uiso   1.00
Cu812  Cu    0.50000   0.16666   0.78645   0.00000  Uiso   1.00
N813   N     0.50001   0.16668   0.95069   0.00000  Uiso   1.00
N814   N     0.49999   0.16666   0.71597   0.00000  Uiso   1.00
C815   C     0.34667   0.16142   0.81547   0.00000  Uiso   1.00
C816   C     0.65333   0.17192   0.85120   0.00000  Uiso   1.00
C817   C     0.50109   0.02129   0.79090   0.00000  Uiso   1.00
C818   C     0.49891   0.31204   0.87577   0.00000  Uiso   1.00
H819   H     0.50198   0.03731   0.75773   0.00000  Uiso   1.00
H820   H     0.49802   0.29602   0.90893   0.00000  Uiso   1.00
C821   C     0.50112   0.31206   0.79091   0.00000  Uiso   1.00
C822   C     0.49888   0.02128   0.87576   0.00000  Uiso   1.00
H823   H     0.50204   0.29605   0.75775   0.00000  Uiso   1.00
H824   H     0.49796   0.03728   0.90892   0.00000  Uiso   1.00
C825   C     0.50002   0.29059   0.83334   0.00000  Uiso   1.00
C826   C     0.49998   0.04274   0.83333   0.00000  Uiso   1.00
C827   C     0.46602   0.14291   0.68722   0.00000  Uiso   1.00
C828   C     0.53398   0.19042   0.97945   0.00000  Uiso   1.00
H829   H     0.43887   0.12383   0.70252   0.00000  Uiso   1.00
H830   H     0.56113   0.20950   0.96415   0.00000  Uiso   1.00
C831   C     0.46603   0.14292   0.97093   0.00000  Uiso   1.00
C832   C     0.53397   0.19041   0.69574   0.00000  Uiso   1.00
H833   H     0.43888   0.12386   0.94882   0.00000  Uiso   1.00
H834   H     0.56112   0.20947   0.71785   0.00000  Uiso   1.00
N835   N     0.65702   0.13929   0.77415   0.00000  Uiso   1.00
O836   O     0.66368   0.15196   0.73216   0.00000  Uiso   1.00
O837   O     0.63589   0.10354   0.77879   0.00000  Uiso   1.00
N838   N     0.34298   0.19404   0.89251   0.00000  Uiso   1.00
O839   O     0.33631   0.18138   0.93450   0.00000  Uiso   1.00
O840   O     0.36411   0.22980   0.88788   0.00000  Uiso   1.00
O841   O     0.83333   0.10655   0.87291   0.00000  Uiso   1.00
O842   O     0.83334   0.22678   0.79375   0.00000  Uiso   1.00
O843   O     0.83333   0.10654   0.79372   0.00000  Uiso   1.00
O844   O     0.83334   0.22679   0.87294   0.00000  Uiso   1.00
C845   C     0.83331   0.08735   0.83332   0.00000  Uiso   1.00
C846   C     0.83336   0.24598   0.83335   0.00000  Uiso   1.00
O847   O     0.75828   0.16667   0.86379   0.00000  Uiso   1.00
O848   O     0.90839   0.16666   0.80288   0.00000  Uiso   1.00
O849   O     0.75828   0.16666   0.78460   0.00000  Uiso   1.00
O850   O     0.90839   0.16667   0.88207   0.00000  Uiso   1.00
C851   C     0.73472   0.16658   0.82138   0.00000  Uiso   1.00
C852   C     0.93195   0.16676   0.84529   0.00000  Uiso   1.00
Cu853  Cu    0.83333   0.16667   0.88022   0.00000  Uiso   1.00
Cu854  Cu    0.83333   0.16666   0.78645   0.00000  Uiso   1.00
N855   N     0.83335   0.16668   0.95069   0.00000  Uiso   1.00
N856   N     0.83332   0.16666   0.71597   0.00000  Uiso   1.00
C857   C     0.68001   0.16142   0.81547   0.00000  Uiso   1.00
C858   C     0.98666   0.17192   0.85120   0.00000  Uiso   1.00
C859   C     0.83443   0.02129   0.79090   0.00000  Uiso   1.00
C860   C     0.83224   0.31204   0.87577   0.00000  Uiso   1.00
H861   H     0.83532   0.03731   0.75773   0.00000  Uiso   1.00
H862   H     0.83135   0.29602   0.90893   0.00000  Uiso   1.00
C863   C     0.83445   0.31206   0.79091   0.00000  Uiso   1.00
C864   C     0.83221   0.02128   0.87576   0.00000  Uiso   1.00
H865   H     0.83537   0.29605   0.75775   0.00000  Uiso   1.00
H866   H     0.83129   0.03728   0.90892   0.00000  Uiso   1.00
C867   C     0.83335   0.29059   0.83334   0.00000  Uiso   1.00
C868   C     0.83331   0.04274   0.83333   0.00000  Uiso   1.00
C869   C     0.79935   0.14291   0.68722   0.00000  Uiso   1.00
C870   C     0.86731   0.19042   0.97945   0.00000  Uiso   1.00
H871   H     0.77220   0.12383   0.70252   0.00000  Uiso   1.00
H872   H     0.89446   0.20950   0.96415   0.00000  Uiso   1.00
C873   C     0.79937   0.14292   0.97093   0.00000  Uiso   1.00
C874   C     0.86730   0.19041   0.69574   0.00000  Uiso   1.00
H875   H     0.77221   0.12386   0.94882   0.00000  Uiso   1.00
H876   H     0.89446   0.20947   0.71785   0.00000  Uiso   1.00
N877   N     0.99036   0.13929   0.77415   0.00000  Uiso   1.00
O878   O     0.99701   0.15196   0.73216   0.00000  Uiso   1.00
O879   O     0.96922   0.10354   0.77879   0.00000  Uiso   1.00
N880   N     0.67631   0.19404   0.89251   0.00000  Uiso   1.00
O881   O     0.66965   0.18138   0.93450   0.00000  Uiso   1.00
O882   O     0.69745   0.22980   0.88788   0.00000  Uiso   1.00
O883   O     0.16666   0.43989   0.87291   0.00000  Uiso   1.00
O884   O     0.16667   0.56011   0.79375   0.00000  Uiso   1.00
O885   O     0.16666   0.43988   0.79372   0.00000  Uiso   1.00
O886   O     0.16667   0.56012   0.87294   0.00000  Uiso   1.00
C887   C     0.16664   0.42069   0.83332   0.00000  Uiso   1.00
C888   C     0.16669   0.57931   0.83335   0.00000  Uiso   1.00
O889   O     0.09161   0.50000   0.86379   0.00000  Uiso   1.00
O890   O     0.24172   0.50000   0.80288   0.00000  Uiso   1.00
O891   O     0.09161   0.49999   0.78460   0.00000  Uiso   1.00
O892   O     0.24172   0.50001   0.88207   0.00000  Uiso   1.00
C893   C     0.06805   0.49991   0.82138   0.00000  Uiso   1.00
C894   C     0.26528   0.50009   0.84529   0.00000  Uiso   1.00
Cu895  Cu    0.16667   0.50001   0.88022   0.00000  Uiso   1.00
Cu896  Cu    0.16667   0.49999   0.78645   0.00000  Uiso   1.00
N897   N     0.16668   0.50001   0.95069   0.00000  Uiso   1.00
N898   N     0.16665   0.49999   0.71597   0.00000  Uiso   1.00
C899   C     0.01334   0.49475   0.81547   0.00000  Uiso   1.00
C900   C     0.31999   0.50525   0.85120   0.00000  Uiso   1.00
C901   C     0.16776   0.35462   0.79090   0.00000  Uiso   1.00
C902   C     0.16557   0.64537   0.87577   0.00000  Uiso   1.00
H903   H     0.16865   0.37064   0.75773   0.00000  Uiso   1.00
H904   H     0.16468   0.62936   0.90893   0.00000  Uiso   1.00
C905   C     0.16779   0.64539   0.79091   0.00000  Uiso   1.00
C906   C     0.16555   0.35461   0.87576   0.00000  Uiso   1.00
H907   H     0.16871   0.62938   0.75775   0.00000  Uiso   1.00
H908   H     0.16463   0.37062   0.90892   0.00000  Uiso   1.00
C909   C     0.16669   0.62393   0.83334   0.00000  Uiso   1.00
C910   C     0.16665   0.37607   0.83333   0.00000  Uiso   1.00
C911   C     0.13269   0.47624   0.68722   0.00000  Uiso   1.00
C912   C     0.20065   0.52375   0.97945   0.00000  Uiso   1.00
H913   H     0.10554   0.45716   0.70252   0.00000  Uiso   1.00
H914   H     0.22780   0.54284   0.96415   0.00000  Uiso   1.00
C915   C     0.13270   0.47626   0.97093   0.00000  Uiso   1.00
C916   C     0.20063   0.52374   0.69574   0.00000  Uiso   1.00
H917   H     0.10554   0.45719   0.94882   0.00000  Uiso   1.00
H918   H     0.22779   0.54281   0.71785   0.00000  Uiso   1.00
N919   N     0.32369   0.47263   0.77415   0.00000  Uiso   1.00
O920   O     0.33035   0.48529   0.73216   0.00000  Uiso   1.00
O921   O     0.30256   0.43687   0.77879   0.00000  Uiso   1.00
N922   N     0.00964   0.52737   0.89251   0.00000  Uiso   1.00
O923   O     0.00298   0.51471   0.93450   0.00000  Uiso   1.00
O924   O     0.03078   0.56313   0.88788   0.00000  Uiso   1.00
O925   O     0.50000   0.43989   0.87291   0.00000  Uiso   1.00
O926   O     0.50000   0.56011   0.79375   0.00000  Uiso   1.00
O927   O     0.50000   0.43988   0.79372   0.00000  Uiso   1.00
O928   O     0.50000   0.56012   0.87294   0.00000  Uiso   1.00
C929   C     0.49998   0.42069   0.83332   0.00000  Uiso   1.00
C930   C     0.50002   0.57931   0.83335   0.00000  Uiso   1.00
O931   O     0.42495   0.50000   0.86379   0.00000  Uiso   1.00
O932   O     0.57505   0.50000   0.80288   0.00000  Uiso   1.00
O933   O     0.42494   0.49999   0.78460   0.00000  Uiso   1.00
O934   O     0.57506   0.50001   0.88207   0.00000  Uiso   1.00
C935   C     0.40139   0.49991   0.82138   0.00000  Uiso   1.00
C936   C     0.59861   0.50009   0.84529   0.00000  Uiso   1.00
Cu937  Cu    0.50000   0.50001   0.88022   0.00000  Uiso   1.00
Cu938  Cu    0.50000   0.49999   0.78645   0.00000  Uiso   1.00
N939   N     0.50001   0.50001   0.95069   0.00000  Uiso   1.00
N940   N     0.49999   0.49999   0.71597   0.00000  Uiso   1.00
C941   C     0.34667   0.49475   0.81547   0.00000  Uiso   1.00
C942   C     0.65333   0.50525   0.85120   0.00000  Uiso   1.00
C943   C     0.50109   0.35462   0.79090   0.00000  Uiso   1.00
C944   C     0.49891   0.64537   0.87577   0.00000  Uiso   1.00
H945   H     0.50198   0.37064   0.75773   0.00000  Uiso   1.00
H946   H     0.49802   0.62936   0.90893   0.00000  Uiso   1.00
C947   C     0.50112   0.64539   0.79091   0.00000  Uiso   1.00
C948   C     0.49888   0.35461   0.87576   0.00000  Uiso   1.00
H949   H     0.50204   0.62938   0.75775   0.00000  Uiso   1.00
H950   H     0.49796   0.37062   0.90892   0.00000  Uiso   1.00
C951   C     0.50002   0.62393   0.83334   0.00000  Uiso   1.00
C952   C     0.49998   0.37607   0.83333   0.00000  Uiso   1.00
C953   C     0.46602   0.47624   0.68722   0.00000  Uiso   1.00
C954   C     0.53398   0.52375   0.97945   0.00000  Uiso   1.00
H955   H     0.43887   0.45716   0.70252   0.00000  Uiso   1.00
H956   H     0.56113   0.54284   0.96415   0.00000  Uiso   1.00
C957   C     0.46603   0.47626   0.97093   0.00000  Uiso   1.00
C958   C     0.53397   0.52374   0.69574   0.00000  Uiso   1.00
H959   H     0.43888   0.45719   0.94882   0.00000  Uiso   1.00
H960   H     0.56112   0.54281   0.71785   0.00000  Uiso   1.00
N961   N     0.65702   0.47263   0.77415   0.00000  Uiso   1.00
O962   O     0.66368   0.48529   0.73216   0.00000  Uiso   1.00
O963   O     0.63589   0.43687   0.77879   0.00000  Uiso   1.00
N964   N     0.34298   0.52737   0.89251   0.00000  Uiso   1.00
O965   O     0.33631   0.51471   0.93450   0.00000  Uiso   1.00
O966   O     0.36411   0.56313   0.88788   0.00000  Uiso   1.00
O967   O     0.83333   0.43989   0.87291   0.00000  Uiso   1.00
O968   O     0.83334   0.56011   0.79375   0.00000  Uiso   1.00
O969   O     0.83333   0.43988   0.79372   0.00000  Uiso   1.00
O970   O     0.83334   0.56012   0.87294   0.00000  Uiso   1.00
C971   C     0.83331   0.42069   0.83332   0.00000  Uiso   1.00
C972   C     0.83336   0.57931   0.83335   0.00000  Uiso   1.00
O973   O     0.75828   0.50000   0.86379   0.00000  Uiso   1.00
O974   O     0.90839   0.50000   0.80288   0.00000  Uiso   1.00
O975   O     0.75828   0.49999   0.78460   0.00000  Uiso   1.00
O976   O     0.90839   0.50001   0.88207   0.00000  Uiso   1.00
C977   C     0.73472   0.49991   0.82138   0.00000  Uiso   1.00
C978   C     0.93195   0.50009   0.84529   0.00000  Uiso   1.00
Cu979  Cu    0.83333   0.50001   0.88022   0.00000  Uiso   1.00
Cu980  Cu    0.83333   0.49999   0.78645   0.00000  Uiso   1.00
N981   N     0.83335   0.50001   0.95069   0.00000  Uiso   1.00
N982   N     0.83332   0.49999   0.71597   0.00000  Uiso   1.00
C983   C     0.68001   0.49475   0.81547   0.00000  Uiso   1.00
C984   C     0.98666   0.50525   0.85120   0.00000  Uiso   1.00
C985   C     0.83443   0.35462   0.79090   0.00000  Uiso   1.00
C986   C     0.83224   0.64537   0.87577   0.00000  Uiso   1.00
H987   H     0.83532   0.37064   0.75773   0.00000  Uiso   1.00
H988   H     0.83135   0.62936   0.90893   0.00000  Uiso   1.00
C989   C     0.83445   0.64539   0.79091   0.00000  Uiso   1.00
C990   C     0.83221   0.35461   0.87576   0.00000  Uiso   1.00
H991   H     0.83537   0.62938   0.75775   0.00000  Uiso   1.00
H992   H     0.83129   0.37062   0.90892   0.00000  Uiso   1.00
C993   C     0.83335   0.62393   0.83334   0.00000  Uiso   1.00
C994   C     0.83331   0.37607   0.83333   0.00000  Uiso   1.00
C995   C     0.79935   0.47624   0.68722   0.00000  Uiso   1.00
C996   C     0.86731   0.52375   0.97945   0.00000  Uiso   1.00
H997   H     0.77220   0.45716   0.70252   0.00000  Uiso   1.00
H998   H     0.89446   0.54284   0.96415   0.00000  Uiso   1.00
C999   C     0.79937   0.47626   0.97093   0.00000  Uiso   1.00
C1000  C     0.86730   0.52374   0.69574   0.00000  Uiso   1.00
H1001  H     0.77221   0.45719   0.94882   0.00000  Uiso   1.00
H1002  H     0.89446   0.54281   0.71785   0.00000  Uiso   1.00
N1003  N     0.99036   0.47263   0.77415   0.00000  Uiso   1.00
O1004  O     0.99701   0.48529   0.73216   0.00000  Uiso   1.00
O1005  O     0.96922   0.43687   0.77879   0.00000  Uiso   1.00
N1006  N     0.67631   0.52737   0.89251   0.00000  Uiso   1.00
O1007  O     0.66965   0.51471   0.93450   0.00000  Uiso   1.00
O1008  O     0.69745   0.56313   0.88788   0.00000  Uiso   1.00
O1009  O     0.16666   0.77322   0.87291   0.00000  Uiso   1.00
O1010  O     0.16667   0.89345   0.79375   0.00000  Uiso   1.00
O1011  O     0.16666   0.77321   0.79372   0.00000  Uiso   1.00
O1012  O     0.16667   0.89346   0.87294   0.00000  Uiso   1.00
C1013  C     0.16664   0.75402   0.83332   0.00000  Uiso   1.00
C1014  C     0.16669   0.91265   0.83335   0.00000  Uiso   1.00
O1015  O     0.09161   0.83334   0.86379   0.00000  Uiso   1.00
O1016  O     0.24172   0.83333   0.80288   0.00000  Uiso   1.00
O1017  O     0.09161   0.83333   0.78460   0.00000  Uiso   1.00
O1018  O     0.24172   0.83334   0.88207   0.00000  Uiso   1.00
C1019  C     0.06805   0.83324   0.82138   0.00000  Uiso   1.00
C1020  C     0.26528   0.83342   0.84529   0.00000  Uiso   1.00
Cu1021 Cu    0.16667   0.83334   0.88022   0.00000  Uiso   1.00
Cu1022 Cu    0.16667   0.83333   0.78645   0.00000  Uiso   1.00
N1023  N     0.16668   0.83334   0.95069   0.00000  Uiso   1.00
N1024  N     0.16665   0.83332   0.71597   0.00000  Uiso   1.00
C1025  C     0.01334   0.82808   0.81547   0.00000  Uiso   1.00
C1026  C     0.31999   0.83859   0.85120   0.00000  Uiso   1.00
C1027  C     0.16776   0.68796   0.79090   0.00000  Uiso   1.00
C1028  C     0.16557   0.97871   0.87577   0.00000  Uiso   1.00
H1029  H     0.16865   0.70398   0.75773   0.00000  Uiso   1.00
H1030  H     0.16468   0.96269   0.90893   0.00000  Uiso   1.00
C1031  C     0.16779   0.97872   0.79091   0.00000  Uiso   1.00
C1032  C     0.16555   0.68794   0.87576   0.00000  Uiso   1.00
H1033  H     0.16871   0.96272   0.75775   0.00000  Uiso   1.00
H1034  H     0.16463   0.70395   0.90892   0.00000  Uiso   1.00
C1035  C     0.16669   0.95726   0.83334   0.00000  Uiso   1.00
C1036  C     0.16665   0.70941   0.83333   0.00000  Uiso   1.00
C1037  C     0.13269   0.80958   0.68722   0.00000  Uiso   1.00
C1038  C     0.20065   0.85709   0.97945   0.00000  Uiso   1.00
H1039  H     0.10554   0.79050   0.70252   0.00000  Uiso   1.00
H1040  H     0.22780   0.87617   0.96415   0.00000  Uiso   1.00
C1041  C     0.13270   0.80959   0.97093   0.00000  Uiso   1.00
C1042  C     0.20063   0.85708   0.69574   0.00000  Uiso   1.00
H1043  H     0.10554   0.79053   0.94882   0.00000  Uiso   1.00
H1044  H     0.22779   0.87614   0.71785   0.00000  Uiso   1.00
N1045  N     0.32369   0.80596   0.77415   0.00000  Uiso   1.00
O1046  O     0.33035   0.81863   0.73216   0.00000  Uiso   1.00
O1047  O     0.30256   0.77020   0.77879   0.00000  Uiso   1.00
N1048  N     0.00964   0.86071   0.89251   0.00000  Uiso   1.00
O1049  O     0.00298   0.84805   0.93450   0.00000  Uiso   1.00
O1050  O     0.03078   0.89646   0.88788   0.00000  Uiso   1.00
O1051  O     0.50000   0.77322   0.87291   0.00000  Uiso   1.00
O1052  O     0.50000   0.89345   0.79375   0.00000  Uiso   1.00
O1053  O     0.50000   0.77321   0.79372   0.00000  Uiso   1.00
O1054  O     0.50000   0.89346   0.87294   0.00000  Uiso   1.00
C1055  C     0.49998   0.75402   0.83332   0.00000  Uiso   1.00
C1056  C     0.50002   0.91265   0.83335   0.00000  Uiso   1.00
O1057  O     0.42495   0.83334   0.86379   0.00000  Uiso   1.00
O1058  O     0.57505   0.83333   0.80288   0.00000  Uiso   1.00
O1059  O     0.42494   0.83333   0.78460   0.00000  Uiso   1.00
O1060  O     0.57506   0.83334   0.88207   0.00000  Uiso   1.00
C1061  C     0.40139   0.83324   0.82138   0.00000  Uiso   1.00
C1062  C     0.59861   0.83342   0.84529   0.00000  Uiso   1.00
Cu1063 Cu    0.50000   0.83334   0.88022   0.00000  Uiso   1.00
Cu1064 Cu    0.50000   0.83333   0.78645   0.00000  Uiso   1.00
N1065  N     0.50001   0.83334   0.95069   0.00000  Uiso   1.00
N1066  N     0.49999   0.83332   0.71597   0.00000  Uiso   1.00
C1067  C     0.34667   0.82808   0.81547   0.00000  Uiso   1.00
C1068  C     0.65333   0.83859   0.85120   0.00000  Uiso   1.00
C1069  C     0.50109   0.68796   0.79090   0.00000  Uiso   1.00
C1070  C     0.49891   0.97871   0.87577   0.00000  Uiso   1.00
H1071  H     0.50198   0.70398   0.75773   0.00000  Uiso   1.00
H1072  H     0.49802   0.96269   0.90893   0.00000  Uiso   1.00
C1073  C     0.50112   0.97872   0.79091   0.00000  Uiso   1.00
C1074  C     0.49888   0.68794   0.87576   0.00000  Uiso   1.00
H1075  H     0.50204   0.96272   0.75775   0.00000  Uiso   1.00
H1076  H     0.49796   0.70395   0.90892   0.00000  Uiso   1.00
C1077  C     0.50002   0.95726   0.83334   0.00000  Uiso   1.00
C1078  C     0.49998   0.70941   0.83333   0.00000  Uiso   1.00
C1079  C     0.46602   0.80958   0.68722   0.00000  Uiso   1.00
C1080  C     0.53398   0.85709   0.97945   0.00000  Uiso   1.00
H1081  H     0.43887   0.79050   0.70252   0.00000  Uiso   1.00
H1082  H     0.56113   0.87617   0.96415   0.00000  Uiso   1.00
C1083  C     0.46603   0.80959   0.97093   0.00000  Uiso   1.00
C1084  C     0.53397   0.85708   0.69574   0.00000  Uiso   1.00
H1085  H     0.43888   0.79053   0.94882   0.00000  Uiso   1.00
H1086  H     0.56112   0.87614   0.71785   0.00000  Uiso   1.00
N1087  N     0.65702   0.80596   0.77415   0.00000  Uiso   1.00
O1088  O     0.66368   0.81863   0.73216   0.00000  Uiso   1.00
O1089  O     0.63589   0.77020   0.77879   0.00000  Uiso   1.00
N1090  N     0.34298   0.86071   0.89251   0.00000  Uiso   1.00
O1091  O     0.33631   0.84805   0.93450   0.00000  Uiso   1.00
O1092  O     0.36411   0.89646   0.88788   0.00000  Uiso   1.00
O1093  O     0.83333   0.77322   0.87291   0.00000  Uiso   1.00
O1094  O     0.83334   0.89345   0.79375   0.00000  Uiso   1.00
O1095  O     0.83333   0.77321   0.79372   0.00000  Uiso   1.00
O1096  O     0.83334   0.89346   0.87294   0.00000  Uiso   1.00
C1097  C     0.83331   0.75402   0.83332   0.00000  Uiso   1.00
C1098  C     0.83336   0.91265   0.83335   0.00000  Uiso   1.00
O1099  O     0.75828   0.83334   0.86379   0.00000  Uiso   1.00
O1100  O     0.90839   0.83333   0.80288   0.00000  Uiso   1.00
O1101  O     0.75828   0.83333   0.78460   0.00000  Uiso   1.00
O1102  O     0.90839   0.83334   0.88207   0.00000  Uiso   1.00
C1103  C     0.73472   0.83324   0.82138   0.00000  Uiso   1.00
C1104  C     0.93195   0.83342   0.84529   0.00000  Uiso   1.00
Cu1105 Cu    0.83333   0.83334   0.88022   0.00000  Uiso   1.00
Cu1106 Cu    0.83333   0.83333   0.78645   0.00000  Uiso   1.00
N1107  N     0.83335   0.83334   0.95069   0.00000  Uiso   1.00
N1108  N     0.83332   0.83332   0.71597   0.00000  Uiso   1.00
C1109  C     0.68001   0.82808   0.81547   0.00000  Uiso   1.00
C1110  C     0.98666   0.83859   0.85120   0.00000  Uiso   1.00
C1111  C     0.83443   0.68796   0.79090   0.00000  Uiso   1.00
C1112  C     0.83224   0.97871   0.87577   0.00000  Uiso   1.00
H1113  H     0.83532   0.70398   0.75773   0.00000  Uiso   1.00
H1114  H     0.83135   0.96269   0.90893   0.00000  Uiso   1.00
C1115  C     0.83445   0.97872   0.79091   0.00000  Uiso   1.00
C1116  C     0.83221   0.68794   0.87576   0.00000  Uiso   1.00
H1117  H     0.83537   0.96272   0.75775   0.00000  Uiso   1.00
H1118  H     0.83129   0.70395   0.90892   0.00000  Uiso   1.00
C1119  C     0.83335   0.95726   0.83334   0.00000  Uiso   1.00
C1120  C     0.83331   0.70941   0.83333   0.00000  Uiso   1.00
C1121  C     0.79935   0.80958   0.68722   0.00000  Uiso   1.00
C1122  C     0.86731   0.85709   0.97945   0.00000  Uiso   1.00
H1123  H     0.77220   0.79050   0.70252   0.00000  Uiso   1.00
H1124  H     0.89446   0.87617   0.96415   0.00000  Uiso   1.00
C1125  C     0.79937   0.80959   0.97093   0.00000  Uiso   1.00
C1126  C     0.86730   0.85708   0.69574   0.00000  Uiso   1.00
H1127  H     0.77221   0.79053   0.94882   0.00000  Uiso   1.00
H1128  H     0.89446   0.87614   0.71785   0.00000  Uiso   1.00
N1129  N     0.99036   0.80596   0.77415   0.00000  Uiso   1.00
O1130  O     0.99701   0.81863   0.73216   0.00000  Uiso   1.00
O1131  O     0.96922   0.77020   0.77879   0.00000  Uiso   1.00
N1132  N     0.67631   0.86071   0.89251   0.00000  Uiso   1.00
O1133  O     0.66965   0.84805   0.93450   0.00000  Uiso   1.00
O1134  O     0.69745   0.89646   0.88788   0.00000  Uiso   1.00
loop_
_geom_bond_atom_site_label_1
_geom_bond_atom_site_label_2
_geom_bond_distance
_geom_bond_site_symmetry_2
_ccdc_geom_bond_type
O1     C5      1.291   .     A
O1     Cu13    1.965   .     S
O2     C6      1.291   .     A
O2     Cu14    1.965   .     S
O3     Cu14    1.965   .     S
O3     C5      1.291   .     A
O4     C6      1.291   .     A
O4     Cu13    1.965   .     S
C5     C28     1.450   .     S
C6     C27     1.450   .     S
O7     C11     1.284   .     A
O7     Cu13    1.972   .     S
O8     C12     1.284   .     A
O8     Cu14    1.972   .     S
O9     Cu14    1.973   .     S
O9     C11     1.290   .     A
O10    C12     1.290   .     A
O10    Cu13    1.973   .     S
C11    C17     1.439   .     S
C12    C18     1.439   .     S
Cu13   N15     2.011   .     S
Cu13   Cu14    2.676   .     S
Cu14   N16     2.011   .     S
N15    C30     1.367   .     A
N15    C33     1.367   .     A
N16    C34     1.367   .     A
N16    C29     1.367   .     A
C17    C102    1.359   1_455 S
C17    N121    1.442   1_455 S
C18    C59     1.359   .     S
C18    N82     1.442   .     S
C19    C28     1.401   .     A
C19    H21     1.083   .     S
C19    C275    1.383   1_545 S
C20    C27     1.401   .     A
C20    H22     1.083   .     S
C20    C150    1.383   .     S
C23    C27     1.401   .     A
C23    H25     1.083   .     S
C23    C145    1.383   .     S
C24    C28     1.401   .     A
C24    H26     1.083   .     S
C24    C272    1.383   1_545 S
C29    H31     1.082   .     S
C29    C789    1.416   1_554 S
C30    H32     1.082   .     S
C30    C412    1.416   .     S
C33    H35     1.082   .     S
C33    C407    1.416   .     S
C34    H36     1.082   .     S
C34    C786    1.416   1_554 S
N37    O38     1.301   .     A
N37    O39     1.302   .     A
N37    C59     1.442   .     S
N40    O42     1.302   .     A
N40    O41     1.301   .     A
N40    C102    1.442   1_455 S
O43    C47     1.291   .     A
O43    Cu55    1.965   .     S
O44    C48     1.291   .     A
O44    Cu56    1.965   .     S
O45    Cu56    1.965   .     S
O45    C47     1.291   .     A
O46    C48     1.291   .     A
O46    Cu55    1.965   .     S
C47    C70     1.450   .     S
C48    C69     1.450   .     S
O49    C53     1.284   .     A
O49    Cu55    1.972   .     S
O50    C54     1.284   .     A
O50    Cu56    1.972   .     S
O51    Cu56    1.973   .     S
O51    C53     1.290   .     A
O52    C54     1.290   .     A
O52    Cu55    1.973   .     S
C53    C59     1.439   .     S
C54    C60     1.439   .     S
Cu55   N57     2.011   .     S
Cu55   Cu56    2.676   .     S
Cu56   N58     2.011   .     S
N57    C72     1.367   .     A
N57    C75     1.367   .     A
N58    C76     1.367   .     A
N58    C71     1.367   .     A
C60    C101    1.359   .     S
C60    N124    1.442   .     S
C61    C70     1.401   .     A
C61    H63     1.083   .     S
C61    C317    1.383   1_545 S
C62    C69     1.401   .     A
C62    H64     1.083   .     S
C62    C192    1.383   .     S
C65    C69     1.401   .     A
C65    H67     1.083   .     S
C65    C187    1.383   .     S
C66    C70     1.401   .     A
C66    H68     1.083   .     S
C66    C314    1.383   1_545 S
C71    H73     1.082   .     S
C71    C831    1.416   1_554 S
C72    H74     1.082   .     S
C72    C454    1.416   .     S
C75    H77     1.082   .     S
C75    C449    1.416   .     S
C76    H78     1.082   .     S
C76    C828    1.416   1_554 S
N79    O80     1.301   .     A
N79    O81     1.302   .     A
N79    C101    1.442   .     S
N82    O84     1.302   .     A
N82    O83     1.301   .     A
O85    C89     1.291   .     A
O85    Cu97    1.965   .     S
O86    C90     1.291   .     A
O86    Cu98    1.965   .     S
O87    Cu98    1.965   .     S
O87    C89     1.291   .     A
O88    C90     1.291   .     A
O88    Cu97    1.965   .     S
C89    C112    1.450   .     S
C90    C111    1.450   .     S
O91    C95     1.284   .     A
O91    Cu97    1.972   .     S
O92    C96     1.284   .     A
O92    Cu98    1.972   .     S
O93    Cu98    1.973   .     S
O93    C95     1.290   .     A
O94    C96     1.290   .     A
O94    Cu97    1.973   .     S
C95    C101    1.439   .     S
C96    C102    1.439   .     S
Cu97   N99     2.011   .     S
Cu97   Cu98    2.676   .     S
Cu98   N100    2.011   .     S
N99    C114    1.367   .     A
N99    C117    1.367   .     A
N100   C118    1.367   .     A
N100   C113    1.367   .     A
C102   C17     1.359   1_655 S
C102   N40     1.442   1_655 S
C103   C112    1.401   .     A
C103   H105    1.083   .     S
C103   C359    1.383   1_545 S
C104   C111    1.401   .     A
C104   H106    1.083   .     S
C104   C234    1.383   .     S
C107   C111    1.401   .     A
C107   H109    1.083   .     S
C107   C229    1.383   .     S
C108   C112    1.401   .     A
C108   H110    1.083   .     S
C108   C356    1.383   1_545 S
C113   H115    1.082   .     S
C113   C873    1.416   1_554 S
C114   H116    1.082   .     S
C114   C496    1.416   .     S
C117   H119    1.082   .     S
C117   C491    1.416   .     S
C118   H120    1.082   .     S
C118   C870    1.416   1_554 S
N121   O122    1.301   .     A
N121   O123    1.302   .     A
N121   C17     1.442   1_655 S
N124   O126    1.302   .     A
N124   O125    1.301   .     A
O127   C131    1.291   .     A
O127   Cu139   1.965   .     S
O128   C132    1.291   .     A
O128   Cu140   1.965   .     S
O129   Cu140   1.965   .     S
O129   C131    1.291   .     A
O130   C132    1.291   .     A
O130   Cu139   1.965   .     S
C131   C154    1.450   .     S
C132   C153    1.450   .     S
O133   C137    1.284   .     A
O133   Cu139   1.972   .     S
O134   C138    1.284   .     A
O134   Cu140   1.972   .     S
O135   Cu140   1.973   .     S
O135   C137    1.290   .     A
O136   C138    1.290   .     A
O136   Cu139   1.973   .     S
C137   C143    1.439   .     S
C138   C144    1.439   .     S
Cu139  N141    2.011   .     S
Cu139  Cu140   2.676   .     S
Cu140  N142    2.011   .     S
N141   C156    1.367   .     A
N141   C159    1.367   .     A
N142   C160    1.367   .     A
N142   C155    1.367   .     A
C143   C228    1.359   1_455 S
C143   N247    1.442   1_455 S
C144   C185    1.359   .     S
C144   N208    1.442   .     S
C145   C154    1.401   .     A
C145   H147    1.083   .     S
C146   C153    1.401   .     A
C146   H148    1.083   .     S
C146   C276    1.383   .     S
C149   C153    1.401   .     A
C149   H151    1.083   .     S
C149   C271    1.383   .     S
C150   C154    1.401   .     A
C150   H152    1.083   .     S
C155   H157    1.082   .     S
C155   C915    1.416   1_554 S
C156   H158    1.082   .     S
C156   C538    1.416   .     S
C159   H161    1.082   .     S
C159   C533    1.416   .     S
C160   H162    1.082   .     S
C160   C912    1.416   1_554 S
N163   O164    1.301   .     A
N163   O165    1.302   .     A
N163   C185    1.442   .     S
N166   O168    1.302   .     A
N166   O167    1.301   .     A
N166   C228    1.442   1_455 S
O169   C173    1.291   .     A
O169   Cu181   1.965   .     S
O170   C174    1.291   .     A
O170   Cu182   1.965   .     S
O171   Cu182   1.965   .     S
O171   C173    1.291   .     A
O172   C174    1.291   .     A
O172   Cu181   1.965   .     S
C173   C196    1.450   .     S
C174   C195    1.450   .     S
O175   C179    1.284   .     A
O175   Cu181   1.972   .     S
O176   C180    1.284   .     A
O176   Cu182   1.972   .     S
O177   Cu182   1.973   .     S
O177   C179    1.290   .     A
O178   C180    1.290   .     A
O178   Cu181   1.973   .     S
C179   C185    1.439   .     S
C180   C186    1.439   .     S
Cu181  N183    2.011   .     S
Cu181  Cu182   2.676   .     S
Cu182  N184    2.011   .     S
N183   C198    1.367   .     A
N183   C201    1.367   .     A
N184   C202    1.367   .     A
N184   C197    1.367   .     A
C186   C227    1.359   .     S
C186   N250    1.442   .     S
C187   C196    1.401   .     A
C187   H189    1.083   .     S
C188   C195    1.401   .     A
C188   H190    1.083   .     S
C188   C318    1.383   .     S
C191   C195    1.401   .     A
C191   H193    1.083   .     S
C191   C313    1.383   .     S
C192   C196    1.401   .     A
C192   H194    1.083   .     S
C197   H199    1.082   .     S
C197   C957    1.416   1_554 S
C198   H200    1.082   .     S
C198   C580    1.416   .     S
C201   H203    1.082   .     S
C201   C575    1.416   .     S
C202   H204    1.082   .     S
C202   C954    1.416   1_554 S
N205   O206    1.301   .     A
N205   O207    1.302   .     A
N205   C227    1.442   .     S
N208   O210    1.302   .     A
N208   O209    1.301   .     A
O211   C215    1.291   .     A
O211   Cu223   1.965   .     S
O212   C216    1.291   .     A
O212   Cu224   1.965   .     S
O213   Cu224   1.965   .     S
O213   C215    1.291   .     A
O214   C216    1.291   .     A
O214   Cu223   1.965   .     S
C215   C238    1.450   .     S
C216   C237    1.450   .     S
O217   C221    1.284   .     A
O217   Cu223   1.972   .     S
O218   C222    1.284   .     A
O218   Cu224   1.972   .     S
O219   Cu224   1.973   .     S
O219   C221    1.290   .     A
O220   C222    1.290   .     A
O220   Cu223   1.973   .     S
C221   C227    1.439   .     S
C222   C228    1.439   .     S
Cu223  N225    2.011   .     S
Cu223  Cu224   2.676   .     S
Cu224  N226    2.011   .     S
N225   C240    1.367   .     A
N225   C243    1.367   .     A
N226   C244    1.367   .     A
N226   C239    1.367   .     A
C228   C143    1.359   1_655 S
C228   N166    1.442   1_655 S
C229   C238    1.401   .     A
C229   H231    1.083   .     S
C230   C237    1.401   .     A
C230   H232    1.083   .     S
C230   C360    1.383   .     S
C233   C237    1.401   .     A
C233   H235    1.083   .     S
C233   C355    1.383   .     S
C234   C238    1.401   .     A
C234   H236    1.083   .     S
C239   H241    1.082   .     S
C239   C999    1.416   1_554 S
C240   H242    1.082   .     S
C240   C622    1.416   .     S
C243   H245    1.082   .     S
C243   C617    1.416   .     S
C244   H246    1.082   .     S
C244   C996    1.416   1_554 S
N247   O248    1.301   .     A
N247   O249    1.302   .     A
N247   C143    1.442   1_655 S
N250   O252    1.302   .     A
N250   O251    1.301   .     A
O253   C257    1.291   .     A
O253   Cu265   1.965   .     S
O254   C258    1.291   .     A
O254   Cu266   1.965   .     S
O255   Cu266   1.965   .     S
O255   C257    1.291   .     A
O256   C258    1.291   .     A
O256   Cu265   1.965   .     S
C257   C280    1.450   .     S
C258   C279    1.450   .     S
O259   C263    1.284   .     A
O259   Cu265   1.972   .     S
O260   C264    1.284   .     A
O260   Cu266   1.972   .     S
O261   Cu266   1.973   .     S
O261   C263    1.290   .     A
O262   C264    1.290   .     A
O262   Cu265   1.973   .     S
C263   C269    1.439   .     S
C264   C270    1.439   .     S
Cu265  N267    2.011   .     S
Cu265  Cu266   2.676   .     S
Cu266  N268    2.011   .     S
N267   C282    1.367   .     A
N267   C285    1.367   .     A
N268   C286    1.367   .     A
N268   C281    1.367   .     A
C269   C354    1.359   1_455 S
C269   N373    1.442   1_455 S
C270   C311    1.359   .     S
C270   N334    1.442   .     S
C271   C280    1.401   .     A
C271   H273    1.083   .     S
C272   C279    1.401   .     A
C272   H274    1.083   .     S
C272   C24     1.383   1_565 S
C275   C279    1.401   .     A
C275   H277    1.083   .     S
C275   C19     1.383   1_565 S
C276   C280    1.401   .     A
C276   H278    1.083   .     S
C281   H283    1.082   .     S
C281   C1041   1.416   1_554 S
C282   H284    1.082   .     S
C282   C664    1.416   .     S
C285   H287    1.082   .     S
C285   C659    1.416   .     S
C286   H288    1.082   .     S
C286   C1038   1.416   1_554 S
N289   O290    1.301   .     A
N289   O291    1.302   .     A
N289   C311    1.442   .     S
N292   O294    1.302   .     A
N292   O293    1.301   .     A
N292   C354    1.442   1_455 S
O295   C299    1.291   .     A
O295   Cu307   1.965   .     S
O296   C300    1.291   .     A
O296   Cu308   1.965   .     S
O297   Cu308   1.965   .     S
O297   C299    1.291   .     A
O298   C300    1.291   .     A
O298   Cu307   1.965   .     S
C299   C322    1.450   .     S
C300   C321    1.450   .     S
O301   C305    1.284   .     A
O301   Cu307   1.972   .     S
O302   C306    1.284   .     A
O302   Cu308   1.972   .     S
O303   Cu308   1.973   .     S
O303   C305    1.290   .     A
O304   C306    1.290   .     A
O304   Cu307   1.973   .     S
C305   C311    1.439   .     S
C306   C312    1.439   .     S
Cu307  N309    2.011   .     S
Cu307  Cu308   2.676   .     S
Cu308  N310    2.011   .     S
N309   C324    1.367   .     A
N309   C327    1.367   .     A
N310   C328    1.367   .     A
N310   C323    1.367   .     A
C312   C353    1.359   .     S
C312   N376    1.442   .     S
C313   C322    1.401   .     A
C313   H315    1.083   .     S
C314   C321    1.401   .     A
C314   H316    1.083   .     S
C314   C66     1.383   1_565 S
C317   C321    1.401   .     A
C317   H319    1.083   .     S
C317   C61     1.383   1_565 S
C318   C322    1.401   .     A
C318   H320    1.083   .     S
C323   H325    1.082   .     S
C323   C1083   1.416   1_554 S
C324   H326    1.082   .     S
C324   C706    1.416   .     S
C327   H329    1.082   .     S
C327   C701    1.416   .     S
C328   H330    1.082   .     S
C328   C1080   1.416   1_554 S
N331   O332    1.301   .     A
N331   O333    1.302   .     A
N331   C353    1.442   .     S
N334   O336    1.302   .     A
N334   O335    1.301   .     A
O337   C341    1.291   .     A
O337   Cu349   1.965   .     S
O338   C342    1.291   .     A
O338   Cu350   1.965   .     S
O339   Cu350   1.965   .     S
O339   C341    1.291   .     A
O340   C342    1.291   .     A
O340   Cu349   1.965   .     S
C341   C364    1.450   .     S
C342   C363    1.450   .     S
O343   C347    1.284   .     A
O343   Cu349   1.972   .     S
O344   C348    1.284   .     A
O344   Cu350   1.972   .     S
O345   Cu350   1.973   .     S
O345   C347    1.290   .     A
O346   C348    1.290   .     A
O346   Cu349   1.973   .     S
C347   C353    1.439   .     S
C348   C354    1.439   .     S
Cu349  N351    2.011   .     S
Cu349  Cu350   2.676   .     S
Cu350  N352    2.011   .     S
N351   C366    1.367   .     A
N351   C369    1.367   .     A
N352   C370    1.367   .     A
N352   C365    1.367   .     A
C354   C269    1.359   1_655 S
C354   N292    1.442   1_655 S
C355   C364    1.401   .     A
C355   H357    1.083   .     S
C356   C363    1.401   .     A
C356   H358    1.083   .     S
C356   C108    1.383   1_565 S
C359   C363    1.401   .     A
C359   H361    1.083   .     S
C359   C103    1.383   1_565 S
C360   C364    1.401   .     A
C360   H362    1.083   .     S
C365   H367    1.082   .     S
C365   C1125   1.416   1_554 S
C366   H368    1.082   .     S
C366   C748    1.416   .     S
C369   H371    1.082   .     S
C369   C743    1.416   .     S
C370   H372    1.082   .     S
C370   C1122   1.416   1_554 S
N373   O374    1.301   .     A
N373   O375    1.302   .     A
N373   C269    1.442   1_655 S
N376   O378    1.302   .     A
N376   O377    1.301   .     A
O379   C383    1.291   .     A
O379   Cu391   1.965   .     S
O380   C384    1.291   .     A
O380   Cu392   1.965   .     S
O381   Cu392   1.965   .     S
O381   C383    1.291   .     A
O382   C384    1.291   .     A
O382   Cu391   1.965   .     S
C383   C406    1.450   .     S
C384   C405    1.450   .     S
O385   C389    1.284   .     A
O385   Cu391   1.972   .     S
O386   C390    1.284   .     A
O386   Cu392   1.972   .     S
O387   Cu392   1.973   .     S
O387   C389    1.290   .     A
O388   C390    1.290   .     A
O388   Cu391   1.973   .     S
C389   C395    1.439   .     S
C390   C396    1.439   .     S
Cu391  N393    2.011   .     S
Cu391  Cu392   2.676   .     S
Cu392  N394    2.011   .     S
N393   C408    1.367   .     A
N393   C411    1.367   .     A
N394   C412    1.367   .     A
N394   C407    1.367   .     A
C395   C480    1.359   1_455 S
C395   N499    1.442   1_455 S
C396   C437    1.359   .     S
C396   N460    1.442   .     S
C397   C406    1.401   .     A
C397   H399    1.083   .     S
C397   C653    1.383   1_545 S
C398   C405    1.401   .     A
C398   H400    1.083   .     S
C398   C528    1.383   .     S
C401   C405    1.401   .     A
C401   H403    1.083   .     S
C401   C523    1.383   .     S
C402   C406    1.401   .     A
C402   H404    1.083   .     S
C402   C650    1.383   1_545 S
C407   H409    1.082   .     S
C408   H410    1.082   .     S
C408   C790    1.416   .     S
C411   H413    1.082   .     S
C411   C785    1.416   .     S
C412   H414    1.082   .     S
N415   O416    1.301   .     A
N415   O417    1.302   .     A
N415   C437    1.442   .     S
N418   O420    1.302   .     A
N418   O419    1.301   .     A
N418   C480    1.442   1_455 S
O421   C425    1.291   .     A
O421   Cu433   1.965   .     S
O422   C426    1.291   .     A
O422   Cu434   1.965   .     S
O423   Cu434   1.965   .     S
O423   C425    1.291   .     A
O424   C426    1.291   .     A
O424   Cu433   1.965   .     S
C425   C448    1.450   .     S
C426   C447    1.450   .     S
O427   C431    1.284   .     A
O427   Cu433   1.972   .     S
O428   C432    1.284   .     A
O428   Cu434   1.972   .     S
O429   Cu434   1.973   .     S
O429   C431    1.290   .     A
O430   C432    1.290   .     A
O430   Cu433   1.973   .     S
C431   C437    1.439   .     S
C432   C438    1.439   .     S
Cu433  N435    2.011   .     S
Cu433  Cu434   2.676   .     S
Cu434  N436    2.011   .     S
N435   C450    1.367   .     A
N435   C453    1.367   .     A
N436   C454    1.367   .     A
N436   C449    1.367   .     A
C438   C479    1.359   .     S
C438   N502    1.442   .     S
C439   C448    1.401   .     A
C439   H441    1.083   .     S
C439   C695    1.383   1_545 S
C440   C447    1.401   .     A
C440   H442    1.083   .     S
C440   C570    1.383   .     S
C443   C447    1.401   .     A
C443   H445    1.083   .     S
C443   C565    1.383   .     S
C444   C448    1.401   .     A
C444   H446    1.083   .     S
C444   C692    1.383   1_545 S
C449   H451    1.082   .     S
C450   H452    1.082   .     S
C450   C832    1.416   .     S
C453   H455    1.082   .     S
C453   C827    1.416   .     S
C454   H456    1.082   .     S
N457   O458    1.301   .     A
N457   O459    1.302   .     A
N457   C479    1.442   .     S
N460   O462    1.302   .     A
N460   O461    1.301   .     A
O463   C467    1.291   .     A
O463   Cu475   1.965   .     S
O464   C468    1.291   .     A
O464   Cu476   1.965   .     S
O465   Cu476   1.965   .     S
O465   C467    1.291   .     A
O466   C468    1.291   .     A
O466   Cu475   1.965   .     S
C467   C490    1.450   .     S
C468   C489    1.450   .     S
O469   C473    1.284   .     A
O469   Cu475   1.972   .     S
O470   C474    1.284   .     A
O470   Cu476   1.972   .     S
O471   Cu476   1.973   .     S
O471   C473    1.290   .     A
O472   C474    1.290   .     A
O472   Cu475   1.973   .     S
C473   C479    1.439   .     S
C474   C480    1.439   .     S
Cu475  N477    2.011   .     S
Cu475  Cu476   2.676   .     S
Cu476  N478    2.011   .     S
N477   C492    1.367   .     A
N477   C495    1.367   .     A
N478   C496    1.367   .     A
N478   C491    1.367   .     A
C480   C395    1.359   1_655 S
C480   N418    1.442   1_655 S
C481   C490    1.401   .     A
C481   H483    1.083   .     S
C481   C737    1.383   1_545 S
C482   C489    1.401   .     A
C482   H484    1.083   .     S
C482   C612    1.383   .     S
C485   C489    1.401   .     A
C485   H487    1.083   .     S
C485   C607    1.383   .     S
C486   C490    1.401   .     A
C486   H488    1.083   .     S
C486   C734    1.383   1_545 S
C491   H493    1.082   .     S
C492   H494    1.082   .     S
C492   C874    1.416   .     S
C495   H497    1.082   .     S
C495   C869    1.416   .     S
C496   H498    1.082   .     S
N499   O500    1.301   .     A
N499   O501    1.302   .     A
N499   C395    1.442   1_655 S
N502   O504    1.302   .     A
N502   O503    1.301   .     A
O505   C509    1.291   .     A
O505   Cu517   1.965   .     S
O506   C510    1.291   .     A
O506   Cu518   1.965   .     S
O507   Cu518   1.965   .     S
O507   C509    1.291   .     A
O508   C510    1.291   .     A
O508   Cu517   1.965   .     S
C509   C532    1.450   .     S
C510   C531    1.450   .     S
O511   C515    1.284   .     A
O511   Cu517   1.972   .     S
O512   C516    1.284   .     A
O512   Cu518   1.972   .     S
O513   Cu518   1.973   .     S
O513   C515    1.290   .     A
O514   C516    1.290   .     A
O514   Cu517   1.973   .     S
C515   C521    1.439   .     S
C516   C522    1.439   .     S
Cu517  N519    2.011   .     S
Cu517  Cu518   2.676   .     S
Cu518  N520    2.011   .     S
N519   C534    1.367   .     A
N519   C537    1.367   .     A
N520   C538    1.367   .     A
N520   C533    1.367   .     A
C521   C606    1.359   1_455 S
C521   N625    1.442   1_455 S
C522   C563    1.359   .     S
C522   N586    1.442   .     S
C523   C532    1.401   .     A
C523   H525    1.083   .     S
C524   C531    1.401   .     A
C524   H526    1.083   .     S
C524   C654    1.383   .     S
C527   C531    1.401   .     A
C527   H529    1.083   .     S
C527   C649    1.383   .     S
C528   C532    1.401   .     A
C528   H530    1.083   .     S
C533   H535    1.082   .     S
C534   H536    1.082   .     S
C534   C916    1.416   .     S
C537   H539    1.082   .     S
C537   C911    1.416   .     S
C538   H540    1.082   .     S
N541   O542    1.301   .     A
N541   O543    1.302   .     A
N541   C563    1.442   .     S
N544   O546    1.302   .     A
N544   O545    1.301   .     A
N544   C606    1.442   1_455 S
O547   C551    1.291   .     A
O547   Cu559   1.965   .     S
O548   C552    1.291   .     A
O548   Cu560   1.965   .     S
O549   Cu560   1.965   .     S
O549   C551    1.291   .     A
O550   C552    1.291   .     A
O550   Cu559   1.965   .     S
C551   C574    1.450   .     S
C552   C573    1.450   .     S
O553   C557    1.284   .     A
O553   Cu559   1.972   .     S
O554   C558    1.284   .     A
O554   Cu560   1.972   .     S
O555   Cu560   1.973   .     S
O555   C557    1.290   .     A
O556   C558    1.290   .     A
O556   Cu559   1.973   .     S
C557   C563    1.439   .     S
C558   C564    1.439   .     S
Cu559  N561    2.011   .     S
Cu559  Cu560   2.676   .     S
Cu560  N562    2.011   .     S
N561   C576    1.367   .     A
N561   C579    1.367   .     A
N562   C580    1.367   .     A
N562   C575    1.367   .     A
C564   C605    1.359   .     S
C564   N628    1.442   .     S
C565   C574    1.401   .     A
C565   H567    1.083   .     S
C566   C573    1.401   .     A
C566   H568    1.083   .     S
C566   C696    1.383   .     S
C569   C573    1.401   .     A
C569   H571    1.083   .     S
C569   C691    1.383   .     S
C570   C574    1.401   .     A
C570   H572    1.083   .     S
C575   H577    1.082   .     S
C576   H578    1.082   .     S
C576   C958    1.416   .     S
C579   H581    1.082   .     S
C579   C953    1.416   .     S
C580   H582    1.082   .     S
N583   O584    1.301   .     A
N583   O585    1.302   .     A
N583   C605    1.442   .     S
N586   O588    1.302   .     A
N586   O587    1.301   .     A
O589   C593    1.291   .     A
O589   Cu601   1.965   .     S
O590   C594    1.291   .     A
O590   Cu602   1.965   .     S
O591   Cu602   1.965   .     S
O591   C593    1.291   .     A
O592   C594    1.291   .     A
O592   Cu601   1.965   .     S
C593   C616    1.450   .     S
C594   C615    1.450   .     S
O595   C599    1.284   .     A
O595   Cu601   1.972   .     S
O596   C600    1.284   .     A
O596   Cu602   1.972   .     S
O597   Cu602   1.973   .     S
O597   C599    1.290   .     A
O598   C600    1.290   .     A
O598   Cu601   1.973   .     S
C599   C605    1.439   .     S
C600   C606    1.439   .     S
Cu601  N603    2.011   .     S
Cu601  Cu602   2.676   .     S
Cu602  N604    2.011   .     S
N603   C618    1.367   .     A
N603   C621    1.367   .     A
N604   C622    1.367   .     A
N604   C617    1.367   .     A
C606   C521    1.359   1_655 S
C606   N544    1.442   1_655 S
C607   C616    1.401   .     A
C607   H609    1.083   .     S
C608   C615    1.401   .     A
C608   H610    1.083   .     S
C608   C738    1.383   .     S
C611   C615    1.401   .     A
C611   H613    1.083   .     S
C611   C733    1.383   .     S
C612   C616    1.401   .     A
C612   H614    1.083   .     S
C617   H619    1.082   .     S
C618   H620    1.082   .     S
C618   C1000   1.416   .     S
C621   H623    1.082   .     S
C621   C995    1.416   .     S
C622   H624    1.082   .     S
N625   O626    1.301   .     A
N625   O627    1.302   .     A
N625   C521    1.442   1_655 S
N628   O630    1.302   .     A
N628   O629    1.301   .     A
O631   C635    1.291   .     A
O631   Cu643   1.965   .     S
O632   C636    1.291   .     A
O632   Cu644   1.965   .     S
O633   Cu644   1.965   .     S
O633   C635    1.291   .     A
O634   C636    1.291   .     A
O634   Cu643   1.965   .     S
C635   C658    1.450   .     S
C636   C657    1.450   .     S
O637   C641    1.284   .     A
O637   Cu643   1.972   .     S
O638   C642    1.284   .     A
O638   Cu644   1.972   .     S
O639   Cu644   1.973   .     S
O639   C641    1.290   .     A
O640   C642    1.290   .     A
O640   Cu643   1.973   .     S
C641   C647    1.439   .     S
C642   C648    1.439   .     S
Cu643  N645    2.011   .     S
Cu643  Cu644   2.676   .     S
Cu644  N646    2.011   .     S
N645   C660    1.367   .     A
N645   C663    1.367   .     A
N646   C664    1.367   .     A
N646   C659    1.367   .     A
C647   C732    1.359   1_455 S
C647   N751    1.442   1_455 S
C648   C689    1.359   .     S
C648   N712    1.442   .     S
C649   C658    1.401   .     A
C649   H651    1.083   .     S
C650   C657    1.401   .     A
C650   H652    1.083   .     S
C650   C402    1.383   1_565 S
C653   C657    1.401   .     A
C653   H655    1.083   .     S
C653   C397    1.383   1_565 S
C654   C658    1.401   .     A
C654   H656    1.083   .     S
C659   H661    1.082   .     S
C660   H662    1.082   .     S
C660   C1042   1.416   .     S
C663   H665    1.082   .     S
C663   C1037   1.416   .     S
C664   H666    1.082   .     S
N667   O668    1.301   .     A
N667   O669    1.302   .     A
N667   C689    1.442   .     S
N670   O672    1.302   .     A
N670   O671    1.301   .     A
N670   C732    1.442   1_455 S
O673   C677    1.291   .     A
O673   Cu685   1.965   .     S
O674   C678    1.291   .     A
O674   Cu686   1.965   .     S
O675   Cu686   1.965   .     S
O675   C677    1.291   .     A
O676   C678    1.291   .     A
O676   Cu685   1.965   .     S
C677   C700    1.450   .     S
C678   C699    1.450   .     S
O679   C683    1.284   .     A
O679   Cu685   1.972   .     S
O680   C684    1.284   .     A
O680   Cu686   1.972   .     S
O681   Cu686   1.973   .     S
O681   C683    1.290   .     A
O682   C684    1.290   .     A
O682   Cu685   1.973   .     S
C683   C689    1.439   .     S
C684   C690    1.439   .     S
Cu685  N687    2.011   .     S
Cu685  Cu686   2.676   .     S
Cu686  N688    2.011   .     S
N687   C702    1.367   .     A
N687   C705    1.367   .     A
N688   C706    1.367   .     A
N688   C701    1.367   .     A
C690   C731    1.359   .     S
C690   N754    1.442   .     S
C691   C700    1.401   .     A
C691   H693    1.083   .     S
C692   C699    1.401   .     A
C692   H694    1.083   .     S
C692   C444    1.383   1_565 S
C695   C699    1.401   .     A
C695   H697    1.083   .     S
C695   C439    1.383   1_565 S
C696   C700    1.401   .     A
C696   H698    1.083   .     S
C701   H703    1.082   .     S
C702   H704    1.082   .     S
C702   C1084   1.416   .     S
C705   H707    1.082   .     S
C705   C1079   1.416   .     S
C706   H708    1.082   .     S
N709   O710    1.301   .     A
N709   O711    1.302   .     A
N709   C731    1.442   .     S
N712   O714    1.302   .     A
N712   O713    1.301   .     A
O715   C719    1.291   .     A
O715   Cu727   1.965   .     S
O716   C720    1.291   .     A
O716   Cu728   1.965   .     S
O717   Cu728   1.965   .     S
O717   C719    1.291   .     A
O718   C720    1.291   .     A
O718   Cu727   1.965   .     S
C719   C742    1.450   .     S
C720   C741    1.450   .     S
O721   C725    1.284   .     A
O721   Cu727   1.972   .     S
O722   C726    1.284   .     A
O722   Cu728   1.972   .     S
O723   Cu728   1.973   .     S
O723   C725    1.290   .     A
O724   C726    1.290   .     A
O724   Cu727   1.973   .     S
C725   C731    1.439   .     S
C726   C732    1.439   .     S
Cu727  N729    2.011   .     S
Cu727  Cu728   2.676   .     S
Cu728  N730    2.011   .     S
N729   C744    1.367   .     A
N729   C747    1.367   .     A
N730   C748    1.367   .     A
N730   C743    1.367   .     A
C732   C647    1.359   1_655 S
C732   N670    1.442   1_655 S
C733   C742    1.401   .     A
C733   H735    1.083   .     S
C734   C741    1.401   .     A
C734   H736    1.083   .     S
C734   C486    1.383   1_565 S
C737   C741    1.401   .     A
C737   H739    1.083   .     S
C737   C481    1.383   1_565 S
C738   C742    1.401   .     A
C738   H740    1.083   .     S
C743   H745    1.082   .     S
C744   H746    1.082   .     S
C744   C1126   1.416   .     S
C747   H749    1.082   .     S
C747   C1121   1.416   .     S
C748   H750    1.082   .     S
N751   O752    1.301   .     A
N751   O753    1.302   .     A
N751   C647    1.442   1_655 S
N754   O756    1.302   .     A
N754   O755    1.301   .     A
O757   C761    1.291   .     A
O757   Cu769   1.965   .     S
O758   C762    1.291   .     A
O758   Cu770   1.965   .     S
O759   Cu770   1.965   .     S
O759   C761    1.291   .     A
O760   C762    1.291   .     A
O760   Cu769   1.965   .     S
C761   C784    1.450   .     S
C762   C783    1.450   .     S
O763   C767    1.284   .     A
O763   Cu769   1.972   .     S
O764   C768    1.284   .     A
O764   Cu770   1.972   .     S
O765   Cu770   1.973   .     S
O765   C767    1.290   .     A
O766   C768    1.290   .     A
O766   Cu769   1.973   .     S
C767   C773    1.439   .     S
C768   C774    1.439   .     S
Cu769  N771    2.011   .     S
Cu769  Cu770   2.676   .     S
Cu770  N772    2.011   .     S
N771   C786    1.367   .     A
N771   C789    1.367   .     A
N772   C790    1.367   .     A
N772   C785    1.367   .     A
C773   C858    1.359   1_455 S
C773   N877    1.442   1_455 S
C774   C815    1.359   .     S
C774   N838    1.442   .     S
C775   C784    1.401   .     A
C775   H777    1.083   .     S
C775   C1031   1.383   1_545 S
C776   C783    1.401   .     A
C776   H778    1.083   .     S
C776   C906    1.383   .     S
C779   C783    1.401   .     A
C779   H781    1.083   .     S
C779   C901    1.383   .     S
C780   C784    1.401   .     A
C780   H782    1.083   .     S
C780   C1028   1.383   1_545 S
C785   H787    1.082   .     S
C786   H788    1.082   .     S
C786   C34     1.416   1_556 S
C789   H791    1.082   .     S
C789   C29     1.416   1_556 S
C790   H792    1.082   .     S
N793   O794    1.301   .     A
N793   O795    1.302   .     A
N793   C815    1.442   .     S
N796   O798    1.302   .     A
N796   O797    1.301   .     A
N796   C858    1.442   1_455 S
O799   C803    1.291   .     A
O799   Cu811   1.965   .     S
O800   C804    1.291   .     A
O800   Cu812   1.965   .     S
O801   Cu812   1.965   .     S
O801   C803    1.291   .     A
O802   C804    1.291   .     A
O802   Cu811   1.965   .     S
C803   C826    1.450   .     S
C804   C825    1.450   .     S
O805   C809    1.284   .     A
O805   Cu811   1.972   .     S
O806   C810    1.284   .     A
O806   Cu812   1.972   .     S
O807   Cu812   1.973   .     S
O807   C809    1.290   .     A
O808   C810    1.290   .     A
O808   Cu811   1.973   .     S
C809   C815    1.439   .     S
C810   C816    1.439   .     S
Cu811  N813    2.011   .     S
Cu811  Cu812   2.676   .     S
Cu812  N814    2.011   .     S
N813   C828    1.367   .     A
N813   C831    1.367   .     A
N814   C832    1.367   .     A
N814   C827    1.367   .     A
C816   C857    1.359   .     S
C816   N880    1.442   .     S
C817   C826    1.401   .     A
C817   H819    1.083   .     S
C817   C1073   1.383   1_545 S
C818   C825    1.401   .     A
C818   H820    1.083   .     S
C818   C948    1.383   .     S
C821   C825    1.401   .     A
C821   H823    1.083   .     S
C821   C943    1.383   .     S
C822   C826    1.401   .     A
C822   H824    1.083   .     S
C822   C1070   1.383   1_545 S
C827   H829    1.082   .     S
C828   H830    1.082   .     S
C828   C76     1.416   1_556 S
C831   H833    1.082   .     S
C831   C71     1.416   1_556 S
C832   H834    1.082   .     S
N835   O836    1.301   .     A
N835   O837    1.302   .     A
N835   C857    1.442   .     S
N838   O840    1.302   .     A
N838   O839    1.301   .     A
O841   C845    1.291   .     A
O841   Cu853   1.965   .     S
O842   C846    1.291   .     A
O842   Cu854   1.965   .     S
O843   Cu854   1.965   .     S
O843   C845    1.291   .     A
O844   C846    1.291   .     A
O844   Cu853   1.965   .     S
C845   C868    1.450   .     S
C846   C867    1.450   .     S
O847   C851    1.284   .     A
O847   Cu853   1.972   .     S
O848   C852    1.284   .     A
O848   Cu854   1.972   .     S
O849   Cu854   1.973   .     S
O849   C851    1.290   .     A
O850   C852    1.290   .     A
O850   Cu853   1.973   .     S
C851   C857    1.439   .     S
C852   C858    1.439   .     S
Cu853  N855    2.011   .     S
Cu853  Cu854   2.676   .     S
Cu854  N856    2.011   .     S
N855   C870    1.367   .     A
N855   C873    1.367   .     A
N856   C874    1.367   .     A
N856   C869    1.367   .     A
C858   C773    1.359   1_655 S
C858   N796    1.442   1_655 S
C859   C868    1.401   .     A
C859   H861    1.083   .     S
C859   C1115   1.383   1_545 S
C860   C867    1.401   .     A
C860   H862    1.083   .     S
C860   C990    1.383   .     S
C863   C867    1.401   .     A
C863   H865    1.083   .     S
C863   C985    1.383   .     S
C864   C868    1.401   .     A
C864   H866    1.083   .     S
C864   C1112   1.383   1_545 S
C869   H871    1.082   .     S
C870   H872    1.082   .     S
C870   C118    1.416   1_556 S
C873   H875    1.082   .     S
C873   C113    1.416   1_556 S
C874   H876    1.082   .     S
N877   O878    1.301   .     A
N877   O879    1.302   .     A
N877   C773    1.442   1_655 S
N880   O882    1.302   .     A
N880   O881    1.301   .     A
O883   C887    1.291   .     A
O883   Cu895   1.965   .     S
O884   C888    1.291   .     A
O884   Cu896   1.965   .     S
O885   Cu896   1.965   .     S
O885   C887    1.291   .     A
O886   C888    1.291   .     A
O886   Cu895   1.965   .     S
C887   C910    1.450   .     S
C888   C909    1.450   .     S
O889   C893    1.284   .     A
O889   Cu895   1.972   .     S
O890   C894    1.284   .     A
O890   Cu896   1.972   .     S
O891   Cu896   1.973   .     S
O891   C893    1.290   .     A
O892   C894    1.290   .     A
O892   Cu895   1.973   .     S
C893   C899    1.439   .     S
C894   C900    1.439   .     S
Cu895  N897    2.011   .     S
Cu895  Cu896   2.676   .     S
Cu896  N898    2.011   .     S
N897   C912    1.367   .     A
N897   C915    1.367   .     A
N898   C916    1.367   .     A
N898   C911    1.367   .     A
C899   C984    1.359   1_455 S
C899   N1003   1.442   1_455 S
C900   C941    1.359   .     S
C900   N964    1.442   .     S
C901   C910    1.401   .     A
C901   H903    1.083   .     S
C902   C909    1.401   .     A
C902   H904    1.083   .     S
C902   C1032   1.383   .     S
C905   C909    1.401   .     A
C905   H907    1.083   .     S
C905   C1027   1.383   .     S
C906   C910    1.401   .     A
C906   H908    1.083   .     S
C911   H913    1.082   .     S
C912   H914    1.082   .     S
C912   C160    1.416   1_556 S
C915   H917    1.082   .     S
C915   C155    1.416   1_556 S
C916   H918    1.082   .     S
N919   O920    1.301   .     A
N919   O921    1.302   .     A
N919   C941    1.442   .     S
N922   O924    1.302   .     A
N922   O923    1.301   .     A
N922   C984    1.442   1_455 S
O925   C929    1.291   .     A
O925   Cu937   1.965   .     S
O926   C930    1.291   .     A
O926   Cu938   1.965   .     S
O927   Cu938   1.965   .     S
O927   C929    1.291   .     A
O928   C930    1.291   .     A
O928   Cu937   1.965   .     S
C929   C952    1.450   .     S
C930   C951    1.450   .     S
O931   C935    1.284   .     A
O931   Cu937   1.972   .     S
O932   C936    1.284   .     A
O932   Cu938   1.972   .     S
O933   Cu938   1.973   .     S
O933   C935    1.290   .     A
O934   C936    1.290   .     A
O934   Cu937   1.973   .     S
C935   C941    1.439   .     S
C936   C942    1.439   .     S
Cu937  N939    2.011   .     S
Cu937  Cu938   2.676   .     S
Cu938  N940    2.011   .     S
N939   C954    1.367   .     A
N939   C957    1.367   .     A
N940   C958    1.367   .     A
N940   C953    1.367   .     A
C942   C983    1.359   .     S
C942   N1006   1.442   .     S
C943   C952    1.401   .     A
C943   H945    1.083   .     S
C944   C951    1.401   .     A
C944   H946    1.083   .     S
C944   C1074   1.383   .     S
C947   C951    1.401   .     A
C947   H949    1.083   .     S
C947   C1069   1.383   .     S
C948   C952    1.401   .     A
C948   H950    1.083   .     S
C953   H955    1.082   .     S
C954   H956    1.082   .     S
C954   C202    1.416   1_556 S
C957   H959    1.082   .     S
C957   C197    1.416   1_556 S
C958   H960    1.082   .     S
N961   O962    1.301   .     A
N961   O963    1.302   .     A
N961   C983    1.442   .     S
N964   O966    1.302   .     A
N964   O965    1.301   .     A
O967   C971    1.291   .     A
O967   Cu979   1.965   .     S
O968   C972    1.291   .     A
O968   Cu980   1.965   .     S
O969   Cu980   1.965   .     S
O969   C971    1.291   .     A
O970   C972    1.291   .     A
O970   Cu979   1.965   .     S
C971   C994    1.450   .     S
C972   C993    1.450   .     S
O973   C977    1.284   .     A
O973   Cu979   1.972   .     S
O974   C978    1.284   .     A
O974   Cu980   1.972   .     S
O975   Cu980   1.973   .     S
O975   C977    1.290   .     A
O976   C978    1.290   .     A
O976   Cu979   1.973   .     S
C977   C983    1.439   .     S
C978   C984    1.439   .     S
Cu979  N981    2.011   .     S
Cu979  Cu980   2.676   .     S
Cu980  N982    2.011   .     S
N981   C996    1.367   .     A
N981   C999    1.367   .     A
N982   C1000   1.367   .     A
N982   C995    1.367   .     A
C984   C899    1.359   1_655 S
C984   N922    1.442   1_655 S
C985   C994    1.401   .     A
C985   H987    1.083   .     S
C986   C993    1.401   .     A
C986   H988    1.083   .     S
C986   C1116   1.383   .     S
C989   C993    1.401   .     A
C989   H991    1.083   .     S
C989   C1111   1.383   .     S
C990   C994    1.401   .     A
C990   H992    1.083   .     S
C995   H997    1.082   .     S
C996   H998    1.082   .     S
C996   C244    1.416   1_556 S
C999   H1001   1.082   .     S
C999   C239    1.416   1_556 S
C1000  H1002   1.082   .     S
N1003  O1004   1.301   .     A
N1003  O1005   1.302   .     A
N1003  C899    1.442   1_655 S
N1006  O1008   1.302   .     A
N1006  O1007   1.301   .     A
O1009  C1013   1.291   .     A
O1009  Cu1021  1.965   .     S
O1010  C1014   1.291   .     A
O1010  Cu1022  1.965   .     S
O1011  Cu1022  1.965   .     S
O1011  C1013   1.291   .     A
O1012  C1014   1.291   .     A
O1012  Cu1021  1.965   .     S
C1013  C1036   1.450   .     S
C1014  C1035   1.450   .     S
O1015  C1019   1.284   .     A
O1015  Cu1021  1.972   .     S
O1016  C1020   1.284   .     A
O1016  Cu1022  1.972   .     S
O1017  Cu1022  1.973   .     S
O1017  C1019   1.290   .     A
O1018  C1020   1.290   .     A
O1018  Cu1021  1.973   .     S
C1019  C1025   1.439   .     S
C1020  C1026   1.439   .     S
Cu1021 N1023   2.011   .     S
Cu1021 Cu1022  2.676   .     S
Cu1022 N1024   2.011   .     S
N1023  C1038   1.367   .     A
N1023  C1041   1.367   .     A
N1024  C1042   1.367   .     A
N1024  C1037   1.367   .     A
C1025  C1110   1.359   1_455 S
C1025  N1129   1.442   1_455 S
C1026  C1067   1.359   .     S
C1026  N1090   1.442   .     S
C1027  C1036   1.401   .     A
C1027  H1029   1.083   .     S
C1028  C1035   1.401   .     A
C1028  H1030   1.083   .     S
C1028  C780    1.383   1_565 S
C1031  C1035   1.401   .     A
C1031  H1033   1.083   .     S
C1031  C775    1.383   1_565 S
C1032  C1036   1.401   .     A
C1032  H1034   1.083   .     S
C1037  H1039   1.082   .     S
C1038  H1040   1.082   .     S
C1038  C286    1.416   1_556 S
C1041  H1043   1.082   .     S
C1041  C281    1.416   1_556 S
C1042  H1044   1.082   .     S
N1045  O1046   1.301   .     A
N1045  O1047   1.302   .     A
N1045  C1067   1.442   .     S
N1048  O1050   1.302   .     A
N1048  O1049   1.301   .     A
N1048  C1110   1.442   1_455 S
O1051  C1055   1.291   .     A
O1051  Cu1063  1.965   .     S
O1052  C1056   1.291   .     A
O1052  Cu1064  1.965   .     S
O1053  Cu1064  1.965   .     S
O1053  C1055   1.291   .     A
O1054  C1056   1.291   .     A
O1054  Cu1063  1.965   .     S
C1055  C1078   1.450   .     S
C1056  C1077   1.450   .     S
O1057  C1061   1.284   .     A
O1057  Cu1063  1.972   .     S
O1058  C1062   1.284   .     A
O1058  Cu1064  1.972   .     S
O1059  Cu1064  1.973   .     S
O1059  C1061   1.290   .     A
O1060  C1062   1.290   .     A
O1060  Cu1063  1.973   .     S
C1061  C1067   1.439   .     S
C1062  C1068   1.439   .     S
Cu1063 N1065   2.011   .     S
Cu1063 Cu1064  2.676   .     S
Cu1064 N1066   2.011   .     S
N1065  C1080   1.367   .     A
N1065  C1083   1.367   .     A
N1066  C1084   1.367   .     A
N1066  C1079   1.367   .     A
C1068  C1109   1.359   .     S
C1068  N1132   1.442   .     S
C1069  C1078   1.401   .     A
C1069  H1071   1.083   .     S
C1070  C1077   1.401   .     A
C1070  H1072   1.083   .     S
C1070  C822    1.383   1_565 S
C1073  C1077   1.401   .     A
C1073  H1075   1.083   .     S
C1073  C817    1.383   1_565 S
C1074  C1078   1.401   .     A
C1074  H1076   1.083   .     S
C1079  H1081   1.082   .     S
C1080  H1082   1.082   .     S
C1080  C328    1.416   1_556 S
C1083  H1085   1.082   .     S
C1083  C323    1.416   1_556 S
C1084  H1086   1.082   .     S
N1087  O1088   1.301   .     A
N1087  O1089   1.302   .     A
N1087  C1109   1.442   .     S
N1090  O1092   1.302   .     A
N1090  O1091   1.301   .     A
O1093  C1097   1.291   .     A
O1093  Cu1105  1.965   .     S
O1094  C1098   1.291   .     A
O1094  Cu1106  1.965   .     S
O1095  Cu1106  1.965   .     S
O1095  C1097   1.291   .     A
O1096  C1098   1.291   .     A
O1096  Cu1105  1.965   .     S
C1097  C1120   1.450   .     S
C1098  C1119   1.450   .     S
O1099  C1103   1.284   .     A
O1099  Cu1105  1.972   .     S
O1100  C1104   1.284   .     A
O1100  Cu1106  1.972   .     S
O1101  Cu1106  1.973   .     S
O1101  C1103   1.290   .     A
O1102  C1104   1.290   .     A
O1102  Cu1105  1.973   .     S
C1103  C1109   1.439   .     S
C1104  C1110   1.439   .     S
Cu1105 N1107   2.011   .     S
Cu1105 Cu1106  2.676   .     S
Cu1106 N1108   2.011   .     S
N1107  C1122   1.367   .     A
N1107  C1125   1.367   .     A
N1108  C1126   1.367   .     A
N1108  C1121   1.367   .     A
C1110  C1025   1.359   1_655 S
C1110  N1048   1.442   1_655 S
C1111  C1120   1.401   .     A
C1111  H1113   1.083   .     S
C1112  C1119   1.401   .     A
C1112  H1114   1.083   .     S
C1112  C864    1.383   1_565 S
C1115  C1119   1.401   .     A
C1115  H1117   1.083   .     S
C1115  C859    1.383   1_565 S
C1116  C1120   1.401   .     A
C1116  H1118   1.083   .     S
C1121  H1123   1.082   .     S
C1122  H1124   1.082   .     S
C1122  C370    1.416   1_556 S
C1125  H1127   1.082   .     S
C1125  C365    1.416   1_556 S
C1126  H1128   1.082   .     S
N1129  O1130   1.301   .     A
N1129  O1131   1.302   .     A
N1129  C1025   1.442   1_655 S
N1132  O1134   1.302   .     A
N1132  O1133   1.301   .     A
