data_str_m2_o1_o10_pcu_sym.117
_audit_creation_date              2020-01-03
_audit_creation_method            'Materials Studio'
_symmetry_space_group_name_H-M    'P1'
_symmetry_Int_Tables_number       1
_symmetry_cell_setting            triclinic
loop_
_symmetry_equiv_pos_as_xyz
  x,y,z
_cell_length_a                    26.3922
_cell_length_b                    32.4981
_cell_length_c                    28.5410
_cell_angle_alpha                 89.9854
_cell_angle_beta                  97.3261
_cell_angle_gamma                 90.1806
loop_
_atom_site_label
_atom_site_type_symbol
_atom_site_fract_x
_atom_site_fract_y
_atom_site_fract_z
_atom_site_U_iso_or_equiv
_atom_site_adp_type
_atom_site_occupancy
C1     C     0.16664   0.08735   0.16665   0.00000  Uiso   1.00
C2     C     0.16669   0.24598   0.16668   0.00000  Uiso   1.00
C3     C     0.06820   0.16564   0.15501   0.00000  Uiso   1.00
C4     C     0.26513   0.16769   0.17832   0.00000  Uiso   1.00
C5     C     0.01386   0.15895   0.15009   0.00000  Uiso   1.00
C6     C     0.31947   0.17438   0.18324   0.00000  Uiso   1.00
C7     C     0.16738   0.02129   0.12418   0.00000  Uiso   1.00
C8     C     0.16596   0.31204   0.20916   0.00000  Uiso   1.00
C9     C     0.16742   0.31206   0.12418   0.00000  Uiso   1.00
C10    C     0.16592   0.02128   0.20915   0.00000  Uiso   1.00
C11    C     0.16670   0.29059   0.16667   0.00000  Uiso   1.00
C12    C     0.16664   0.04274   0.16666   0.00000  Uiso   1.00
C13    C     0.13310   0.14259   0.02084   0.00000  Uiso   1.00
C14    C     0.20023   0.19075   0.31249   0.00000  Uiso   1.00
C15    C     0.13311   0.14260   0.30456   0.00000  Uiso   1.00
C16    C     0.20023   0.19073   0.02878   0.00000  Uiso   1.00
Cu17   Cu    0.16667   0.16667   0.21355   0.00000  Uiso   1.00
Cu18   Cu    0.16667   0.16666   0.11978   0.00000  Uiso   1.00
H19    H     0.16796   0.03731   0.09096   0.00000  Uiso   1.00
H20    H     0.16538   0.29602   0.24238   0.00000  Uiso   1.00
H21    H     0.16803   0.29605   0.09097   0.00000  Uiso   1.00
H22    H     0.16530   0.03728   0.24236   0.00000  Uiso   1.00
H23    H     0.10627   0.12324   0.03638   0.00000  Uiso   1.00
H24    H     0.22706   0.21009   0.29695   0.00000  Uiso   1.00
H25    H     0.10628   0.12329   0.28267   0.00000  Uiso   1.00
H26    H     0.22706   0.21004   0.05066   0.00000  Uiso   1.00
N27    N     0.16668   0.16668   0.28403   0.00000  Uiso   1.00
N28    N     0.16665   0.16666   0.04931   0.00000  Uiso   1.00
O29    O     0.16666   0.10655   0.20625   0.00000  Uiso   1.00
O30    O     0.16667   0.22678   0.12709   0.00000  Uiso   1.00
O31    O     0.16666   0.10654   0.12706   0.00000  Uiso   1.00
O32    O     0.16667   0.22679   0.20628   0.00000  Uiso   1.00
O33    O     0.09161   0.16667   0.19712   0.00000  Uiso   1.00
O34    O     0.24172   0.16666   0.13621   0.00000  Uiso   1.00
O35    O     0.09161   0.16666   0.11793   0.00000  Uiso   1.00
O36    O     0.24172   0.16667   0.21540   0.00000  Uiso   1.00
C37    C     0.32545   0.13031   0.11031   0.00000  Uiso   1.00
H38    H     0.02278   0.11426   0.09424   0.00000  Uiso   1.00
H39    H     0.30159   0.10592   0.12390   0.00000  Uiso   1.00
H40    H     0.30274   0.14802   0.08176   0.00000  Uiso   1.00
C41    C     0.00788   0.20303   0.22302   0.00000  Uiso   1.00
H42    H     0.31055   0.21907   0.23909   0.00000  Uiso   1.00
H43    H     0.03059   0.18531   0.25158   0.00000  Uiso   1.00
H44    H     0.03175   0.22742   0.20943   0.00000  Uiso   1.00
C45    C     0.49998   0.08735   0.16665   0.00000  Uiso   1.00
C46    C     0.50002   0.24598   0.16668   0.00000  Uiso   1.00
C47    C     0.40153   0.16564   0.15501   0.00000  Uiso   1.00
C48    C     0.59847   0.16769   0.17832   0.00000  Uiso   1.00
C49    C     0.34719   0.15895   0.15009   0.00000  Uiso   1.00
C50    C     0.65281   0.17438   0.18324   0.00000  Uiso   1.00
C51    C     0.50071   0.02129   0.12418   0.00000  Uiso   1.00
C52    C     0.49929   0.31204   0.20916   0.00000  Uiso   1.00
C53    C     0.50075   0.31206   0.12418   0.00000  Uiso   1.00
C54    C     0.49925   0.02128   0.20915   0.00000  Uiso   1.00
C55    C     0.50003   0.29059   0.16667   0.00000  Uiso   1.00
C56    C     0.49997   0.04274   0.16666   0.00000  Uiso   1.00
C57    C     0.46643   0.14259   0.02084   0.00000  Uiso   1.00
C58    C     0.53357   0.19075   0.31249   0.00000  Uiso   1.00
C59    C     0.46644   0.14260   0.30456   0.00000  Uiso   1.00
C60    C     0.53356   0.19073   0.02878   0.00000  Uiso   1.00
Cu61   Cu    0.50000   0.16667   0.21355   0.00000  Uiso   1.00
Cu62   Cu    0.50000   0.16666   0.11978   0.00000  Uiso   1.00
H63    H     0.50129   0.03731   0.09096   0.00000  Uiso   1.00
H64    H     0.49871   0.29602   0.24238   0.00000  Uiso   1.00
H65    H     0.50137   0.29605   0.09097   0.00000  Uiso   1.00
H66    H     0.49863   0.03728   0.24236   0.00000  Uiso   1.00
H67    H     0.43961   0.12324   0.03638   0.00000  Uiso   1.00
H68    H     0.56039   0.21009   0.29695   0.00000  Uiso   1.00
H69    H     0.43961   0.12329   0.28267   0.00000  Uiso   1.00
H70    H     0.56039   0.21004   0.05066   0.00000  Uiso   1.00
N71    N     0.50001   0.16668   0.28403   0.00000  Uiso   1.00
N72    N     0.49999   0.16666   0.04931   0.00000  Uiso   1.00
O73    O     0.50000   0.10655   0.20625   0.00000  Uiso   1.00
O74    O     0.50000   0.22678   0.12709   0.00000  Uiso   1.00
O75    O     0.50000   0.10654   0.12706   0.00000  Uiso   1.00
O76    O     0.50000   0.22679   0.20628   0.00000  Uiso   1.00
O77    O     0.42495   0.16667   0.19712   0.00000  Uiso   1.00
O78    O     0.57505   0.16666   0.13621   0.00000  Uiso   1.00
O79    O     0.42494   0.16666   0.11793   0.00000  Uiso   1.00
O80    O     0.57506   0.16667   0.21540   0.00000  Uiso   1.00
C81    C     0.65879   0.13031   0.11031   0.00000  Uiso   1.00
H82    H     0.35611   0.11426   0.09424   0.00000  Uiso   1.00
H83    H     0.63492   0.10592   0.12390   0.00000  Uiso   1.00
H84    H     0.63608   0.14802   0.08176   0.00000  Uiso   1.00
C85    C     0.34121   0.20303   0.22302   0.00000  Uiso   1.00
H86    H     0.64389   0.21907   0.23909   0.00000  Uiso   1.00
H87    H     0.36392   0.18531   0.25158   0.00000  Uiso   1.00
H88    H     0.36508   0.22742   0.20943   0.00000  Uiso   1.00
C89    C     0.83331   0.08735   0.16665   0.00000  Uiso   1.00
C90    C     0.83336   0.24598   0.16668   0.00000  Uiso   1.00
C91    C     0.73486   0.16564   0.15501   0.00000  Uiso   1.00
C92    C     0.93180   0.16769   0.17832   0.00000  Uiso   1.00
C93    C     0.68053   0.15895   0.15009   0.00000  Uiso   1.00
C94    C     0.98614   0.17438   0.18324   0.00000  Uiso   1.00
C95    C     0.83404   0.02129   0.12418   0.00000  Uiso   1.00
C96    C     0.83262   0.31204   0.20916   0.00000  Uiso   1.00
C97    C     0.83408   0.31206   0.12418   0.00000  Uiso   1.00
C98    C     0.83258   0.02128   0.20915   0.00000  Uiso   1.00
C99    C     0.83336   0.29059   0.16667   0.00000  Uiso   1.00
C100   C     0.83330   0.04274   0.16666   0.00000  Uiso   1.00
C101   C     0.79977   0.14259   0.02084   0.00000  Uiso   1.00
C102   C     0.86690   0.19075   0.31249   0.00000  Uiso   1.00
C103   C     0.79977   0.14260   0.30456   0.00000  Uiso   1.00
C104   C     0.86689   0.19073   0.02878   0.00000  Uiso   1.00
Cu105  Cu    0.83333   0.16667   0.21355   0.00000  Uiso   1.00
Cu106  Cu    0.83333   0.16666   0.11978   0.00000  Uiso   1.00
H107   H     0.83462   0.03731   0.09096   0.00000  Uiso   1.00
H108   H     0.83204   0.29602   0.24238   0.00000  Uiso   1.00
H109   H     0.83470   0.29605   0.09097   0.00000  Uiso   1.00
H110   H     0.83197   0.03728   0.24236   0.00000  Uiso   1.00
H111   H     0.77294   0.12324   0.03638   0.00000  Uiso   1.00
H112   H     0.89373   0.21009   0.29695   0.00000  Uiso   1.00
H113   H     0.77294   0.12329   0.28267   0.00000  Uiso   1.00
H114   H     0.89372   0.21004   0.05066   0.00000  Uiso   1.00
N115   N     0.83335   0.16668   0.28403   0.00000  Uiso   1.00
N116   N     0.83332   0.16666   0.04931   0.00000  Uiso   1.00
O117   O     0.83333   0.10655   0.20625   0.00000  Uiso   1.00
O118   O     0.83334   0.22678   0.12709   0.00000  Uiso   1.00
O119   O     0.83333   0.10654   0.12706   0.00000  Uiso   1.00
O120   O     0.83334   0.22679   0.20628   0.00000  Uiso   1.00
O121   O     0.75828   0.16667   0.19712   0.00000  Uiso   1.00
O122   O     0.90839   0.16666   0.13621   0.00000  Uiso   1.00
O123   O     0.75828   0.16666   0.11793   0.00000  Uiso   1.00
O124   O     0.90839   0.16667   0.21540   0.00000  Uiso   1.00
C125   C     0.99212   0.13031   0.11031   0.00000  Uiso   1.00
H126   H     0.68945   0.11426   0.09424   0.00000  Uiso   1.00
H127   H     0.96825   0.10592   0.12390   0.00000  Uiso   1.00
H128   H     0.96941   0.14802   0.08176   0.00000  Uiso   1.00
C129   C     0.67455   0.20303   0.22302   0.00000  Uiso   1.00
H130   H     0.97722   0.21907   0.23909   0.00000  Uiso   1.00
H131   H     0.69725   0.18531   0.25158   0.00000  Uiso   1.00
H132   H     0.69841   0.22742   0.20943   0.00000  Uiso   1.00
C133   C     0.16664   0.42069   0.16665   0.00000  Uiso   1.00
C134   C     0.16669   0.57931   0.16668   0.00000  Uiso   1.00
C135   C     0.06820   0.49897   0.15501   0.00000  Uiso   1.00
C136   C     0.26513   0.50103   0.17832   0.00000  Uiso   1.00
C137   C     0.01386   0.49228   0.15009   0.00000  Uiso   1.00
C138   C     0.31947   0.50772   0.18324   0.00000  Uiso   1.00
C139   C     0.16738   0.35463   0.12418   0.00000  Uiso   1.00
C140   C     0.16596   0.64537   0.20916   0.00000  Uiso   1.00
C141   C     0.16742   0.64539   0.12418   0.00000  Uiso   1.00
C142   C     0.16592   0.35461   0.20915   0.00000  Uiso   1.00
C143   C     0.16670   0.62393   0.16667   0.00000  Uiso   1.00
C144   C     0.16664   0.37607   0.16666   0.00000  Uiso   1.00
C145   C     0.13310   0.47592   0.02084   0.00000  Uiso   1.00
C146   C     0.20023   0.52408   0.31249   0.00000  Uiso   1.00
C147   C     0.13311   0.47594   0.30456   0.00000  Uiso   1.00
C148   C     0.20023   0.52406   0.02878   0.00000  Uiso   1.00
Cu149  Cu    0.16667   0.50001   0.21355   0.00000  Uiso   1.00
Cu150  Cu    0.16667   0.49999   0.11978   0.00000  Uiso   1.00
H151   H     0.16796   0.37065   0.09096   0.00000  Uiso   1.00
H152   H     0.16538   0.62935   0.24238   0.00000  Uiso   1.00
H153   H     0.16803   0.62939   0.09097   0.00000  Uiso   1.00
H154   H     0.16530   0.37061   0.24236   0.00000  Uiso   1.00
H155   H     0.10627   0.45658   0.03638   0.00000  Uiso   1.00
H156   H     0.22706   0.54342   0.29695   0.00000  Uiso   1.00
H157   H     0.10628   0.45662   0.28267   0.00000  Uiso   1.00
H158   H     0.22706   0.54338   0.05066   0.00000  Uiso   1.00
N159   N     0.16668   0.50001   0.28403   0.00000  Uiso   1.00
N160   N     0.16665   0.49999   0.04931   0.00000  Uiso   1.00
O161   O     0.16666   0.43989   0.20625   0.00000  Uiso   1.00
O162   O     0.16667   0.56011   0.12709   0.00000  Uiso   1.00
O163   O     0.16666   0.43988   0.12706   0.00000  Uiso   1.00
O164   O     0.16667   0.56012   0.20628   0.00000  Uiso   1.00
O165   O     0.09161   0.50000   0.19712   0.00000  Uiso   1.00
O166   O     0.24172   0.50000   0.13621   0.00000  Uiso   1.00
O167   O     0.09161   0.49999   0.11793   0.00000  Uiso   1.00
O168   O     0.24172   0.50001   0.21540   0.00000  Uiso   1.00
C169   C     0.32545   0.46364   0.11031   0.00000  Uiso   1.00
H170   H     0.02278   0.44760   0.09424   0.00000  Uiso   1.00
H171   H     0.30159   0.43925   0.12390   0.00000  Uiso   1.00
H172   H     0.30274   0.48135   0.08176   0.00000  Uiso   1.00
C173   C     0.00788   0.53636   0.22302   0.00000  Uiso   1.00
H174   H     0.31055   0.55240   0.23909   0.00000  Uiso   1.00
H175   H     0.03059   0.51865   0.25158   0.00000  Uiso   1.00
H176   H     0.03175   0.56075   0.20943   0.00000  Uiso   1.00
C177   C     0.49998   0.42069   0.16665   0.00000  Uiso   1.00
C178   C     0.50002   0.57931   0.16668   0.00000  Uiso   1.00
C179   C     0.40153   0.49897   0.15501   0.00000  Uiso   1.00
C180   C     0.59847   0.50103   0.17832   0.00000  Uiso   1.00
C181   C     0.34719   0.49228   0.15009   0.00000  Uiso   1.00
C182   C     0.65281   0.50772   0.18324   0.00000  Uiso   1.00
C183   C     0.50071   0.35463   0.12418   0.00000  Uiso   1.00
C184   C     0.49929   0.64537   0.20916   0.00000  Uiso   1.00
C185   C     0.50075   0.64539   0.12418   0.00000  Uiso   1.00
C186   C     0.49925   0.35461   0.20915   0.00000  Uiso   1.00
C187   C     0.50003   0.62393   0.16667   0.00000  Uiso   1.00
C188   C     0.49997   0.37607   0.16666   0.00000  Uiso   1.00
C189   C     0.46643   0.47592   0.02084   0.00000  Uiso   1.00
C190   C     0.53357   0.52408   0.31249   0.00000  Uiso   1.00
C191   C     0.46644   0.47594   0.30456   0.00000  Uiso   1.00
C192   C     0.53356   0.52406   0.02878   0.00000  Uiso   1.00
Cu193  Cu    0.50000   0.50001   0.21355   0.00000  Uiso   1.00
Cu194  Cu    0.50000   0.49999   0.11978   0.00000  Uiso   1.00
H195   H     0.50129   0.37065   0.09096   0.00000  Uiso   1.00
H196   H     0.49871   0.62935   0.24238   0.00000  Uiso   1.00
H197   H     0.50137   0.62939   0.09097   0.00000  Uiso   1.00
H198   H     0.49863   0.37061   0.24236   0.00000  Uiso   1.00
H199   H     0.43961   0.45658   0.03638   0.00000  Uiso   1.00
H200   H     0.56039   0.54342   0.29695   0.00000  Uiso   1.00
H201   H     0.43961   0.45662   0.28267   0.00000  Uiso   1.00
H202   H     0.56039   0.54338   0.05066   0.00000  Uiso   1.00
N203   N     0.50001   0.50001   0.28403   0.00000  Uiso   1.00
N204   N     0.49999   0.49999   0.04931   0.00000  Uiso   1.00
O205   O     0.50000   0.43989   0.20625   0.00000  Uiso   1.00
O206   O     0.50000   0.56011   0.12709   0.00000  Uiso   1.00
O207   O     0.50000   0.43988   0.12706   0.00000  Uiso   1.00
O208   O     0.50000   0.56012   0.20628   0.00000  Uiso   1.00
O209   O     0.42495   0.50000   0.19712   0.00000  Uiso   1.00
O210   O     0.57505   0.50000   0.13621   0.00000  Uiso   1.00
O211   O     0.42494   0.49999   0.11793   0.00000  Uiso   1.00
O212   O     0.57506   0.50001   0.21540   0.00000  Uiso   1.00
C213   C     0.65879   0.46364   0.11031   0.00000  Uiso   1.00
H214   H     0.35611   0.44760   0.09424   0.00000  Uiso   1.00
H215   H     0.63492   0.43925   0.12390   0.00000  Uiso   1.00
H216   H     0.63608   0.48135   0.08176   0.00000  Uiso   1.00
C217   C     0.34121   0.53636   0.22302   0.00000  Uiso   1.00
H218   H     0.64389   0.55240   0.23909   0.00000  Uiso   1.00
H219   H     0.36392   0.51865   0.25158   0.00000  Uiso   1.00
H220   H     0.36508   0.56075   0.20943   0.00000  Uiso   1.00
C221   C     0.83331   0.42069   0.16665   0.00000  Uiso   1.00
C222   C     0.83336   0.57931   0.16668   0.00000  Uiso   1.00
C223   C     0.73486   0.49897   0.15501   0.00000  Uiso   1.00
C224   C     0.93180   0.50103   0.17832   0.00000  Uiso   1.00
C225   C     0.68053   0.49228   0.15009   0.00000  Uiso   1.00
C226   C     0.98614   0.50772   0.18324   0.00000  Uiso   1.00
C227   C     0.83404   0.35463   0.12418   0.00000  Uiso   1.00
C228   C     0.83262   0.64537   0.20916   0.00000  Uiso   1.00
C229   C     0.83408   0.64539   0.12418   0.00000  Uiso   1.00
C230   C     0.83258   0.35461   0.20915   0.00000  Uiso   1.00
C231   C     0.83336   0.62393   0.16667   0.00000  Uiso   1.00
C232   C     0.83330   0.37607   0.16666   0.00000  Uiso   1.00
C233   C     0.79977   0.47592   0.02084   0.00000  Uiso   1.00
C234   C     0.86690   0.52408   0.31249   0.00000  Uiso   1.00
C235   C     0.79977   0.47594   0.30456   0.00000  Uiso   1.00
C236   C     0.86689   0.52406   0.02878   0.00000  Uiso   1.00
Cu237  Cu    0.83333   0.50001   0.21355   0.00000  Uiso   1.00
Cu238  Cu    0.83333   0.49999   0.11978   0.00000  Uiso   1.00
H239   H     0.83462   0.37065   0.09096   0.00000  Uiso   1.00
H240   H     0.83204   0.62935   0.24238   0.00000  Uiso   1.00
H241   H     0.83470   0.62939   0.09097   0.00000  Uiso   1.00
H242   H     0.83197   0.37061   0.24236   0.00000  Uiso   1.00
H243   H     0.77294   0.45658   0.03638   0.00000  Uiso   1.00
H244   H     0.89373   0.54342   0.29695   0.00000  Uiso   1.00
H245   H     0.77294   0.45662   0.28267   0.00000  Uiso   1.00
H246   H     0.89372   0.54338   0.05066   0.00000  Uiso   1.00
N247   N     0.83335   0.50001   0.28403   0.00000  Uiso   1.00
N248   N     0.83332   0.49999   0.04931   0.00000  Uiso   1.00
O249   O     0.83333   0.43989   0.20625   0.00000  Uiso   1.00
O250   O     0.83334   0.56011   0.12709   0.00000  Uiso   1.00
O251   O     0.83333   0.43988   0.12706   0.00000  Uiso   1.00
O252   O     0.83334   0.56012   0.20628   0.00000  Uiso   1.00
O253   O     0.75828   0.50000   0.19712   0.00000  Uiso   1.00
O254   O     0.90839   0.50000   0.13621   0.00000  Uiso   1.00
O255   O     0.75828   0.49999   0.11793   0.00000  Uiso   1.00
O256   O     0.90839   0.50001   0.21540   0.00000  Uiso   1.00
C257   C     0.99212   0.46364   0.11031   0.00000  Uiso   1.00
H258   H     0.68945   0.44760   0.09424   0.00000  Uiso   1.00
H259   H     0.96825   0.43925   0.12390   0.00000  Uiso   1.00
H260   H     0.96941   0.48135   0.08176   0.00000  Uiso   1.00
C261   C     0.67455   0.53636   0.22302   0.00000  Uiso   1.00
H262   H     0.97722   0.55240   0.23909   0.00000  Uiso   1.00
H263   H     0.69725   0.51865   0.25158   0.00000  Uiso   1.00
H264   H     0.69841   0.56075   0.20943   0.00000  Uiso   1.00
C265   C     0.16664   0.75402   0.16665   0.00000  Uiso   1.00
C266   C     0.16669   0.91265   0.16668   0.00000  Uiso   1.00
C267   C     0.06820   0.83231   0.15501   0.00000  Uiso   1.00
C268   C     0.26513   0.83436   0.17832   0.00000  Uiso   1.00
C269   C     0.01386   0.82562   0.15009   0.00000  Uiso   1.00
C270   C     0.31947   0.84105   0.18324   0.00000  Uiso   1.00
C271   C     0.16738   0.68796   0.12418   0.00000  Uiso   1.00
C272   C     0.16596   0.97871   0.20916   0.00000  Uiso   1.00
C273   C     0.16742   0.97872   0.12418   0.00000  Uiso   1.00
C274   C     0.16592   0.68794   0.20915   0.00000  Uiso   1.00
C275   C     0.16670   0.95726   0.16667   0.00000  Uiso   1.00
C276   C     0.16664   0.70941   0.16666   0.00000  Uiso   1.00
C277   C     0.13310   0.80925   0.02084   0.00000  Uiso   1.00
C278   C     0.20023   0.85741   0.31249   0.00000  Uiso   1.00
C279   C     0.13311   0.80927   0.30456   0.00000  Uiso   1.00
C280   C     0.20023   0.85740   0.02878   0.00000  Uiso   1.00
Cu281  Cu    0.16667   0.83334   0.21355   0.00000  Uiso   1.00
Cu282  Cu    0.16667   0.83333   0.11978   0.00000  Uiso   1.00
H283   H     0.16796   0.70398   0.09096   0.00000  Uiso   1.00
H284   H     0.16538   0.96269   0.24238   0.00000  Uiso   1.00
H285   H     0.16803   0.96272   0.09097   0.00000  Uiso   1.00
H286   H     0.16530   0.70395   0.24236   0.00000  Uiso   1.00
H287   H     0.10627   0.78991   0.03638   0.00000  Uiso   1.00
H288   H     0.22706   0.87676   0.29695   0.00000  Uiso   1.00
H289   H     0.10628   0.78996   0.28267   0.00000  Uiso   1.00
H290   H     0.22706   0.87671   0.05066   0.00000  Uiso   1.00
N291   N     0.16668   0.83334   0.28403   0.00000  Uiso   1.00
N292   N     0.16665   0.83332   0.04931   0.00000  Uiso   1.00
O293   O     0.16666   0.77322   0.20625   0.00000  Uiso   1.00
O294   O     0.16667   0.89345   0.12709   0.00000  Uiso   1.00
O295   O     0.16666   0.77321   0.12706   0.00000  Uiso   1.00
O296   O     0.16667   0.89346   0.20628   0.00000  Uiso   1.00
O297   O     0.09161   0.83334   0.19712   0.00000  Uiso   1.00
O298   O     0.24172   0.83333   0.13621   0.00000  Uiso   1.00
O299   O     0.09161   0.83333   0.11793   0.00000  Uiso   1.00
O300   O     0.24172   0.83334   0.21540   0.00000  Uiso   1.00
C301   C     0.32545   0.79697   0.11031   0.00000  Uiso   1.00
H302   H     0.02278   0.78093   0.09424   0.00000  Uiso   1.00
H303   H     0.30159   0.77258   0.12390   0.00000  Uiso   1.00
H304   H     0.30274   0.81469   0.08176   0.00000  Uiso   1.00
C305   C     0.00788   0.86969   0.22302   0.00000  Uiso   1.00
H306   H     0.31055   0.88574   0.23909   0.00000  Uiso   1.00
H307   H     0.03059   0.85198   0.25158   0.00000  Uiso   1.00
H308   H     0.03175   0.89408   0.20943   0.00000  Uiso   1.00
C309   C     0.49998   0.75402   0.16665   0.00000  Uiso   1.00
C310   C     0.50002   0.91265   0.16668   0.00000  Uiso   1.00
C311   C     0.40153   0.83231   0.15501   0.00000  Uiso   1.00
C312   C     0.59847   0.83436   0.17832   0.00000  Uiso   1.00
C313   C     0.34719   0.82562   0.15009   0.00000  Uiso   1.00
C314   C     0.65281   0.84105   0.18324   0.00000  Uiso   1.00
C315   C     0.50071   0.68796   0.12418   0.00000  Uiso   1.00
C316   C     0.49929   0.97871   0.20916   0.00000  Uiso   1.00
C317   C     0.50075   0.97872   0.12418   0.00000  Uiso   1.00
C318   C     0.49925   0.68794   0.20915   0.00000  Uiso   1.00
C319   C     0.50003   0.95726   0.16667   0.00000  Uiso   1.00
C320   C     0.49997   0.70941   0.16666   0.00000  Uiso   1.00
C321   C     0.46643   0.80925   0.02084   0.00000  Uiso   1.00
C322   C     0.53357   0.85741   0.31249   0.00000  Uiso   1.00
C323   C     0.46644   0.80927   0.30456   0.00000  Uiso   1.00
C324   C     0.53356   0.85740   0.02878   0.00000  Uiso   1.00
Cu325  Cu    0.50000   0.83334   0.21355   0.00000  Uiso   1.00
Cu326  Cu    0.50000   0.83333   0.11978   0.00000  Uiso   1.00
H327   H     0.50129   0.70398   0.09096   0.00000  Uiso   1.00
H328   H     0.49871   0.96269   0.24238   0.00000  Uiso   1.00
H329   H     0.50137   0.96272   0.09097   0.00000  Uiso   1.00
H330   H     0.49863   0.70395   0.24236   0.00000  Uiso   1.00
H331   H     0.43961   0.78991   0.03638   0.00000  Uiso   1.00
H332   H     0.56039   0.87676   0.29695   0.00000  Uiso   1.00
H333   H     0.43961   0.78996   0.28267   0.00000  Uiso   1.00
H334   H     0.56039   0.87671   0.05066   0.00000  Uiso   1.00
N335   N     0.50001   0.83334   0.28403   0.00000  Uiso   1.00
N336   N     0.49999   0.83332   0.04931   0.00000  Uiso   1.00
O337   O     0.50000   0.77322   0.20625   0.00000  Uiso   1.00
O338   O     0.50000   0.89345   0.12709   0.00000  Uiso   1.00
O339   O     0.50000   0.77321   0.12706   0.00000  Uiso   1.00
O340   O     0.50000   0.89346   0.20628   0.00000  Uiso   1.00
O341   O     0.42495   0.83334   0.19712   0.00000  Uiso   1.00
O342   O     0.57505   0.83333   0.13621   0.00000  Uiso   1.00
O343   O     0.42494   0.83333   0.11793   0.00000  Uiso   1.00
O344   O     0.57506   0.83334   0.21540   0.00000  Uiso   1.00
C345   C     0.65879   0.79697   0.11031   0.00000  Uiso   1.00
H346   H     0.35611   0.78093   0.09424   0.00000  Uiso   1.00
H347   H     0.63492   0.77258   0.12390   0.00000  Uiso   1.00
H348   H     0.63608   0.81469   0.08176   0.00000  Uiso   1.00
C349   C     0.34121   0.86969   0.22302   0.00000  Uiso   1.00
H350   H     0.64389   0.88574   0.23909   0.00000  Uiso   1.00
H351   H     0.36392   0.85198   0.25158   0.00000  Uiso   1.00
H352   H     0.36508   0.89408   0.20943   0.00000  Uiso   1.00
C353   C     0.83331   0.75402   0.16665   0.00000  Uiso   1.00
C354   C     0.83336   0.91265   0.16668   0.00000  Uiso   1.00
C355   C     0.73486   0.83231   0.15501   0.00000  Uiso   1.00
C356   C     0.93180   0.83436   0.17832   0.00000  Uiso   1.00
C357   C     0.68053   0.82562   0.15009   0.00000  Uiso   1.00
C358   C     0.98614   0.84105   0.18324   0.00000  Uiso   1.00
C359   C     0.83404   0.68796   0.12418   0.00000  Uiso   1.00
C360   C     0.83262   0.97871   0.20916   0.00000  Uiso   1.00
C361   C     0.83408   0.97872   0.12418   0.00000  Uiso   1.00
C362   C     0.83258   0.68794   0.20915   0.00000  Uiso   1.00
C363   C     0.83336   0.95726   0.16667   0.00000  Uiso   1.00
C364   C     0.83330   0.70941   0.16666   0.00000  Uiso   1.00
C365   C     0.79977   0.80925   0.02084   0.00000  Uiso   1.00
C366   C     0.86690   0.85741   0.31249   0.00000  Uiso   1.00
C367   C     0.79977   0.80927   0.30456   0.00000  Uiso   1.00
C368   C     0.86689   0.85740   0.02878   0.00000  Uiso   1.00
Cu369  Cu    0.83333   0.83334   0.21355   0.00000  Uiso   1.00
Cu370  Cu    0.83333   0.83333   0.11978   0.00000  Uiso   1.00
H371   H     0.83462   0.70398   0.09096   0.00000  Uiso   1.00
H372   H     0.83204   0.96269   0.24238   0.00000  Uiso   1.00
H373   H     0.83470   0.96272   0.09097   0.00000  Uiso   1.00
H374   H     0.83197   0.70395   0.24236   0.00000  Uiso   1.00
H375   H     0.77294   0.78991   0.03638   0.00000  Uiso   1.00
H376   H     0.89373   0.87676   0.29695   0.00000  Uiso   1.00
H377   H     0.77294   0.78996   0.28267   0.00000  Uiso   1.00
H378   H     0.89372   0.87671   0.05066   0.00000  Uiso   1.00
N379   N     0.83335   0.83334   0.28403   0.00000  Uiso   1.00
N380   N     0.83332   0.83332   0.04931   0.00000  Uiso   1.00
O381   O     0.83333   0.77322   0.20625   0.00000  Uiso   1.00
O382   O     0.83334   0.89345   0.12709   0.00000  Uiso   1.00
O383   O     0.83333   0.77321   0.12706   0.00000  Uiso   1.00
O384   O     0.83334   0.89346   0.20628   0.00000  Uiso   1.00
O385   O     0.75828   0.83334   0.19712   0.00000  Uiso   1.00
O386   O     0.90839   0.83333   0.13621   0.00000  Uiso   1.00
O387   O     0.75828   0.83333   0.11793   0.00000  Uiso   1.00
O388   O     0.90839   0.83334   0.21540   0.00000  Uiso   1.00
C389   C     0.99212   0.79697   0.11031   0.00000  Uiso   1.00
H390   H     0.68945   0.78093   0.09424   0.00000  Uiso   1.00
H391   H     0.96825   0.77258   0.12390   0.00000  Uiso   1.00
H392   H     0.96941   0.81469   0.08176   0.00000  Uiso   1.00
C393   C     0.67455   0.86969   0.22302   0.00000  Uiso   1.00
H394   H     0.97722   0.88574   0.23909   0.00000  Uiso   1.00
H395   H     0.69725   0.85198   0.25158   0.00000  Uiso   1.00
H396   H     0.69841   0.89408   0.20943   0.00000  Uiso   1.00
C397   C     0.16664   0.08735   0.49999   0.00000  Uiso   1.00
C398   C     0.16669   0.24598   0.50001   0.00000  Uiso   1.00
C399   C     0.06820   0.16564   0.48834   0.00000  Uiso   1.00
C400   C     0.26513   0.16769   0.51166   0.00000  Uiso   1.00
C401   C     0.01386   0.15895   0.48343   0.00000  Uiso   1.00
C402   C     0.31947   0.17438   0.51657   0.00000  Uiso   1.00
C403   C     0.16738   0.02129   0.45751   0.00000  Uiso   1.00
C404   C     0.16596   0.31204   0.54249   0.00000  Uiso   1.00
C405   C     0.16742   0.31206   0.45752   0.00000  Uiso   1.00
C406   C     0.16592   0.02128   0.54248   0.00000  Uiso   1.00
C407   C     0.16670   0.29059   0.50001   0.00000  Uiso   1.00
C408   C     0.16664   0.04274   0.49999   0.00000  Uiso   1.00
C409   C     0.13310   0.14259   0.35418   0.00000  Uiso   1.00
C410   C     0.20023   0.19075   0.64582   0.00000  Uiso   1.00
C411   C     0.13311   0.14260   0.63789   0.00000  Uiso   1.00
C412   C     0.20023   0.19073   0.36211   0.00000  Uiso   1.00
Cu413  Cu    0.16667   0.16667   0.54689   0.00000  Uiso   1.00
Cu414  Cu    0.16667   0.16666   0.45311   0.00000  Uiso   1.00
H415   H     0.16796   0.03731   0.42429   0.00000  Uiso   1.00
H416   H     0.16538   0.29602   0.57571   0.00000  Uiso   1.00
H417   H     0.16803   0.29605   0.42431   0.00000  Uiso   1.00
H418   H     0.16530   0.03728   0.57569   0.00000  Uiso   1.00
H419   H     0.10627   0.12324   0.36972   0.00000  Uiso   1.00
H420   H     0.22706   0.21009   0.63028   0.00000  Uiso   1.00
H421   H     0.10628   0.12329   0.61600   0.00000  Uiso   1.00
H422   H     0.22706   0.21004   0.38400   0.00000  Uiso   1.00
N423   N     0.16668   0.16668   0.61736   0.00000  Uiso   1.00
N424   N     0.16665   0.16666   0.38264   0.00000  Uiso   1.00
O425   O     0.16666   0.10655   0.53958   0.00000  Uiso   1.00
O426   O     0.16667   0.22678   0.46042   0.00000  Uiso   1.00
O427   O     0.16666   0.10654   0.46039   0.00000  Uiso   1.00
O428   O     0.16667   0.22679   0.53961   0.00000  Uiso   1.00
O429   O     0.09161   0.16667   0.53046   0.00000  Uiso   1.00
O430   O     0.24172   0.16666   0.46954   0.00000  Uiso   1.00
O431   O     0.09161   0.16666   0.45127   0.00000  Uiso   1.00
O432   O     0.24172   0.16667   0.54873   0.00000  Uiso   1.00
C433   C     0.32545   0.13031   0.44364   0.00000  Uiso   1.00
H434   H     0.02278   0.11426   0.42757   0.00000  Uiso   1.00
H435   H     0.30159   0.10592   0.45723   0.00000  Uiso   1.00
H436   H     0.30274   0.14802   0.41509   0.00000  Uiso   1.00
C437   C     0.00788   0.20303   0.55636   0.00000  Uiso   1.00
H438   H     0.31055   0.21907   0.57243   0.00000  Uiso   1.00
H439   H     0.03059   0.18531   0.58491   0.00000  Uiso   1.00
H440   H     0.03175   0.22742   0.54277   0.00000  Uiso   1.00
C441   C     0.49998   0.08735   0.49999   0.00000  Uiso   1.00
C442   C     0.50002   0.24598   0.50001   0.00000  Uiso   1.00
C443   C     0.40153   0.16564   0.48834   0.00000  Uiso   1.00
C444   C     0.59847   0.16769   0.51166   0.00000  Uiso   1.00
C445   C     0.34719   0.15895   0.48343   0.00000  Uiso   1.00
C446   C     0.65281   0.17438   0.51657   0.00000  Uiso   1.00
C447   C     0.50071   0.02129   0.45751   0.00000  Uiso   1.00
C448   C     0.49929   0.31204   0.54249   0.00000  Uiso   1.00
C449   C     0.50075   0.31206   0.45752   0.00000  Uiso   1.00
C450   C     0.49925   0.02128   0.54248   0.00000  Uiso   1.00
C451   C     0.50003   0.29059   0.50001   0.00000  Uiso   1.00
C452   C     0.49997   0.04274   0.49999   0.00000  Uiso   1.00
C453   C     0.46643   0.14259   0.35418   0.00000  Uiso   1.00
C454   C     0.53357   0.19075   0.64582   0.00000  Uiso   1.00
C455   C     0.46644   0.14260   0.63789   0.00000  Uiso   1.00
C456   C     0.53356   0.19073   0.36211   0.00000  Uiso   1.00
Cu457  Cu    0.50000   0.16667   0.54689   0.00000  Uiso   1.00
Cu458  Cu    0.50000   0.16666   0.45311   0.00000  Uiso   1.00
H459   H     0.50129   0.03731   0.42429   0.00000  Uiso   1.00
H460   H     0.49871   0.29602   0.57571   0.00000  Uiso   1.00
H461   H     0.50137   0.29605   0.42431   0.00000  Uiso   1.00
H462   H     0.49863   0.03728   0.57569   0.00000  Uiso   1.00
H463   H     0.43961   0.12324   0.36972   0.00000  Uiso   1.00
H464   H     0.56039   0.21009   0.63028   0.00000  Uiso   1.00
H465   H     0.43961   0.12329   0.61600   0.00000  Uiso   1.00
H466   H     0.56039   0.21004   0.38400   0.00000  Uiso   1.00
N467   N     0.50001   0.16668   0.61736   0.00000  Uiso   1.00
N468   N     0.49999   0.16666   0.38264   0.00000  Uiso   1.00
O469   O     0.50000   0.10655   0.53958   0.00000  Uiso   1.00
O470   O     0.50000   0.22678   0.46042   0.00000  Uiso   1.00
O471   O     0.50000   0.10654   0.46039   0.00000  Uiso   1.00
O472   O     0.50000   0.22679   0.53961   0.00000  Uiso   1.00
O473   O     0.42495   0.16667   0.53046   0.00000  Uiso   1.00
O474   O     0.57505   0.16666   0.46954   0.00000  Uiso   1.00
O475   O     0.42494   0.16666   0.45127   0.00000  Uiso   1.00
O476   O     0.57506   0.16667   0.54873   0.00000  Uiso   1.00
C477   C     0.65879   0.13031   0.44364   0.00000  Uiso   1.00
H478   H     0.35611   0.11426   0.42757   0.00000  Uiso   1.00
H479   H     0.63492   0.10592   0.45723   0.00000  Uiso   1.00
H480   H     0.63608   0.14802   0.41509   0.00000  Uiso   1.00
C481   C     0.34121   0.20303   0.55636   0.00000  Uiso   1.00
H482   H     0.64389   0.21907   0.57243   0.00000  Uiso   1.00
H483   H     0.36392   0.18531   0.58491   0.00000  Uiso   1.00
H484   H     0.36508   0.22742   0.54277   0.00000  Uiso   1.00
C485   C     0.83331   0.08735   0.49999   0.00000  Uiso   1.00
C486   C     0.83336   0.24598   0.50001   0.00000  Uiso   1.00
C487   C     0.73486   0.16564   0.48834   0.00000  Uiso   1.00
C488   C     0.93180   0.16769   0.51166   0.00000  Uiso   1.00
C489   C     0.68053   0.15895   0.48343   0.00000  Uiso   1.00
C490   C     0.98614   0.17438   0.51657   0.00000  Uiso   1.00
C491   C     0.83404   0.02129   0.45751   0.00000  Uiso   1.00
C492   C     0.83262   0.31204   0.54249   0.00000  Uiso   1.00
C493   C     0.83408   0.31206   0.45752   0.00000  Uiso   1.00
C494   C     0.83258   0.02128   0.54248   0.00000  Uiso   1.00
C495   C     0.83336   0.29059   0.50001   0.00000  Uiso   1.00
C496   C     0.83330   0.04274   0.49999   0.00000  Uiso   1.00
C497   C     0.79977   0.14259   0.35418   0.00000  Uiso   1.00
C498   C     0.86690   0.19075   0.64582   0.00000  Uiso   1.00
C499   C     0.79977   0.14260   0.63789   0.00000  Uiso   1.00
C500   C     0.86689   0.19073   0.36211   0.00000  Uiso   1.00
Cu501  Cu    0.83333   0.16667   0.54689   0.00000  Uiso   1.00
Cu502  Cu    0.83333   0.16666   0.45311   0.00000  Uiso   1.00
H503   H     0.83462   0.03731   0.42429   0.00000  Uiso   1.00
H504   H     0.83204   0.29602   0.57571   0.00000  Uiso   1.00
H505   H     0.83470   0.29605   0.42431   0.00000  Uiso   1.00
H506   H     0.83197   0.03728   0.57569   0.00000  Uiso   1.00
H507   H     0.77294   0.12324   0.36972   0.00000  Uiso   1.00
H508   H     0.89373   0.21009   0.63028   0.00000  Uiso   1.00
H509   H     0.77294   0.12329   0.61600   0.00000  Uiso   1.00
H510   H     0.89372   0.21004   0.38400   0.00000  Uiso   1.00
N511   N     0.83335   0.16668   0.61736   0.00000  Uiso   1.00
N512   N     0.83332   0.16666   0.38264   0.00000  Uiso   1.00
O513   O     0.83333   0.10655   0.53958   0.00000  Uiso   1.00
O514   O     0.83334   0.22678   0.46042   0.00000  Uiso   1.00
O515   O     0.83333   0.10654   0.46039   0.00000  Uiso   1.00
O516   O     0.83334   0.22679   0.53961   0.00000  Uiso   1.00
O517   O     0.75828   0.16667   0.53046   0.00000  Uiso   1.00
O518   O     0.90839   0.16666   0.46954   0.00000  Uiso   1.00
O519   O     0.75828   0.16666   0.45127   0.00000  Uiso   1.00
O520   O     0.90839   0.16667   0.54873   0.00000  Uiso   1.00
C521   C     0.99212   0.13031   0.44364   0.00000  Uiso   1.00
H522   H     0.68945   0.11426   0.42757   0.00000  Uiso   1.00
H523   H     0.96825   0.10592   0.45723   0.00000  Uiso   1.00
H524   H     0.96941   0.14802   0.41509   0.00000  Uiso   1.00
C525   C     0.67455   0.20303   0.55636   0.00000  Uiso   1.00
H526   H     0.97722   0.21907   0.57243   0.00000  Uiso   1.00
H527   H     0.69725   0.18531   0.58491   0.00000  Uiso   1.00
H528   H     0.69841   0.22742   0.54277   0.00000  Uiso   1.00
C529   C     0.16664   0.42069   0.49999   0.00000  Uiso   1.00
C530   C     0.16669   0.57931   0.50001   0.00000  Uiso   1.00
C531   C     0.06820   0.49897   0.48834   0.00000  Uiso   1.00
C532   C     0.26513   0.50103   0.51166   0.00000  Uiso   1.00
C533   C     0.01386   0.49228   0.48343   0.00000  Uiso   1.00
C534   C     0.31947   0.50772   0.51657   0.00000  Uiso   1.00
C535   C     0.16738   0.35463   0.45751   0.00000  Uiso   1.00
C536   C     0.16596   0.64537   0.54249   0.00000  Uiso   1.00
C537   C     0.16742   0.64539   0.45752   0.00000  Uiso   1.00
C538   C     0.16592   0.35461   0.54248   0.00000  Uiso   1.00
C539   C     0.16670   0.62393   0.50001   0.00000  Uiso   1.00
C540   C     0.16664   0.37607   0.49999   0.00000  Uiso   1.00
C541   C     0.13310   0.47592   0.35418   0.00000  Uiso   1.00
C542   C     0.20023   0.52408   0.64582   0.00000  Uiso   1.00
C543   C     0.13311   0.47594   0.63789   0.00000  Uiso   1.00
C544   C     0.20023   0.52406   0.36211   0.00000  Uiso   1.00
Cu545  Cu    0.16667   0.50001   0.54689   0.00000  Uiso   1.00
Cu546  Cu    0.16667   0.49999   0.45311   0.00000  Uiso   1.00
H547   H     0.16796   0.37065   0.42429   0.00000  Uiso   1.00
H548   H     0.16538   0.62935   0.57571   0.00000  Uiso   1.00
H549   H     0.16803   0.62939   0.42431   0.00000  Uiso   1.00
H550   H     0.16530   0.37061   0.57569   0.00000  Uiso   1.00
H551   H     0.10627   0.45658   0.36972   0.00000  Uiso   1.00
H552   H     0.22706   0.54342   0.63028   0.00000  Uiso   1.00
H553   H     0.10628   0.45662   0.61600   0.00000  Uiso   1.00
H554   H     0.22706   0.54338   0.38400   0.00000  Uiso   1.00
N555   N     0.16668   0.50001   0.61736   0.00000  Uiso   1.00
N556   N     0.16665   0.49999   0.38264   0.00000  Uiso   1.00
O557   O     0.16666   0.43989   0.53958   0.00000  Uiso   1.00
O558   O     0.16667   0.56011   0.46042   0.00000  Uiso   1.00
O559   O     0.16666   0.43988   0.46039   0.00000  Uiso   1.00
O560   O     0.16667   0.56012   0.53961   0.00000  Uiso   1.00
O561   O     0.09161   0.50000   0.53046   0.00000  Uiso   1.00
O562   O     0.24172   0.50000   0.46954   0.00000  Uiso   1.00
O563   O     0.09161   0.49999   0.45127   0.00000  Uiso   1.00
O564   O     0.24172   0.50001   0.54873   0.00000  Uiso   1.00
C565   C     0.32545   0.46364   0.44364   0.00000  Uiso   1.00
H566   H     0.02278   0.44760   0.42757   0.00000  Uiso   1.00
H567   H     0.30159   0.43925   0.45723   0.00000  Uiso   1.00
H568   H     0.30274   0.48135   0.41509   0.00000  Uiso   1.00
C569   C     0.00788   0.53636   0.55636   0.00000  Uiso   1.00
H570   H     0.31055   0.55240   0.57243   0.00000  Uiso   1.00
H571   H     0.03059   0.51865   0.58491   0.00000  Uiso   1.00
H572   H     0.03175   0.56075   0.54277   0.00000  Uiso   1.00
C573   C     0.49998   0.42069   0.49999   0.00000  Uiso   1.00
C574   C     0.50002   0.57931   0.50001   0.00000  Uiso   1.00
C575   C     0.40153   0.49897   0.48834   0.00000  Uiso   1.00
C576   C     0.59847   0.50103   0.51166   0.00000  Uiso   1.00
C577   C     0.34719   0.49228   0.48343   0.00000  Uiso   1.00
C578   C     0.65281   0.50772   0.51657   0.00000  Uiso   1.00
C579   C     0.50071   0.35463   0.45751   0.00000  Uiso   1.00
C580   C     0.49929   0.64537   0.54249   0.00000  Uiso   1.00
C581   C     0.50075   0.64539   0.45752   0.00000  Uiso   1.00
C582   C     0.49925   0.35461   0.54248   0.00000  Uiso   1.00
C583   C     0.50003   0.62393   0.50001   0.00000  Uiso   1.00
C584   C     0.49997   0.37607   0.49999   0.00000  Uiso   1.00
C585   C     0.46643   0.47592   0.35418   0.00000  Uiso   1.00
C586   C     0.53357   0.52408   0.64582   0.00000  Uiso   1.00
C587   C     0.46644   0.47594   0.63789   0.00000  Uiso   1.00
C588   C     0.53356   0.52406   0.36211   0.00000  Uiso   1.00
Cu589  Cu    0.50000   0.50001   0.54689   0.00000  Uiso   1.00
Cu590  Cu    0.50000   0.49999   0.45311   0.00000  Uiso   1.00
H591   H     0.50129   0.37065   0.42429   0.00000  Uiso   1.00
H592   H     0.49871   0.62935   0.57571   0.00000  Uiso   1.00
H593   H     0.50137   0.62939   0.42431   0.00000  Uiso   1.00
H594   H     0.49863   0.37061   0.57569   0.00000  Uiso   1.00
H595   H     0.43961   0.45658   0.36972   0.00000  Uiso   1.00
H596   H     0.56039   0.54342   0.63028   0.00000  Uiso   1.00
H597   H     0.43961   0.45662   0.61600   0.00000  Uiso   1.00
H598   H     0.56039   0.54338   0.38400   0.00000  Uiso   1.00
N599   N     0.50001   0.50001   0.61736   0.00000  Uiso   1.00
N600   N     0.49999   0.49999   0.38264   0.00000  Uiso   1.00
O601   O     0.50000   0.43989   0.53958   0.00000  Uiso   1.00
O602   O     0.50000   0.56011   0.46042   0.00000  Uiso   1.00
O603   O     0.50000   0.43988   0.46039   0.00000  Uiso   1.00
O604   O     0.50000   0.56012   0.53961   0.00000  Uiso   1.00
O605   O     0.42495   0.50000   0.53046   0.00000  Uiso   1.00
O606   O     0.57505   0.50000   0.46954   0.00000  Uiso   1.00
O607   O     0.42494   0.49999   0.45127   0.00000  Uiso   1.00
O608   O     0.57506   0.50001   0.54873   0.00000  Uiso   1.00
C609   C     0.65879   0.46364   0.44364   0.00000  Uiso   1.00
H610   H     0.35611   0.44760   0.42757   0.00000  Uiso   1.00
H611   H     0.63492   0.43925   0.45723   0.00000  Uiso   1.00
H612   H     0.63608   0.48135   0.41509   0.00000  Uiso   1.00
C613   C     0.34121   0.53636   0.55636   0.00000  Uiso   1.00
H614   H     0.64389   0.55240   0.57243   0.00000  Uiso   1.00
H615   H     0.36392   0.51865   0.58491   0.00000  Uiso   1.00
H616   H     0.36508   0.56075   0.54277   0.00000  Uiso   1.00
C617   C     0.83331   0.42069   0.49999   0.00000  Uiso   1.00
C618   C     0.83336   0.57931   0.50001   0.00000  Uiso   1.00
C619   C     0.73486   0.49897   0.48834   0.00000  Uiso   1.00
C620   C     0.93180   0.50103   0.51166   0.00000  Uiso   1.00
C621   C     0.68053   0.49228   0.48343   0.00000  Uiso   1.00
C622   C     0.98614   0.50772   0.51657   0.00000  Uiso   1.00
C623   C     0.83404   0.35463   0.45751   0.00000  Uiso   1.00
C624   C     0.83262   0.64537   0.54249   0.00000  Uiso   1.00
C625   C     0.83408   0.64539   0.45752   0.00000  Uiso   1.00
C626   C     0.83258   0.35461   0.54248   0.00000  Uiso   1.00
C627   C     0.83336   0.62393   0.50001   0.00000  Uiso   1.00
C628   C     0.83330   0.37607   0.49999   0.00000  Uiso   1.00
C629   C     0.79977   0.47592   0.35418   0.00000  Uiso   1.00
C630   C     0.86690   0.52408   0.64582   0.00000  Uiso   1.00
C631   C     0.79977   0.47594   0.63789   0.00000  Uiso   1.00
C632   C     0.86689   0.52406   0.36211   0.00000  Uiso   1.00
Cu633  Cu    0.83333   0.50001   0.54689   0.00000  Uiso   1.00
Cu634  Cu    0.83333   0.49999   0.45311   0.00000  Uiso   1.00
H635   H     0.83462   0.37065   0.42429   0.00000  Uiso   1.00
H636   H     0.83204   0.62935   0.57571   0.00000  Uiso   1.00
H637   H     0.83470   0.62939   0.42431   0.00000  Uiso   1.00
H638   H     0.83197   0.37061   0.57569   0.00000  Uiso   1.00
H639   H     0.77294   0.45658   0.36972   0.00000  Uiso   1.00
H640   H     0.89373   0.54342   0.63028   0.00000  Uiso   1.00
H641   H     0.77294   0.45662   0.61600   0.00000  Uiso   1.00
H642   H     0.89372   0.54338   0.38400   0.00000  Uiso   1.00
N643   N     0.83335   0.50001   0.61736   0.00000  Uiso   1.00
N644   N     0.83332   0.49999   0.38264   0.00000  Uiso   1.00
O645   O     0.83333   0.43989   0.53958   0.00000  Uiso   1.00
O646   O     0.83334   0.56011   0.46042   0.00000  Uiso   1.00
O647   O     0.83333   0.43988   0.46039   0.00000  Uiso   1.00
O648   O     0.83334   0.56012   0.53961   0.00000  Uiso   1.00
O649   O     0.75828   0.50000   0.53046   0.00000  Uiso   1.00
O650   O     0.90839   0.50000   0.46954   0.00000  Uiso   1.00
O651   O     0.75828   0.49999   0.45127   0.00000  Uiso   1.00
O652   O     0.90839   0.50001   0.54873   0.00000  Uiso   1.00
C653   C     0.99212   0.46364   0.44364   0.00000  Uiso   1.00
H654   H     0.68945   0.44760   0.42757   0.00000  Uiso   1.00
H655   H     0.96825   0.43925   0.45723   0.00000  Uiso   1.00
H656   H     0.96941   0.48135   0.41509   0.00000  Uiso   1.00
C657   C     0.67455   0.53636   0.55636   0.00000  Uiso   1.00
H658   H     0.97722   0.55240   0.57243   0.00000  Uiso   1.00
H659   H     0.69725   0.51865   0.58491   0.00000  Uiso   1.00
H660   H     0.69841   0.56075   0.54277   0.00000  Uiso   1.00
C661   C     0.16664   0.75402   0.49999   0.00000  Uiso   1.00
C662   C     0.16669   0.91265   0.50001   0.00000  Uiso   1.00
C663   C     0.06820   0.83231   0.48834   0.00000  Uiso   1.00
C664   C     0.26513   0.83436   0.51166   0.00000  Uiso   1.00
C665   C     0.01386   0.82562   0.48343   0.00000  Uiso   1.00
C666   C     0.31947   0.84105   0.51657   0.00000  Uiso   1.00
C667   C     0.16738   0.68796   0.45751   0.00000  Uiso   1.00
C668   C     0.16596   0.97871   0.54249   0.00000  Uiso   1.00
C669   C     0.16742   0.97872   0.45752   0.00000  Uiso   1.00
C670   C     0.16592   0.68794   0.54248   0.00000  Uiso   1.00
C671   C     0.16670   0.95726   0.50001   0.00000  Uiso   1.00
C672   C     0.16664   0.70941   0.49999   0.00000  Uiso   1.00
C673   C     0.13310   0.80925   0.35418   0.00000  Uiso   1.00
C674   C     0.20023   0.85741   0.64582   0.00000  Uiso   1.00
C675   C     0.13311   0.80927   0.63789   0.00000  Uiso   1.00
C676   C     0.20023   0.85740   0.36211   0.00000  Uiso   1.00
Cu677  Cu    0.16667   0.83334   0.54689   0.00000  Uiso   1.00
Cu678  Cu    0.16667   0.83333   0.45311   0.00000  Uiso   1.00
H679   H     0.16796   0.70398   0.42429   0.00000  Uiso   1.00
H680   H     0.16538   0.96269   0.57571   0.00000  Uiso   1.00
H681   H     0.16803   0.96272   0.42431   0.00000  Uiso   1.00
H682   H     0.16530   0.70395   0.57569   0.00000  Uiso   1.00
H683   H     0.10627   0.78991   0.36972   0.00000  Uiso   1.00
H684   H     0.22706   0.87676   0.63028   0.00000  Uiso   1.00
H685   H     0.10628   0.78996   0.61600   0.00000  Uiso   1.00
H686   H     0.22706   0.87671   0.38400   0.00000  Uiso   1.00
N687   N     0.16668   0.83334   0.61736   0.00000  Uiso   1.00
N688   N     0.16665   0.83332   0.38264   0.00000  Uiso   1.00
O689   O     0.16666   0.77322   0.53958   0.00000  Uiso   1.00
O690   O     0.16667   0.89345   0.46042   0.00000  Uiso   1.00
O691   O     0.16666   0.77321   0.46039   0.00000  Uiso   1.00
O692   O     0.16667   0.89346   0.53961   0.00000  Uiso   1.00
O693   O     0.09161   0.83334   0.53046   0.00000  Uiso   1.00
O694   O     0.24172   0.83333   0.46954   0.00000  Uiso   1.00
O695   O     0.09161   0.83333   0.45127   0.00000  Uiso   1.00
O696   O     0.24172   0.83334   0.54873   0.00000  Uiso   1.00
C697   C     0.32545   0.79697   0.44364   0.00000  Uiso   1.00
H698   H     0.02278   0.78093   0.42757   0.00000  Uiso   1.00
H699   H     0.30159   0.77258   0.45723   0.00000  Uiso   1.00
H700   H     0.30274   0.81469   0.41509   0.00000  Uiso   1.00
C701   C     0.00788   0.86969   0.55636   0.00000  Uiso   1.00
H702   H     0.31055   0.88574   0.57243   0.00000  Uiso   1.00
H703   H     0.03059   0.85198   0.58491   0.00000  Uiso   1.00
H704   H     0.03175   0.89408   0.54277   0.00000  Uiso   1.00
C705   C     0.49998   0.75402   0.49999   0.00000  Uiso   1.00
C706   C     0.50002   0.91265   0.50001   0.00000  Uiso   1.00
C707   C     0.40153   0.83231   0.48834   0.00000  Uiso   1.00
C708   C     0.59847   0.83436   0.51166   0.00000  Uiso   1.00
C709   C     0.34719   0.82562   0.48343   0.00000  Uiso   1.00
C710   C     0.65281   0.84105   0.51657   0.00000  Uiso   1.00
C711   C     0.50071   0.68796   0.45751   0.00000  Uiso   1.00
C712   C     0.49929   0.97871   0.54249   0.00000  Uiso   1.00
C713   C     0.50075   0.97872   0.45752   0.00000  Uiso   1.00
C714   C     0.49925   0.68794   0.54248   0.00000  Uiso   1.00
C715   C     0.50003   0.95726   0.50001   0.00000  Uiso   1.00
C716   C     0.49997   0.70941   0.49999   0.00000  Uiso   1.00
C717   C     0.46643   0.80925   0.35418   0.00000  Uiso   1.00
C718   C     0.53357   0.85741   0.64582   0.00000  Uiso   1.00
C719   C     0.46644   0.80927   0.63789   0.00000  Uiso   1.00
C720   C     0.53356   0.85740   0.36211   0.00000  Uiso   1.00
Cu721  Cu    0.50000   0.83334   0.54689   0.00000  Uiso   1.00
Cu722  Cu    0.50000   0.83333   0.45311   0.00000  Uiso   1.00
H723   H     0.50129   0.70398   0.42429   0.00000  Uiso   1.00
H724   H     0.49871   0.96269   0.57571   0.00000  Uiso   1.00
H725   H     0.50137   0.96272   0.42431   0.00000  Uiso   1.00
H726   H     0.49863   0.70395   0.57569   0.00000  Uiso   1.00
H727   H     0.43961   0.78991   0.36972   0.00000  Uiso   1.00
H728   H     0.56039   0.87676   0.63028   0.00000  Uiso   1.00
H729   H     0.43961   0.78996   0.61600   0.00000  Uiso   1.00
H730   H     0.56039   0.87671   0.38400   0.00000  Uiso   1.00
N731   N     0.50001   0.83334   0.61736   0.00000  Uiso   1.00
N732   N     0.49999   0.83332   0.38264   0.00000  Uiso   1.00
O733   O     0.50000   0.77322   0.53958   0.00000  Uiso   1.00
O734   O     0.50000   0.89345   0.46042   0.00000  Uiso   1.00
O735   O     0.50000   0.77321   0.46039   0.00000  Uiso   1.00
O736   O     0.50000   0.89346   0.53961   0.00000  Uiso   1.00
O737   O     0.42495   0.83334   0.53046   0.00000  Uiso   1.00
O738   O     0.57505   0.83333   0.46954   0.00000  Uiso   1.00
O739   O     0.42494   0.83333   0.45127   0.00000  Uiso   1.00
O740   O     0.57506   0.83334   0.54873   0.00000  Uiso   1.00
C741   C     0.65879   0.79697   0.44364   0.00000  Uiso   1.00
H742   H     0.35611   0.78093   0.42757   0.00000  Uiso   1.00
H743   H     0.63492   0.77258   0.45723   0.00000  Uiso   1.00
H744   H     0.63608   0.81469   0.41509   0.00000  Uiso   1.00
C745   C     0.34121   0.86969   0.55636   0.00000  Uiso   1.00
H746   H     0.64389   0.88574   0.57243   0.00000  Uiso   1.00
H747   H     0.36392   0.85198   0.58491   0.00000  Uiso   1.00
H748   H     0.36508   0.89408   0.54277   0.00000  Uiso   1.00
C749   C     0.83331   0.75402   0.49999   0.00000  Uiso   1.00
C750   C     0.83336   0.91265   0.50001   0.00000  Uiso   1.00
C751   C     0.73486   0.83231   0.48834   0.00000  Uiso   1.00
C752   C     0.93180   0.83436   0.51166   0.00000  Uiso   1.00
C753   C     0.68053   0.82562   0.48343   0.00000  Uiso   1.00
C754   C     0.98614   0.84105   0.51657   0.00000  Uiso   1.00
C755   C     0.83404   0.68796   0.45751   0.00000  Uiso   1.00
C756   C     0.83262   0.97871   0.54249   0.00000  Uiso   1.00
C757   C     0.83408   0.97872   0.45752   0.00000  Uiso   1.00
C758   C     0.83258   0.68794   0.54248   0.00000  Uiso   1.00
C759   C     0.83336   0.95726   0.50001   0.00000  Uiso   1.00
C760   C     0.83330   0.70941   0.49999   0.00000  Uiso   1.00
C761   C     0.79977   0.80925   0.35418   0.00000  Uiso   1.00
C762   C     0.86690   0.85741   0.64582   0.00000  Uiso   1.00
C763   C     0.79977   0.80927   0.63789   0.00000  Uiso   1.00
C764   C     0.86689   0.85740   0.36211   0.00000  Uiso   1.00
Cu765  Cu    0.83333   0.83334   0.54689   0.00000  Uiso   1.00
Cu766  Cu    0.83333   0.83333   0.45311   0.00000  Uiso   1.00
H767   H     0.83462   0.70398   0.42429   0.00000  Uiso   1.00
H768   H     0.83204   0.96269   0.57571   0.00000  Uiso   1.00
H769   H     0.83470   0.96272   0.42431   0.00000  Uiso   1.00
H770   H     0.83197   0.70395   0.57569   0.00000  Uiso   1.00
H771   H     0.77294   0.78991   0.36972   0.00000  Uiso   1.00
H772   H     0.89373   0.87676   0.63028   0.00000  Uiso   1.00
H773   H     0.77294   0.78996   0.61600   0.00000  Uiso   1.00
H774   H     0.89372   0.87671   0.38400   0.00000  Uiso   1.00
N775   N     0.83335   0.83334   0.61736   0.00000  Uiso   1.00
N776   N     0.83332   0.83332   0.38264   0.00000  Uiso   1.00
O777   O     0.83333   0.77322   0.53958   0.00000  Uiso   1.00
O778   O     0.83334   0.89345   0.46042   0.00000  Uiso   1.00
O779   O     0.83333   0.77321   0.46039   0.00000  Uiso   1.00
O780   O     0.83334   0.89346   0.53961   0.00000  Uiso   1.00
O781   O     0.75828   0.83334   0.53046   0.00000  Uiso   1.00
O782   O     0.90839   0.83333   0.46954   0.00000  Uiso   1.00
O783   O     0.75828   0.83333   0.45127   0.00000  Uiso   1.00
O784   O     0.90839   0.83334   0.54873   0.00000  Uiso   1.00
C785   C     0.99212   0.79697   0.44364   0.00000  Uiso   1.00
H786   H     0.68945   0.78093   0.42757   0.00000  Uiso   1.00
H787   H     0.96825   0.77258   0.45723   0.00000  Uiso   1.00
H788   H     0.96941   0.81469   0.41509   0.00000  Uiso   1.00
C789   C     0.67455   0.86969   0.55636   0.00000  Uiso   1.00
H790   H     0.97722   0.88574   0.57243   0.00000  Uiso   1.00
H791   H     0.69725   0.85198   0.58491   0.00000  Uiso   1.00
H792   H     0.69841   0.89408   0.54277   0.00000  Uiso   1.00
C793   C     0.16664   0.08735   0.83332   0.00000  Uiso   1.00
C794   C     0.16669   0.24598   0.83335   0.00000  Uiso   1.00
C795   C     0.06820   0.16564   0.82168   0.00000  Uiso   1.00
C796   C     0.26513   0.16769   0.84499   0.00000  Uiso   1.00
C797   C     0.01386   0.15895   0.81676   0.00000  Uiso   1.00
C798   C     0.31947   0.17438   0.84991   0.00000  Uiso   1.00
C799   C     0.16738   0.02129   0.79084   0.00000  Uiso   1.00
C800   C     0.16596   0.31204   0.87583   0.00000  Uiso   1.00
C801   C     0.16742   0.31206   0.79085   0.00000  Uiso   1.00
C802   C     0.16592   0.02128   0.87582   0.00000  Uiso   1.00
C803   C     0.16670   0.29059   0.83334   0.00000  Uiso   1.00
C804   C     0.16664   0.04274   0.83333   0.00000  Uiso   1.00
C805   C     0.13310   0.14259   0.68751   0.00000  Uiso   1.00
C806   C     0.20023   0.19075   0.97916   0.00000  Uiso   1.00
C807   C     0.13311   0.14260   0.97122   0.00000  Uiso   1.00
C808   C     0.20023   0.19073   0.69544   0.00000  Uiso   1.00
Cu809  Cu    0.16667   0.16667   0.88022   0.00000  Uiso   1.00
Cu810  Cu    0.16667   0.16666   0.78645   0.00000  Uiso   1.00
H811   H     0.16796   0.03731   0.75762   0.00000  Uiso   1.00
H812   H     0.16538   0.29602   0.90904   0.00000  Uiso   1.00
H813   H     0.16803   0.29605   0.75764   0.00000  Uiso   1.00
H814   H     0.16530   0.03728   0.90903   0.00000  Uiso   1.00
H815   H     0.10627   0.12324   0.70305   0.00000  Uiso   1.00
H816   H     0.22706   0.21009   0.96362   0.00000  Uiso   1.00
H817   H     0.10628   0.12329   0.94934   0.00000  Uiso   1.00
H818   H     0.22706   0.21004   0.71733   0.00000  Uiso   1.00
N819   N     0.16668   0.16668   0.95069   0.00000  Uiso   1.00
N820   N     0.16665   0.16666   0.71597   0.00000  Uiso   1.00
O821   O     0.16666   0.10655   0.87291   0.00000  Uiso   1.00
O822   O     0.16667   0.22678   0.79375   0.00000  Uiso   1.00
O823   O     0.16666   0.10654   0.79372   0.00000  Uiso   1.00
O824   O     0.16667   0.22679   0.87294   0.00000  Uiso   1.00
O825   O     0.09161   0.16667   0.86379   0.00000  Uiso   1.00
O826   O     0.24172   0.16666   0.80288   0.00000  Uiso   1.00
O827   O     0.09161   0.16666   0.78460   0.00000  Uiso   1.00
O828   O     0.24172   0.16667   0.88207   0.00000  Uiso   1.00
C829   C     0.32545   0.13031   0.77698   0.00000  Uiso   1.00
H830   H     0.02278   0.11426   0.76091   0.00000  Uiso   1.00
H831   H     0.30159   0.10592   0.79057   0.00000  Uiso   1.00
H832   H     0.30274   0.14802   0.74842   0.00000  Uiso   1.00
C833   C     0.00788   0.20303   0.88969   0.00000  Uiso   1.00
H834   H     0.31055   0.21907   0.90576   0.00000  Uiso   1.00
H835   H     0.03059   0.18531   0.91825   0.00000  Uiso   1.00
H836   H     0.03175   0.22742   0.87610   0.00000  Uiso   1.00
C837   C     0.49998   0.08735   0.83332   0.00000  Uiso   1.00
C838   C     0.50002   0.24598   0.83335   0.00000  Uiso   1.00
C839   C     0.40153   0.16564   0.82168   0.00000  Uiso   1.00
C840   C     0.59847   0.16769   0.84499   0.00000  Uiso   1.00
C841   C     0.34719   0.15895   0.81676   0.00000  Uiso   1.00
C842   C     0.65281   0.17438   0.84991   0.00000  Uiso   1.00
C843   C     0.50071   0.02129   0.79084   0.00000  Uiso   1.00
C844   C     0.49929   0.31204   0.87583   0.00000  Uiso   1.00
C845   C     0.50075   0.31206   0.79085   0.00000  Uiso   1.00
C846   C     0.49925   0.02128   0.87582   0.00000  Uiso   1.00
C847   C     0.50003   0.29059   0.83334   0.00000  Uiso   1.00
C848   C     0.49997   0.04274   0.83333   0.00000  Uiso   1.00
C849   C     0.46643   0.14259   0.68751   0.00000  Uiso   1.00
C850   C     0.53357   0.19075   0.97916   0.00000  Uiso   1.00
C851   C     0.46644   0.14260   0.97122   0.00000  Uiso   1.00
C852   C     0.53356   0.19073   0.69544   0.00000  Uiso   1.00
Cu853  Cu    0.50000   0.16667   0.88022   0.00000  Uiso   1.00
Cu854  Cu    0.50000   0.16666   0.78645   0.00000  Uiso   1.00
H855   H     0.50129   0.03731   0.75762   0.00000  Uiso   1.00
H856   H     0.49871   0.29602   0.90904   0.00000  Uiso   1.00
H857   H     0.50137   0.29605   0.75764   0.00000  Uiso   1.00
H858   H     0.49863   0.03728   0.90903   0.00000  Uiso   1.00
H859   H     0.43961   0.12324   0.70305   0.00000  Uiso   1.00
H860   H     0.56039   0.21009   0.96362   0.00000  Uiso   1.00
H861   H     0.43961   0.12329   0.94934   0.00000  Uiso   1.00
H862   H     0.56039   0.21004   0.71733   0.00000  Uiso   1.00
N863   N     0.50001   0.16668   0.95069   0.00000  Uiso   1.00
N864   N     0.49999   0.16666   0.71597   0.00000  Uiso   1.00
O865   O     0.50000   0.10655   0.87291   0.00000  Uiso   1.00
O866   O     0.50000   0.22678   0.79375   0.00000  Uiso   1.00
O867   O     0.50000   0.10654   0.79372   0.00000  Uiso   1.00
O868   O     0.50000   0.22679   0.87294   0.00000  Uiso   1.00
O869   O     0.42495   0.16667   0.86379   0.00000  Uiso   1.00
O870   O     0.57505   0.16666   0.80288   0.00000  Uiso   1.00
O871   O     0.42494   0.16666   0.78460   0.00000  Uiso   1.00
O872   O     0.57506   0.16667   0.88207   0.00000  Uiso   1.00
C873   C     0.65879   0.13031   0.77698   0.00000  Uiso   1.00
H874   H     0.35611   0.11426   0.76091   0.00000  Uiso   1.00
H875   H     0.63492   0.10592   0.79057   0.00000  Uiso   1.00
H876   H     0.63608   0.14802   0.74842   0.00000  Uiso   1.00
C877   C     0.34121   0.20303   0.88969   0.00000  Uiso   1.00
H878   H     0.64389   0.21907   0.90576   0.00000  Uiso   1.00
H879   H     0.36392   0.18531   0.91825   0.00000  Uiso   1.00
H880   H     0.36508   0.22742   0.87610   0.00000  Uiso   1.00
C881   C     0.83331   0.08735   0.83332   0.00000  Uiso   1.00
C882   C     0.83336   0.24598   0.83335   0.00000  Uiso   1.00
C883   C     0.73486   0.16564   0.82168   0.00000  Uiso   1.00
C884   C     0.93180   0.16769   0.84499   0.00000  Uiso   1.00
C885   C     0.68053   0.15895   0.81676   0.00000  Uiso   1.00
C886   C     0.98614   0.17438   0.84991   0.00000  Uiso   1.00
C887   C     0.83404   0.02129   0.79084   0.00000  Uiso   1.00
C888   C     0.83262   0.31204   0.87583   0.00000  Uiso   1.00
C889   C     0.83408   0.31206   0.79085   0.00000  Uiso   1.00
C890   C     0.83258   0.02128   0.87582   0.00000  Uiso   1.00
C891   C     0.83336   0.29059   0.83334   0.00000  Uiso   1.00
C892   C     0.83330   0.04274   0.83333   0.00000  Uiso   1.00
C893   C     0.79977   0.14259   0.68751   0.00000  Uiso   1.00
C894   C     0.86690   0.19075   0.97916   0.00000  Uiso   1.00
C895   C     0.79977   0.14260   0.97122   0.00000  Uiso   1.00
C896   C     0.86689   0.19073   0.69544   0.00000  Uiso   1.00
Cu897  Cu    0.83333   0.16667   0.88022   0.00000  Uiso   1.00
Cu898  Cu    0.83333   0.16666   0.78645   0.00000  Uiso   1.00
H899   H     0.83462   0.03731   0.75762   0.00000  Uiso   1.00
H900   H     0.83204   0.29602   0.90904   0.00000  Uiso   1.00
H901   H     0.83470   0.29605   0.75764   0.00000  Uiso   1.00
H902   H     0.83197   0.03728   0.90903   0.00000  Uiso   1.00
H903   H     0.77294   0.12324   0.70305   0.00000  Uiso   1.00
H904   H     0.89373   0.21009   0.96362   0.00000  Uiso   1.00
H905   H     0.77294   0.12329   0.94934   0.00000  Uiso   1.00
H906   H     0.89372   0.21004   0.71733   0.00000  Uiso   1.00
N907   N     0.83335   0.16668   0.95069   0.00000  Uiso   1.00
N908   N     0.83332   0.16666   0.71597   0.00000  Uiso   1.00
O909   O     0.83333   0.10655   0.87291   0.00000  Uiso   1.00
O910   O     0.83334   0.22678   0.79375   0.00000  Uiso   1.00
O911   O     0.83333   0.10654   0.79372   0.00000  Uiso   1.00
O912   O     0.83334   0.22679   0.87294   0.00000  Uiso   1.00
O913   O     0.75828   0.16667   0.86379   0.00000  Uiso   1.00
O914   O     0.90839   0.16666   0.80288   0.00000  Uiso   1.00
O915   O     0.75828   0.16666   0.78460   0.00000  Uiso   1.00
O916   O     0.90839   0.16667   0.88207   0.00000  Uiso   1.00
C917   C     0.99212   0.13031   0.77698   0.00000  Uiso   1.00
H918   H     0.68945   0.11426   0.76091   0.00000  Uiso   1.00
H919   H     0.96825   0.10592   0.79057   0.00000  Uiso   1.00
H920   H     0.96941   0.14802   0.74842   0.00000  Uiso   1.00
C921   C     0.67455   0.20303   0.88969   0.00000  Uiso   1.00
H922   H     0.97722   0.21907   0.90576   0.00000  Uiso   1.00
H923   H     0.69725   0.18531   0.91825   0.00000  Uiso   1.00
H924   H     0.69841   0.22742   0.87610   0.00000  Uiso   1.00
C925   C     0.16664   0.42069   0.83332   0.00000  Uiso   1.00
C926   C     0.16669   0.57931   0.83335   0.00000  Uiso   1.00
C927   C     0.06820   0.49897   0.82168   0.00000  Uiso   1.00
C928   C     0.26513   0.50103   0.84499   0.00000  Uiso   1.00
C929   C     0.01386   0.49228   0.81676   0.00000  Uiso   1.00
C930   C     0.31947   0.50772   0.84991   0.00000  Uiso   1.00
C931   C     0.16738   0.35463   0.79084   0.00000  Uiso   1.00
C932   C     0.16596   0.64537   0.87583   0.00000  Uiso   1.00
C933   C     0.16742   0.64539   0.79085   0.00000  Uiso   1.00
C934   C     0.16592   0.35461   0.87582   0.00000  Uiso   1.00
C935   C     0.16670   0.62393   0.83334   0.00000  Uiso   1.00
C936   C     0.16664   0.37607   0.83333   0.00000  Uiso   1.00
C937   C     0.13310   0.47592   0.68751   0.00000  Uiso   1.00
C938   C     0.20023   0.52408   0.97916   0.00000  Uiso   1.00
C939   C     0.13311   0.47594   0.97122   0.00000  Uiso   1.00
C940   C     0.20023   0.52406   0.69544   0.00000  Uiso   1.00
Cu941  Cu    0.16667   0.50001   0.88022   0.00000  Uiso   1.00
Cu942  Cu    0.16667   0.49999   0.78645   0.00000  Uiso   1.00
H943   H     0.16796   0.37065   0.75762   0.00000  Uiso   1.00
H944   H     0.16538   0.62935   0.90904   0.00000  Uiso   1.00
H945   H     0.16803   0.62939   0.75764   0.00000  Uiso   1.00
H946   H     0.16530   0.37061   0.90903   0.00000  Uiso   1.00
H947   H     0.10627   0.45658   0.70305   0.00000  Uiso   1.00
H948   H     0.22706   0.54342   0.96362   0.00000  Uiso   1.00
H949   H     0.10628   0.45662   0.94934   0.00000  Uiso   1.00
H950   H     0.22706   0.54338   0.71733   0.00000  Uiso   1.00
N951   N     0.16668   0.50001   0.95069   0.00000  Uiso   1.00
N952   N     0.16665   0.49999   0.71597   0.00000  Uiso   1.00
O953   O     0.16666   0.43989   0.87291   0.00000  Uiso   1.00
O954   O     0.16667   0.56011   0.79375   0.00000  Uiso   1.00
O955   O     0.16666   0.43988   0.79372   0.00000  Uiso   1.00
O956   O     0.16667   0.56012   0.87294   0.00000  Uiso   1.00
O957   O     0.09161   0.50000   0.86379   0.00000  Uiso   1.00
O958   O     0.24172   0.50000   0.80288   0.00000  Uiso   1.00
O959   O     0.09161   0.49999   0.78460   0.00000  Uiso   1.00
O960   O     0.24172   0.50001   0.88207   0.00000  Uiso   1.00
C961   C     0.32545   0.46364   0.77698   0.00000  Uiso   1.00
H962   H     0.02278   0.44760   0.76091   0.00000  Uiso   1.00
H963   H     0.30159   0.43925   0.79057   0.00000  Uiso   1.00
H964   H     0.30274   0.48135   0.74842   0.00000  Uiso   1.00
C965   C     0.00788   0.53636   0.88969   0.00000  Uiso   1.00
H966   H     0.31055   0.55240   0.90576   0.00000  Uiso   1.00
H967   H     0.03059   0.51865   0.91825   0.00000  Uiso   1.00
H968   H     0.03175   0.56075   0.87610   0.00000  Uiso   1.00
C969   C     0.49998   0.42069   0.83332   0.00000  Uiso   1.00
C970   C     0.50002   0.57931   0.83335   0.00000  Uiso   1.00
C971   C     0.40153   0.49897   0.82168   0.00000  Uiso   1.00
C972   C     0.59847   0.50103   0.84499   0.00000  Uiso   1.00
C973   C     0.34719   0.49228   0.81676   0.00000  Uiso   1.00
C974   C     0.65281   0.50772   0.84991   0.00000  Uiso   1.00
C975   C     0.50071   0.35463   0.79084   0.00000  Uiso   1.00
C976   C     0.49929   0.64537   0.87583   0.00000  Uiso   1.00
C977   C     0.50075   0.64539   0.79085   0.00000  Uiso   1.00
C978   C     0.49925   0.35461   0.87582   0.00000  Uiso   1.00
C979   C     0.50003   0.62393   0.83334   0.00000  Uiso   1.00
C980   C     0.49997   0.37607   0.83333   0.00000  Uiso   1.00
C981   C     0.46643   0.47592   0.68751   0.00000  Uiso   1.00
C982   C     0.53357   0.52408   0.97916   0.00000  Uiso   1.00
C983   C     0.46644   0.47594   0.97122   0.00000  Uiso   1.00
C984   C     0.53356   0.52406   0.69544   0.00000  Uiso   1.00
Cu985  Cu    0.50000   0.50001   0.88022   0.00000  Uiso   1.00
Cu986  Cu    0.50000   0.49999   0.78645   0.00000  Uiso   1.00
H987   H     0.50129   0.37065   0.75762   0.00000  Uiso   1.00
H988   H     0.49871   0.62935   0.90904   0.00000  Uiso   1.00
H989   H     0.50137   0.62939   0.75764   0.00000  Uiso   1.00
H990   H     0.49863   0.37061   0.90903   0.00000  Uiso   1.00
H991   H     0.43961   0.45658   0.70305   0.00000  Uiso   1.00
H992   H     0.56039   0.54342   0.96362   0.00000  Uiso   1.00
H993   H     0.43961   0.45662   0.94934   0.00000  Uiso   1.00
H994   H     0.56039   0.54338   0.71733   0.00000  Uiso   1.00
N995   N     0.50001   0.50001   0.95069   0.00000  Uiso   1.00
N996   N     0.49999   0.49999   0.71597   0.00000  Uiso   1.00
O997   O     0.50000   0.43989   0.87291   0.00000  Uiso   1.00
O998   O     0.50000   0.56011   0.79375   0.00000  Uiso   1.00
O999   O     0.50000   0.43988   0.79372   0.00000  Uiso   1.00
O1000  O     0.50000   0.56012   0.87294   0.00000  Uiso   1.00
O1001  O     0.42495   0.50000   0.86379   0.00000  Uiso   1.00
O1002  O     0.57505   0.50000   0.80288   0.00000  Uiso   1.00
O1003  O     0.42494   0.49999   0.78460   0.00000  Uiso   1.00
O1004  O     0.57506   0.50001   0.88207   0.00000  Uiso   1.00
C1005  C     0.65879   0.46364   0.77698   0.00000  Uiso   1.00
H1006  H     0.35611   0.44760   0.76091   0.00000  Uiso   1.00
H1007  H     0.63492   0.43925   0.79057   0.00000  Uiso   1.00
H1008  H     0.63608   0.48135   0.74842   0.00000  Uiso   1.00
C1009  C     0.34121   0.53636   0.88969   0.00000  Uiso   1.00
H1010  H     0.64389   0.55240   0.90576   0.00000  Uiso   1.00
H1011  H     0.36392   0.51865   0.91825   0.00000  Uiso   1.00
H1012  H     0.36508   0.56075   0.87610   0.00000  Uiso   1.00
C1013  C     0.83331   0.42069   0.83332   0.00000  Uiso   1.00
C1014  C     0.83336   0.57931   0.83335   0.00000  Uiso   1.00
C1015  C     0.73486   0.49897   0.82168   0.00000  Uiso   1.00
C1016  C     0.93180   0.50103   0.84499   0.00000  Uiso   1.00
C1017  C     0.68053   0.49228   0.81676   0.00000  Uiso   1.00
C1018  C     0.98614   0.50772   0.84991   0.00000  Uiso   1.00
C1019  C     0.83404   0.35463   0.79084   0.00000  Uiso   1.00
C1020  C     0.83262   0.64537   0.87583   0.00000  Uiso   1.00
C1021  C     0.83408   0.64539   0.79085   0.00000  Uiso   1.00
C1022  C     0.83258   0.35461   0.87582   0.00000  Uiso   1.00
C1023  C     0.83336   0.62393   0.83334   0.00000  Uiso   1.00
C1024  C     0.83330   0.37607   0.83333   0.00000  Uiso   1.00
C1025  C     0.79977   0.47592   0.68751   0.00000  Uiso   1.00
C1026  C     0.86690   0.52408   0.97916   0.00000  Uiso   1.00
C1027  C     0.79977   0.47594   0.97122   0.00000  Uiso   1.00
C1028  C     0.86689   0.52406   0.69544   0.00000  Uiso   1.00
Cu1029 Cu    0.83333   0.50001   0.88022   0.00000  Uiso   1.00
Cu1030 Cu    0.83333   0.49999   0.78645   0.00000  Uiso   1.00
H1031  H     0.83462   0.37065   0.75762   0.00000  Uiso   1.00
H1032  H     0.83204   0.62935   0.90904   0.00000  Uiso   1.00
H1033  H     0.83470   0.62939   0.75764   0.00000  Uiso   1.00
H1034  H     0.83197   0.37061   0.90903   0.00000  Uiso   1.00
H1035  H     0.77294   0.45658   0.70305   0.00000  Uiso   1.00
H1036  H     0.89373   0.54342   0.96362   0.00000  Uiso   1.00
H1037  H     0.77294   0.45662   0.94934   0.00000  Uiso   1.00
H1038  H     0.89372   0.54338   0.71733   0.00000  Uiso   1.00
N1039  N     0.83335   0.50001   0.95069   0.00000  Uiso   1.00
N1040  N     0.83332   0.49999   0.71597   0.00000  Uiso   1.00
O1041  O     0.83333   0.43989   0.87291   0.00000  Uiso   1.00
O1042  O     0.83334   0.56011   0.79375   0.00000  Uiso   1.00
O1043  O     0.83333   0.43988   0.79372   0.00000  Uiso   1.00
O1044  O     0.83334   0.56012   0.87294   0.00000  Uiso   1.00
O1045  O     0.75828   0.50000   0.86379   0.00000  Uiso   1.00
O1046  O     0.90839   0.50000   0.80288   0.00000  Uiso   1.00
O1047  O     0.75828   0.49999   0.78460   0.00000  Uiso   1.00
O1048  O     0.90839   0.50001   0.88207   0.00000  Uiso   1.00
C1049  C     0.99212   0.46364   0.77698   0.00000  Uiso   1.00
H1050  H     0.68945   0.44760   0.76091   0.00000  Uiso   1.00
H1051  H     0.96825   0.43925   0.79057   0.00000  Uiso   1.00
H1052  H     0.96941   0.48135   0.74842   0.00000  Uiso   1.00
C1053  C     0.67455   0.53636   0.88969   0.00000  Uiso   1.00
H1054  H     0.97722   0.55240   0.90576   0.00000  Uiso   1.00
H1055  H     0.69725   0.51865   0.91825   0.00000  Uiso   1.00
H1056  H     0.69841   0.56075   0.87610   0.00000  Uiso   1.00
C1057  C     0.16664   0.75402   0.83332   0.00000  Uiso   1.00
C1058  C     0.16669   0.91265   0.83335   0.00000  Uiso   1.00
C1059  C     0.06820   0.83231   0.82168   0.00000  Uiso   1.00
C1060  C     0.26513   0.83436   0.84499   0.00000  Uiso   1.00
C1061  C     0.01386   0.82562   0.81676   0.00000  Uiso   1.00
C1062  C     0.31947   0.84105   0.84991   0.00000  Uiso   1.00
C1063  C     0.16738   0.68796   0.79084   0.00000  Uiso   1.00
C1064  C     0.16596   0.97871   0.87583   0.00000  Uiso   1.00
C1065  C     0.16742   0.97872   0.79085   0.00000  Uiso   1.00
C1066  C     0.16592   0.68794   0.87582   0.00000  Uiso   1.00
C1067  C     0.16670   0.95726   0.83334   0.00000  Uiso   1.00
C1068  C     0.16664   0.70941   0.83333   0.00000  Uiso   1.00
C1069  C     0.13310   0.80925   0.68751   0.00000  Uiso   1.00
C1070  C     0.20023   0.85741   0.97916   0.00000  Uiso   1.00
C1071  C     0.13311   0.80927   0.97122   0.00000  Uiso   1.00
C1072  C     0.20023   0.85740   0.69544   0.00000  Uiso   1.00
Cu1073 Cu    0.16667   0.83334   0.88022   0.00000  Uiso   1.00
Cu1074 Cu    0.16667   0.83333   0.78645   0.00000  Uiso   1.00
H1075  H     0.16796   0.70398   0.75762   0.00000  Uiso   1.00
H1076  H     0.16538   0.96269   0.90904   0.00000  Uiso   1.00
H1077  H     0.16803   0.96272   0.75764   0.00000  Uiso   1.00
H1078  H     0.16530   0.70395   0.90903   0.00000  Uiso   1.00
H1079  H     0.10627   0.78991   0.70305   0.00000  Uiso   1.00
H1080  H     0.22706   0.87676   0.96362   0.00000  Uiso   1.00
H1081  H     0.10628   0.78996   0.94934   0.00000  Uiso   1.00
H1082  H     0.22706   0.87671   0.71733   0.00000  Uiso   1.00
N1083  N     0.16668   0.83334   0.95069   0.00000  Uiso   1.00
N1084  N     0.16665   0.83332   0.71597   0.00000  Uiso   1.00
O1085  O     0.16666   0.77322   0.87291   0.00000  Uiso   1.00
O1086  O     0.16667   0.89345   0.79375   0.00000  Uiso   1.00
O1087  O     0.16666   0.77321   0.79372   0.00000  Uiso   1.00
O1088  O     0.16667   0.89346   0.87294   0.00000  Uiso   1.00
O1089  O     0.09161   0.83334   0.86379   0.00000  Uiso   1.00
O1090  O     0.24172   0.83333   0.80288   0.00000  Uiso   1.00
O1091  O     0.09161   0.83333   0.78460   0.00000  Uiso   1.00
O1092  O     0.24172   0.83334   0.88207   0.00000  Uiso   1.00
C1093  C     0.32545   0.79697   0.77698   0.00000  Uiso   1.00
H1094  H     0.02278   0.78093   0.76091   0.00000  Uiso   1.00
H1095  H     0.30159   0.77258   0.79057   0.00000  Uiso   1.00
H1096  H     0.30274   0.81469   0.74842   0.00000  Uiso   1.00
C1097  C     0.00788   0.86969   0.88969   0.00000  Uiso   1.00
H1098  H     0.31055   0.88574   0.90576   0.00000  Uiso   1.00
H1099  H     0.03059   0.85198   0.91825   0.00000  Uiso   1.00
H1100  H     0.03175   0.89408   0.87610   0.00000  Uiso   1.00
C1101  C     0.49998   0.75402   0.83332   0.00000  Uiso   1.00
C1102  C     0.50002   0.91265   0.83335   0.00000  Uiso   1.00
C1103  C     0.40153   0.83231   0.82168   0.00000  Uiso   1.00
C1104  C     0.59847   0.83436   0.84499   0.00000  Uiso   1.00
C1105  C     0.34719   0.82562   0.81676   0.00000  Uiso   1.00
C1106  C     0.65281   0.84105   0.84991   0.00000  Uiso   1.00
C1107  C     0.50071   0.68796   0.79084   0.00000  Uiso   1.00
C1108  C     0.49929   0.97871   0.87583   0.00000  Uiso   1.00
C1109  C     0.50075   0.97872   0.79085   0.00000  Uiso   1.00
C1110  C     0.49925   0.68794   0.87582   0.00000  Uiso   1.00
C1111  C     0.50003   0.95726   0.83334   0.00000  Uiso   1.00
C1112  C     0.49997   0.70941   0.83333   0.00000  Uiso   1.00
C1113  C     0.46643   0.80925   0.68751   0.00000  Uiso   1.00
C1114  C     0.53357   0.85741   0.97916   0.00000  Uiso   1.00
C1115  C     0.46644   0.80927   0.97122   0.00000  Uiso   1.00
C1116  C     0.53356   0.85740   0.69544   0.00000  Uiso   1.00
Cu1117 Cu    0.50000   0.83334   0.88022   0.00000  Uiso   1.00
Cu1118 Cu    0.50000   0.83333   0.78645   0.00000  Uiso   1.00
H1119  H     0.50129   0.70398   0.75762   0.00000  Uiso   1.00
H1120  H     0.49871   0.96269   0.90904   0.00000  Uiso   1.00
H1121  H     0.50137   0.96272   0.75764   0.00000  Uiso   1.00
H1122  H     0.49863   0.70395   0.90903   0.00000  Uiso   1.00
H1123  H     0.43961   0.78991   0.70305   0.00000  Uiso   1.00
H1124  H     0.56039   0.87676   0.96362   0.00000  Uiso   1.00
H1125  H     0.43961   0.78996   0.94934   0.00000  Uiso   1.00
H1126  H     0.56039   0.87671   0.71733   0.00000  Uiso   1.00
N1127  N     0.50001   0.83334   0.95069   0.00000  Uiso   1.00
N1128  N     0.49999   0.83332   0.71597   0.00000  Uiso   1.00
O1129  O     0.50000   0.77322   0.87291   0.00000  Uiso   1.00
O1130  O     0.50000   0.89345   0.79375   0.00000  Uiso   1.00
O1131  O     0.50000   0.77321   0.79372   0.00000  Uiso   1.00
O1132  O     0.50000   0.89346   0.87294   0.00000  Uiso   1.00
O1133  O     0.42495   0.83334   0.86379   0.00000  Uiso   1.00
O1134  O     0.57505   0.83333   0.80288   0.00000  Uiso   1.00
O1135  O     0.42494   0.83333   0.78460   0.00000  Uiso   1.00
O1136  O     0.57506   0.83334   0.88207   0.00000  Uiso   1.00
C1137  C     0.65879   0.79697   0.77698   0.00000  Uiso   1.00
H1138  H     0.35611   0.78093   0.76091   0.00000  Uiso   1.00
H1139  H     0.63492   0.77258   0.79057   0.00000  Uiso   1.00
H1140  H     0.63608   0.81469   0.74842   0.00000  Uiso   1.00
C1141  C     0.34121   0.86969   0.88969   0.00000  Uiso   1.00
H1142  H     0.64389   0.88574   0.90576   0.00000  Uiso   1.00
H1143  H     0.36392   0.85198   0.91825   0.00000  Uiso   1.00
H1144  H     0.36508   0.89408   0.87610   0.00000  Uiso   1.00
C1145  C     0.83331   0.75402   0.83332   0.00000  Uiso   1.00
C1146  C     0.83336   0.91265   0.83335   0.00000  Uiso   1.00
C1147  C     0.73486   0.83231   0.82168   0.00000  Uiso   1.00
C1148  C     0.93180   0.83436   0.84499   0.00000  Uiso   1.00
C1149  C     0.68053   0.82562   0.81676   0.00000  Uiso   1.00
C1150  C     0.98614   0.84105   0.84991   0.00000  Uiso   1.00
C1151  C     0.83404   0.68796   0.79084   0.00000  Uiso   1.00
C1152  C     0.83262   0.97871   0.87583   0.00000  Uiso   1.00
C1153  C     0.83408   0.97872   0.79085   0.00000  Uiso   1.00
C1154  C     0.83258   0.68794   0.87582   0.00000  Uiso   1.00
C1155  C     0.83336   0.95726   0.83334   0.00000  Uiso   1.00
C1156  C     0.83330   0.70941   0.83333   0.00000  Uiso   1.00
C1157  C     0.79977   0.80925   0.68751   0.00000  Uiso   1.00
C1158  C     0.86690   0.85741   0.97916   0.00000  Uiso   1.00
C1159  C     0.79977   0.80927   0.97122   0.00000  Uiso   1.00
C1160  C     0.86689   0.85740   0.69544   0.00000  Uiso   1.00
Cu1161 Cu    0.83333   0.83334   0.88022   0.00000  Uiso   1.00
Cu1162 Cu    0.83333   0.83333   0.78645   0.00000  Uiso   1.00
H1163  H     0.83462   0.70398   0.75762   0.00000  Uiso   1.00
H1164  H     0.83204   0.96269   0.90904   0.00000  Uiso   1.00
H1165  H     0.83470   0.96272   0.75764   0.00000  Uiso   1.00
H1166  H     0.83197   0.70395   0.90903   0.00000  Uiso   1.00
H1167  H     0.77294   0.78991   0.70305   0.00000  Uiso   1.00
H1168  H     0.89373   0.87676   0.96362   0.00000  Uiso   1.00
H1169  H     0.77294   0.78996   0.94934   0.00000  Uiso   1.00
H1170  H     0.89372   0.87671   0.71733   0.00000  Uiso   1.00
N1171  N     0.83335   0.83334   0.95069   0.00000  Uiso   1.00
N1172  N     0.83332   0.83332   0.71597   0.00000  Uiso   1.00
O1173  O     0.83333   0.77322   0.87291   0.00000  Uiso   1.00
O1174  O     0.83334   0.89345   0.79375   0.00000  Uiso   1.00
O1175  O     0.83333   0.77321   0.79372   0.00000  Uiso   1.00
O1176  O     0.83334   0.89346   0.87294   0.00000  Uiso   1.00
O1177  O     0.75828   0.83334   0.86379   0.00000  Uiso   1.00
O1178  O     0.90839   0.83333   0.80288   0.00000  Uiso   1.00
O1179  O     0.75828   0.83333   0.78460   0.00000  Uiso   1.00
O1180  O     0.90839   0.83334   0.88207   0.00000  Uiso   1.00
C1181  C     0.99212   0.79697   0.77698   0.00000  Uiso   1.00
H1182  H     0.68945   0.78093   0.76091   0.00000  Uiso   1.00
H1183  H     0.96825   0.77258   0.79057   0.00000  Uiso   1.00
H1184  H     0.96941   0.81469   0.74842   0.00000  Uiso   1.00
C1185  C     0.67455   0.86969   0.88969   0.00000  Uiso   1.00
H1186  H     0.97722   0.88574   0.90576   0.00000  Uiso   1.00
H1187  H     0.69725   0.85198   0.91825   0.00000  Uiso   1.00
H1188  H     0.69841   0.89408   0.87610   0.00000  Uiso   1.00
loop_
_geom_bond_atom_site_label_1
_geom_bond_atom_site_label_2
_geom_bond_distance
_geom_bond_site_symmetry_2
_ccdc_geom_bond_type
C1     O29     1.291   .     A
C1     C12     1.450   .     S
C1     O31     1.291   .     A
C2     O30     1.291   .     A
C2     C11     1.450   .     S
C2     O32     1.291   .     A
C3     O35     1.292   .     A
C3     O33     1.280   .     A
C3     C5      1.439   .     S
C4     O36     1.292   .     A
C4     C6      1.439   .     S
C4     O34     1.280   .     A
C5     C94     1.364   1_455 S
C5     C125    1.522   1_455 S
C6     C49     1.364   .     S
C6     C85     1.522   .     S
C7     C12     1.401   .     A
C7     H19     1.083   .     S
C7     C273    1.383   1_545 S
C8     H20     1.083   .     S
C8     C11     1.401   .     A
C8     C142    1.383   .     S
C9     C11     1.401   .     A
C9     H21     1.083   .     S
C9     C139    1.383   .     S
C10    H22     1.083   .     S
C10    C12     1.401   .     A
C10    C272    1.383   1_545 S
C13    N28     1.367   .     A
C13    H23     1.082   .     S
C13    C807    1.416   1_554 S
C14    N27     1.367   .     A
C14    H24     1.082   .     S
C14    C412    1.416   .     S
C15    N27     1.367   .     A
C15    H25     1.082   .     S
C15    C409    1.416   .     S
C16    N28     1.367   .     A
C16    H26     1.082   .     S
C16    C806    1.416   1_554 S
Cu17   O36     1.975   .     S
Cu17   Cu18    2.676   .     S
Cu17   O33     1.977   .     S
Cu17   N27     2.011   .     S
Cu17   O29     1.965   .     S
Cu17   O32     1.965   .     S
Cu18   O30     1.965   .     S
Cu18   O35     1.975   .     S
Cu18   N28     2.011   .     S
Cu18   O34     1.977   .     S
Cu18   O31     1.965   .     S
C37    H39     1.111   .     S
C37    H40     1.110   .     S
C37    C49     1.522   .     S
C37    H82     1.111   .     S
H38    C125    1.111   1_455 S
C41    H43     1.110   .     S
C41    H44     1.111   .     S
C41    C94     1.522   1_455 S
C41    H130    1.111   1_455 S
H42    C85     1.111   .     S
C45    O73     1.291   .     A
C45    C56     1.450   .     S
C45    O75     1.291   .     A
C46    O74     1.291   .     A
C46    C55     1.450   .     S
C46    O76     1.291   .     A
C47    O79     1.292   .     A
C47    O77     1.280   .     A
C47    C49     1.439   .     S
C48    O80     1.292   .     A
C48    C50     1.439   .     S
C48    O78     1.280   .     A
C50    C93     1.364   .     S
C50    C129    1.522   .     S
C51    C56     1.401   .     A
C51    H63     1.083   .     S
C51    C317    1.383   1_545 S
C52    H64     1.083   .     S
C52    C55     1.401   .     A
C52    C186    1.383   .     S
C53    C55     1.401   .     A
C53    H65     1.083   .     S
C53    C183    1.383   .     S
C54    H66     1.083   .     S
C54    C56     1.401   .     A
C54    C316    1.383   1_545 S
C57    N72     1.367   .     A
C57    H67     1.082   .     S
C57    C851    1.416   1_554 S
C58    N71     1.367   .     A
C58    H68     1.082   .     S
C58    C456    1.416   .     S
C59    N71     1.367   .     A
C59    H69     1.082   .     S
C59    C453    1.416   .     S
C60    N72     1.367   .     A
C60    H70     1.082   .     S
C60    C850    1.416   1_554 S
Cu61   O80     1.975   .     S
Cu61   Cu62    2.676   .     S
Cu61   O77     1.977   .     S
Cu61   N71     2.011   .     S
Cu61   O73     1.965   .     S
Cu61   O76     1.965   .     S
Cu62   O74     1.965   .     S
Cu62   O79     1.975   .     S
Cu62   N72     2.011   .     S
Cu62   O78     1.977   .     S
Cu62   O75     1.965   .     S
C81    H83     1.111   .     S
C81    H84     1.110   .     S
C81    C93     1.522   .     S
C81    H126    1.111   .     S
C85    H87     1.110   .     S
C85    H88     1.111   .     S
H86    C129    1.111   .     S
C89    O117    1.291   .     A
C89    C100    1.450   .     S
C89    O119    1.291   .     A
C90    O118    1.291   .     A
C90    C99     1.450   .     S
C90    O120    1.291   .     A
C91    O123    1.292   .     A
C91    O121    1.280   .     A
C91    C93     1.439   .     S
C92    O124    1.292   .     A
C92    C94     1.439   .     S
C92    O122    1.280   .     A
C94    C5      1.364   1_655 S
C94    C41     1.522   1_655 S
C95    C100    1.401   .     A
C95    H107    1.083   .     S
C95    C361    1.383   1_545 S
C96    H108    1.083   .     S
C96    C99     1.401   .     A
C96    C230    1.383   .     S
C97    C99     1.401   .     A
C97    H109    1.083   .     S
C97    C227    1.383   .     S
C98    H110    1.083   .     S
C98    C100    1.401   .     A
C98    C360    1.383   1_545 S
C101   N116    1.367   .     A
C101   H111    1.082   .     S
C101   C895    1.416   1_554 S
C102   N115    1.367   .     A
C102   H112    1.082   .     S
C102   C500    1.416   .     S
C103   N115    1.367   .     A
C103   H113    1.082   .     S
C103   C497    1.416   .     S
C104   N116    1.367   .     A
C104   H114    1.082   .     S
C104   C894    1.416   1_554 S
Cu105  O124    1.975   .     S
Cu105  Cu106   2.676   .     S
Cu105  O121    1.977   .     S
Cu105  N115    2.011   .     S
Cu105  O117    1.965   .     S
Cu105  O120    1.965   .     S
Cu106  O118    1.965   .     S
Cu106  O123    1.975   .     S
Cu106  N116    2.011   .     S
Cu106  O122    1.977   .     S
Cu106  O119    1.965   .     S
C125   H127    1.111   .     S
C125   H128    1.110   .     S
C125   C5      1.522   1_655 S
C125   H38     1.111   1_655 S
C129   H131    1.110   .     S
C129   H132    1.111   .     S
H130   C41     1.111   1_655 S
C133   O161    1.291   .     A
C133   C144    1.450   .     S
C133   O163    1.291   .     A
C134   O162    1.291   .     A
C134   C143    1.450   .     S
C134   O164    1.291   .     A
C135   O167    1.292   .     A
C135   O165    1.280   .     A
C135   C137    1.439   .     S
C136   O168    1.292   .     A
C136   C138    1.439   .     S
C136   O166    1.280   .     A
C137   C226    1.364   1_455 S
C137   C257    1.522   1_455 S
C138   C181    1.364   .     S
C138   C217    1.522   .     S
C139   C144    1.401   .     A
C139   H151    1.083   .     S
C140   H152    1.083   .     S
C140   C143    1.401   .     A
C140   C274    1.383   .     S
C141   C143    1.401   .     A
C141   H153    1.083   .     S
C141   C271    1.383   .     S
C142   H154    1.083   .     S
C142   C144    1.401   .     A
C145   N160    1.367   .     A
C145   H155    1.082   .     S
C145   C939    1.416   1_554 S
C146   N159    1.367   .     A
C146   H156    1.082   .     S
C146   C544    1.416   .     S
C147   N159    1.367   .     A
C147   H157    1.082   .     S
C147   C541    1.416   .     S
C148   N160    1.367   .     A
C148   H158    1.082   .     S
C148   C938    1.416   1_554 S
Cu149  O168    1.975   .     S
Cu149  Cu150   2.676   .     S
Cu149  O165    1.977   .     S
Cu149  N159    2.011   .     S
Cu149  O161    1.965   .     S
Cu149  O164    1.965   .     S
Cu150  O162    1.965   .     S
Cu150  O167    1.975   .     S
Cu150  N160    2.011   .     S
Cu150  O166    1.977   .     S
Cu150  O163    1.965   .     S
C169   H171    1.111   .     S
C169   H172    1.110   .     S
C169   C181    1.522   .     S
C169   H214    1.111   .     S
H170   C257    1.111   1_455 S
C173   H175    1.110   .     S
C173   H176    1.111   .     S
C173   C226    1.522   1_455 S
C173   H262    1.111   1_455 S
H174   C217    1.111   .     S
C177   O205    1.291   .     A
C177   C188    1.450   .     S
C177   O207    1.291   .     A
C178   O206    1.291   .     A
C178   C187    1.450   .     S
C178   O208    1.291   .     A
C179   O211    1.292   .     A
C179   O209    1.280   .     A
C179   C181    1.439   .     S
C180   O212    1.292   .     A
C180   C182    1.439   .     S
C180   O210    1.280   .     A
C182   C225    1.364   .     S
C182   C261    1.522   .     S
C183   C188    1.401   .     A
C183   H195    1.083   .     S
C184   H196    1.083   .     S
C184   C187    1.401   .     A
C184   C318    1.383   .     S
C185   C187    1.401   .     A
C185   H197    1.083   .     S
C185   C315    1.383   .     S
C186   H198    1.083   .     S
C186   C188    1.401   .     A
C189   N204    1.367   .     A
C189   H199    1.082   .     S
C189   C983    1.416   1_554 S
C190   N203    1.367   .     A
C190   H200    1.082   .     S
C190   C588    1.416   .     S
C191   N203    1.367   .     A
C191   H201    1.082   .     S
C191   C585    1.416   .     S
C192   N204    1.367   .     A
C192   H202    1.082   .     S
C192   C982    1.416   1_554 S
Cu193  O212    1.975   .     S
Cu193  Cu194   2.676   .     S
Cu193  O209    1.977   .     S
Cu193  N203    2.011   .     S
Cu193  O205    1.965   .     S
Cu193  O208    1.965   .     S
Cu194  O206    1.965   .     S
Cu194  O211    1.975   .     S
Cu194  N204    2.011   .     S
Cu194  O210    1.977   .     S
Cu194  O207    1.965   .     S
C213   H215    1.111   .     S
C213   H216    1.110   .     S
C213   C225    1.522   .     S
C213   H258    1.111   .     S
C217   H219    1.110   .     S
C217   H220    1.111   .     S
H218   C261    1.111   .     S
C221   O249    1.291   .     A
C221   C232    1.450   .     S
C221   O251    1.291   .     A
C222   O250    1.291   .     A
C222   C231    1.450   .     S
C222   O252    1.291   .     A
C223   O255    1.292   .     A
C223   O253    1.280   .     A
C223   C225    1.439   .     S
C224   O256    1.292   .     A
C224   C226    1.439   .     S
C224   O254    1.280   .     A
C226   C137    1.364   1_655 S
C226   C173    1.522   1_655 S
C227   C232    1.401   .     A
C227   H239    1.083   .     S
C228   H240    1.083   .     S
C228   C231    1.401   .     A
C228   C362    1.383   .     S
C229   C231    1.401   .     A
C229   H241    1.083   .     S
C229   C359    1.383   .     S
C230   H242    1.083   .     S
C230   C232    1.401   .     A
C233   N248    1.367   .     A
C233   H243    1.082   .     S
C233   C1027   1.416   1_554 S
C234   N247    1.367   .     A
C234   H244    1.082   .     S
C234   C632    1.416   .     S
C235   N247    1.367   .     A
C235   H245    1.082   .     S
C235   C629    1.416   .     S
C236   N248    1.367   .     A
C236   H246    1.082   .     S
C236   C1026   1.416   1_554 S
Cu237  O256    1.975   .     S
Cu237  Cu238   2.676   .     S
Cu237  O253    1.977   .     S
Cu237  N247    2.011   .     S
Cu237  O249    1.965   .     S
Cu237  O252    1.965   .     S
Cu238  O250    1.965   .     S
Cu238  O255    1.975   .     S
Cu238  N248    2.011   .     S
Cu238  O254    1.977   .     S
Cu238  O251    1.965   .     S
C257   H259    1.111   .     S
C257   H260    1.110   .     S
C257   C137    1.522   1_655 S
C257   H170    1.111   1_655 S
C261   H263    1.110   .     S
C261   H264    1.111   .     S
H262   C173    1.111   1_655 S
C265   O293    1.291   .     A
C265   C276    1.450   .     S
C265   O295    1.291   .     A
C266   O294    1.291   .     A
C266   C275    1.450   .     S
C266   O296    1.291   .     A
C267   O299    1.292   .     A
C267   O297    1.280   .     A
C267   C269    1.439   .     S
C268   O300    1.292   .     A
C268   C270    1.439   .     S
C268   O298    1.280   .     A
C269   C358    1.364   1_455 S
C269   C389    1.522   1_455 S
C270   C313    1.364   .     S
C270   C349    1.522   .     S
C271   C276    1.401   .     A
C271   H283    1.083   .     S
C272   H284    1.083   .     S
C272   C275    1.401   .     A
C272   C10     1.383   1_565 S
C273   C275    1.401   .     A
C273   H285    1.083   .     S
C273   C7      1.383   1_565 S
C274   H286    1.083   .     S
C274   C276    1.401   .     A
C277   N292    1.367   .     A
C277   H287    1.082   .     S
C277   C1071   1.416   1_554 S
C278   N291    1.367   .     A
C278   H288    1.082   .     S
C278   C676    1.416   .     S
C279   N291    1.367   .     A
C279   H289    1.082   .     S
C279   C673    1.416   .     S
C280   N292    1.367   .     A
C280   H290    1.082   .     S
C280   C1070   1.416   1_554 S
Cu281  O300    1.975   .     S
Cu281  Cu282   2.676   .     S
Cu281  O297    1.977   .     S
Cu281  N291    2.011   .     S
Cu281  O293    1.965   .     S
Cu281  O296    1.965   .     S
Cu282  O294    1.965   .     S
Cu282  O299    1.975   .     S
Cu282  N292    2.011   .     S
Cu282  O298    1.977   .     S
Cu282  O295    1.965   .     S
C301   H303    1.111   .     S
C301   H304    1.110   .     S
C301   C313    1.522   .     S
C301   H346    1.111   .     S
H302   C389    1.111   1_455 S
C305   H307    1.110   .     S
C305   H308    1.111   .     S
C305   C358    1.522   1_455 S
C305   H394    1.111   1_455 S
H306   C349    1.111   .     S
C309   O337    1.291   .     A
C309   C320    1.450   .     S
C309   O339    1.291   .     A
C310   O338    1.291   .     A
C310   C319    1.450   .     S
C310   O340    1.291   .     A
C311   O343    1.292   .     A
C311   O341    1.280   .     A
C311   C313    1.439   .     S
C312   O344    1.292   .     A
C312   C314    1.439   .     S
C312   O342    1.280   .     A
C314   C357    1.364   .     S
C314   C393    1.522   .     S
C315   C320    1.401   .     A
C315   H327    1.083   .     S
C316   H328    1.083   .     S
C316   C319    1.401   .     A
C316   C54     1.383   1_565 S
C317   C319    1.401   .     A
C317   H329    1.083   .     S
C317   C51     1.383   1_565 S
C318   H330    1.083   .     S
C318   C320    1.401   .     A
C321   N336    1.367   .     A
C321   H331    1.082   .     S
C321   C1115   1.416   1_554 S
C322   N335    1.367   .     A
C322   H332    1.082   .     S
C322   C720    1.416   .     S
C323   N335    1.367   .     A
C323   H333    1.082   .     S
C323   C717    1.416   .     S
C324   N336    1.367   .     A
C324   H334    1.082   .     S
C324   C1114   1.416   1_554 S
Cu325  O344    1.975   .     S
Cu325  Cu326   2.676   .     S
Cu325  O341    1.977   .     S
Cu325  N335    2.011   .     S
Cu325  O337    1.965   .     S
Cu325  O340    1.965   .     S
Cu326  O338    1.965   .     S
Cu326  O343    1.975   .     S
Cu326  N336    2.011   .     S
Cu326  O342    1.977   .     S
Cu326  O339    1.965   .     S
C345   H347    1.111   .     S
C345   H348    1.110   .     S
C345   C357    1.522   .     S
C345   H390    1.111   .     S
C349   H351    1.110   .     S
C349   H352    1.111   .     S
H350   C393    1.111   .     S
C353   O381    1.291   .     A
C353   C364    1.450   .     S
C353   O383    1.291   .     A
C354   O382    1.291   .     A
C354   C363    1.450   .     S
C354   O384    1.291   .     A
C355   O387    1.292   .     A
C355   O385    1.280   .     A
C355   C357    1.439   .     S
C356   O388    1.292   .     A
C356   C358    1.439   .     S
C356   O386    1.280   .     A
C358   C269    1.364   1_655 S
C358   C305    1.522   1_655 S
C359   C364    1.401   .     A
C359   H371    1.083   .     S
C360   H372    1.083   .     S
C360   C363    1.401   .     A
C360   C98     1.383   1_565 S
C361   C363    1.401   .     A
C361   H373    1.083   .     S
C361   C95     1.383   1_565 S
C362   H374    1.083   .     S
C362   C364    1.401   .     A
C365   N380    1.367   .     A
C365   H375    1.082   .     S
C365   C1159   1.416   1_554 S
C366   N379    1.367   .     A
C366   H376    1.082   .     S
C366   C764    1.416   .     S
C367   N379    1.367   .     A
C367   H377    1.082   .     S
C367   C761    1.416   .     S
C368   N380    1.367   .     A
C368   H378    1.082   .     S
C368   C1158   1.416   1_554 S
Cu369  O388    1.975   .     S
Cu369  Cu370   2.676   .     S
Cu369  O385    1.977   .     S
Cu369  N379    2.011   .     S
Cu369  O381    1.965   .     S
Cu369  O384    1.965   .     S
Cu370  O382    1.965   .     S
Cu370  O387    1.975   .     S
Cu370  N380    2.011   .     S
Cu370  O386    1.977   .     S
Cu370  O383    1.965   .     S
C389   H391    1.111   .     S
C389   H392    1.110   .     S
C389   C269    1.522   1_655 S
C389   H302    1.111   1_655 S
C393   H395    1.110   .     S
C393   H396    1.111   .     S
H394   C305    1.111   1_655 S
C397   O425    1.291   .     A
C397   C408    1.450   .     S
C397   O427    1.291   .     A
C398   O426    1.291   .     A
C398   C407    1.450   .     S
C398   O428    1.291   .     A
C399   O431    1.292   .     A
C399   O429    1.280   .     A
C399   C401    1.439   .     S
C400   O432    1.292   .     A
C400   C402    1.439   .     S
C400   O430    1.280   .     A
C401   C490    1.364   1_455 S
C401   C521    1.522   1_455 S
C402   C445    1.364   .     S
C402   C481    1.522   .     S
C403   C408    1.401   .     A
C403   H415    1.083   .     S
C403   C669    1.383   1_545 S
C404   H416    1.083   .     S
C404   C407    1.401   .     A
C404   C538    1.383   .     S
C405   C407    1.401   .     A
C405   H417    1.083   .     S
C405   C535    1.383   .     S
C406   H418    1.083   .     S
C406   C408    1.401   .     A
C406   C668    1.383   1_545 S
C409   N424    1.367   .     A
C409   H419    1.082   .     S
C410   N423    1.367   .     A
C410   H420    1.082   .     S
C410   C808    1.416   .     S
C411   N423    1.367   .     A
C411   H421    1.082   .     S
C411   C805    1.416   .     S
C412   N424    1.367   .     A
C412   H422    1.082   .     S
Cu413  O432    1.975   .     S
Cu413  Cu414   2.676   .     S
Cu413  O429    1.977   .     S
Cu413  N423    2.011   .     S
Cu413  O425    1.965   .     S
Cu413  O428    1.965   .     S
Cu414  O426    1.965   .     S
Cu414  O431    1.975   .     S
Cu414  N424    2.011   .     S
Cu414  O430    1.977   .     S
Cu414  O427    1.965   .     S
C433   H435    1.111   .     S
C433   H436    1.110   .     S
C433   C445    1.522   .     S
C433   H478    1.111   .     S
H434   C521    1.111   1_455 S
C437   H439    1.110   .     S
C437   H440    1.111   .     S
C437   C490    1.522   1_455 S
C437   H526    1.111   1_455 S
H438   C481    1.111   .     S
C441   O469    1.291   .     A
C441   C452    1.450   .     S
C441   O471    1.291   .     A
C442   O470    1.291   .     A
C442   C451    1.450   .     S
C442   O472    1.291   .     A
C443   O475    1.292   .     A
C443   O473    1.280   .     A
C443   C445    1.439   .     S
C444   O476    1.292   .     A
C444   C446    1.439   .     S
C444   O474    1.280   .     A
C446   C489    1.364   .     S
C446   C525    1.522   .     S
C447   C452    1.401   .     A
C447   H459    1.083   .     S
C447   C713    1.383   1_545 S
C448   H460    1.083   .     S
C448   C451    1.401   .     A
C448   C582    1.383   .     S
C449   C451    1.401   .     A
C449   H461    1.083   .     S
C449   C579    1.383   .     S
C450   H462    1.083   .     S
C450   C452    1.401   .     A
C450   C712    1.383   1_545 S
C453   N468    1.367   .     A
C453   H463    1.082   .     S
C454   N467    1.367   .     A
C454   H464    1.082   .     S
C454   C852    1.416   .     S
C455   N467    1.367   .     A
C455   H465    1.082   .     S
C455   C849    1.416   .     S
C456   N468    1.367   .     A
C456   H466    1.082   .     S
Cu457  O476    1.975   .     S
Cu457  Cu458   2.676   .     S
Cu457  O473    1.977   .     S
Cu457  N467    2.011   .     S
Cu457  O469    1.965   .     S
Cu457  O472    1.965   .     S
Cu458  O470    1.965   .     S
Cu458  O475    1.975   .     S
Cu458  N468    2.011   .     S
Cu458  O474    1.977   .     S
Cu458  O471    1.965   .     S
C477   H479    1.111   .     S
C477   H480    1.110   .     S
C477   C489    1.522   .     S
C477   H522    1.111   .     S
C481   H483    1.110   .     S
C481   H484    1.111   .     S
H482   C525    1.111   .     S
C485   O513    1.291   .     A
C485   C496    1.450   .     S
C485   O515    1.291   .     A
C486   O514    1.291   .     A
C486   C495    1.450   .     S
C486   O516    1.291   .     A
C487   O519    1.292   .     A
C487   O517    1.280   .     A
C487   C489    1.439   .     S
C488   O520    1.292   .     A
C488   C490    1.439   .     S
C488   O518    1.280   .     A
C490   C401    1.364   1_655 S
C490   C437    1.522   1_655 S
C491   C496    1.401   .     A
C491   H503    1.083   .     S
C491   C757    1.383   1_545 S
C492   H504    1.083   .     S
C492   C495    1.401   .     A
C492   C626    1.383   .     S
C493   C495    1.401   .     A
C493   H505    1.083   .     S
C493   C623    1.383   .     S
C494   H506    1.083   .     S
C494   C496    1.401   .     A
C494   C756    1.383   1_545 S
C497   N512    1.367   .     A
C497   H507    1.082   .     S
C498   N511    1.367   .     A
C498   H508    1.082   .     S
C498   C896    1.416   .     S
C499   N511    1.367   .     A
C499   H509    1.082   .     S
C499   C893    1.416   .     S
C500   N512    1.367   .     A
C500   H510    1.082   .     S
Cu501  O520    1.975   .     S
Cu501  Cu502   2.676   .     S
Cu501  O517    1.977   .     S
Cu501  N511    2.011   .     S
Cu501  O513    1.965   .     S
Cu501  O516    1.965   .     S
Cu502  O514    1.965   .     S
Cu502  O519    1.975   .     S
Cu502  N512    2.011   .     S
Cu502  O518    1.977   .     S
Cu502  O515    1.965   .     S
C521   H523    1.111   .     S
C521   H524    1.110   .     S
C521   C401    1.522   1_655 S
C521   H434    1.111   1_655 S
C525   H527    1.110   .     S
C525   H528    1.111   .     S
H526   C437    1.111   1_655 S
C529   O557    1.291   .     A
C529   C540    1.450   .     S
C529   O559    1.291   .     A
C530   O558    1.291   .     A
C530   C539    1.450   .     S
C530   O560    1.291   .     A
C531   O563    1.292   .     A
C531   O561    1.280   .     A
C531   C533    1.439   .     S
C532   O564    1.292   .     A
C532   C534    1.439   .     S
C532   O562    1.280   .     A
C533   C622    1.364   1_455 S
C533   C653    1.522   1_455 S
C534   C577    1.364   .     S
C534   C613    1.522   .     S
C535   C540    1.401   .     A
C535   H547    1.083   .     S
C536   H548    1.083   .     S
C536   C539    1.401   .     A
C536   C670    1.383   .     S
C537   C539    1.401   .     A
C537   H549    1.083   .     S
C537   C667    1.383   .     S
C538   H550    1.083   .     S
C538   C540    1.401   .     A
C541   N556    1.367   .     A
C541   H551    1.082   .     S
C542   N555    1.367   .     A
C542   H552    1.082   .     S
C542   C940    1.416   .     S
C543   N555    1.367   .     A
C543   H553    1.082   .     S
C543   C937    1.416   .     S
C544   N556    1.367   .     A
C544   H554    1.082   .     S
Cu545  O564    1.975   .     S
Cu545  Cu546   2.676   .     S
Cu545  O561    1.977   .     S
Cu545  N555    2.011   .     S
Cu545  O557    1.965   .     S
Cu545  O560    1.965   .     S
Cu546  O558    1.965   .     S
Cu546  O563    1.975   .     S
Cu546  N556    2.011   .     S
Cu546  O562    1.977   .     S
Cu546  O559    1.965   .     S
C565   H567    1.111   .     S
C565   H568    1.110   .     S
C565   C577    1.522   .     S
C565   H610    1.111   .     S
H566   C653    1.111   1_455 S
C569   H571    1.110   .     S
C569   H572    1.111   .     S
C569   C622    1.522   1_455 S
C569   H658    1.111   1_455 S
H570   C613    1.111   .     S
C573   O601    1.291   .     A
C573   C584    1.450   .     S
C573   O603    1.291   .     A
C574   O602    1.291   .     A
C574   C583    1.450   .     S
C574   O604    1.291   .     A
C575   O607    1.292   .     A
C575   O605    1.280   .     A
C575   C577    1.439   .     S
C576   O608    1.292   .     A
C576   C578    1.439   .     S
C576   O606    1.280   .     A
C578   C621    1.364   .     S
C578   C657    1.522   .     S
C579   C584    1.401   .     A
C579   H591    1.083   .     S
C580   H592    1.083   .     S
C580   C583    1.401   .     A
C580   C714    1.383   .     S
C581   C583    1.401   .     A
C581   H593    1.083   .     S
C581   C711    1.383   .     S
C582   H594    1.083   .     S
C582   C584    1.401   .     A
C585   N600    1.367   .     A
C585   H595    1.082   .     S
C586   N599    1.367   .     A
C586   H596    1.082   .     S
C586   C984    1.416   .     S
C587   N599    1.367   .     A
C587   H597    1.082   .     S
C587   C981    1.416   .     S
C588   N600    1.367   .     A
C588   H598    1.082   .     S
Cu589  O608    1.975   .     S
Cu589  Cu590   2.676   .     S
Cu589  O605    1.977   .     S
Cu589  N599    2.011   .     S
Cu589  O601    1.965   .     S
Cu589  O604    1.965   .     S
Cu590  O602    1.965   .     S
Cu590  O607    1.975   .     S
Cu590  N600    2.011   .     S
Cu590  O606    1.977   .     S
Cu590  O603    1.965   .     S
C609   H611    1.111   .     S
C609   H612    1.110   .     S
C609   C621    1.522   .     S
C609   H654    1.111   .     S
C613   H615    1.110   .     S
C613   H616    1.111   .     S
H614   C657    1.111   .     S
C617   O645    1.291   .     A
C617   C628    1.450   .     S
C617   O647    1.291   .     A
C618   O646    1.291   .     A
C618   C627    1.450   .     S
C618   O648    1.291   .     A
C619   O651    1.292   .     A
C619   O649    1.280   .     A
C619   C621    1.439   .     S
C620   O652    1.292   .     A
C620   C622    1.439   .     S
C620   O650    1.280   .     A
C622   C533    1.364   1_655 S
C622   C569    1.522   1_655 S
C623   C628    1.401   .     A
C623   H635    1.083   .     S
C624   H636    1.083   .     S
C624   C627    1.401   .     A
C624   C758    1.383   .     S
C625   C627    1.401   .     A
C625   H637    1.083   .     S
C625   C755    1.383   .     S
C626   H638    1.083   .     S
C626   C628    1.401   .     A
C629   N644    1.367   .     A
C629   H639    1.082   .     S
C630   N643    1.367   .     A
C630   H640    1.082   .     S
C630   C1028   1.416   .     S
C631   N643    1.367   .     A
C631   H641    1.082   .     S
C631   C1025   1.416   .     S
C632   N644    1.367   .     A
C632   H642    1.082   .     S
Cu633  O652    1.975   .     S
Cu633  Cu634   2.676   .     S
Cu633  O649    1.977   .     S
Cu633  N643    2.011   .     S
Cu633  O645    1.965   .     S
Cu633  O648    1.965   .     S
Cu634  O646    1.965   .     S
Cu634  O651    1.975   .     S
Cu634  N644    2.011   .     S
Cu634  O650    1.977   .     S
Cu634  O647    1.965   .     S
C653   H655    1.111   .     S
C653   H656    1.110   .     S
C653   C533    1.522   1_655 S
C653   H566    1.111   1_655 S
C657   H659    1.110   .     S
C657   H660    1.111   .     S
H658   C569    1.111   1_655 S
C661   O689    1.291   .     A
C661   C672    1.450   .     S
C661   O691    1.291   .     A
C662   O690    1.291   .     A
C662   C671    1.450   .     S
C662   O692    1.291   .     A
C663   O695    1.292   .     A
C663   O693    1.280   .     A
C663   C665    1.439   .     S
C664   O696    1.292   .     A
C664   C666    1.439   .     S
C664   O694    1.280   .     A
C665   C754    1.364   1_455 S
C665   C785    1.522   1_455 S
C666   C709    1.364   .     S
C666   C745    1.522   .     S
C667   C672    1.401   .     A
C667   H679    1.083   .     S
C668   H680    1.083   .     S
C668   C671    1.401   .     A
C668   C406    1.383   1_565 S
C669   C671    1.401   .     A
C669   H681    1.083   .     S
C669   C403    1.383   1_565 S
C670   H682    1.083   .     S
C670   C672    1.401   .     A
C673   N688    1.367   .     A
C673   H683    1.082   .     S
C674   N687    1.367   .     A
C674   H684    1.082   .     S
C674   C1072   1.416   .     S
C675   N687    1.367   .     A
C675   H685    1.082   .     S
C675   C1069   1.416   .     S
C676   N688    1.367   .     A
C676   H686    1.082   .     S
Cu677  O696    1.975   .     S
Cu677  Cu678   2.676   .     S
Cu677  O693    1.977   .     S
Cu677  N687    2.011   .     S
Cu677  O689    1.965   .     S
Cu677  O692    1.965   .     S
Cu678  O690    1.965   .     S
Cu678  O695    1.975   .     S
Cu678  N688    2.011   .     S
Cu678  O694    1.977   .     S
Cu678  O691    1.965   .     S
C697   H699    1.111   .     S
C697   H700    1.110   .     S
C697   C709    1.522   .     S
C697   H742    1.111   .     S
H698   C785    1.111   1_455 S
C701   H703    1.110   .     S
C701   H704    1.111   .     S
C701   C754    1.522   1_455 S
C701   H790    1.111   1_455 S
H702   C745    1.111   .     S
C705   O733    1.291   .     A
C705   C716    1.450   .     S
C705   O735    1.291   .     A
C706   O734    1.291   .     A
C706   C715    1.450   .     S
C706   O736    1.291   .     A
C707   O739    1.292   .     A
C707   O737    1.280   .     A
C707   C709    1.439   .     S
C708   O740    1.292   .     A
C708   C710    1.439   .     S
C708   O738    1.280   .     A
C710   C753    1.364   .     S
C710   C789    1.522   .     S
C711   C716    1.401   .     A
C711   H723    1.083   .     S
C712   H724    1.083   .     S
C712   C715    1.401   .     A
C712   C450    1.383   1_565 S
C713   C715    1.401   .     A
C713   H725    1.083   .     S
C713   C447    1.383   1_565 S
C714   H726    1.083   .     S
C714   C716    1.401   .     A
C717   N732    1.367   .     A
C717   H727    1.082   .     S
C718   N731    1.367   .     A
C718   H728    1.082   .     S
C718   C1116   1.416   .     S
C719   N731    1.367   .     A
C719   H729    1.082   .     S
C719   C1113   1.416   .     S
C720   N732    1.367   .     A
C720   H730    1.082   .     S
Cu721  O740    1.975   .     S
Cu721  Cu722   2.676   .     S
Cu721  O737    1.977   .     S
Cu721  N731    2.011   .     S
Cu721  O733    1.965   .     S
Cu721  O736    1.965   .     S
Cu722  O734    1.965   .     S
Cu722  O739    1.975   .     S
Cu722  N732    2.011   .     S
Cu722  O738    1.977   .     S
Cu722  O735    1.965   .     S
C741   H743    1.111   .     S
C741   H744    1.110   .     S
C741   C753    1.522   .     S
C741   H786    1.111   .     S
C745   H747    1.110   .     S
C745   H748    1.111   .     S
H746   C789    1.111   .     S
C749   O777    1.291   .     A
C749   C760    1.450   .     S
C749   O779    1.291   .     A
C750   O778    1.291   .     A
C750   C759    1.450   .     S
C750   O780    1.291   .     A
C751   O783    1.292   .     A
C751   O781    1.280   .     A
C751   C753    1.439   .     S
C752   O784    1.292   .     A
C752   C754    1.439   .     S
C752   O782    1.280   .     A
C754   C665    1.364   1_655 S
C754   C701    1.522   1_655 S
C755   C760    1.401   .     A
C755   H767    1.083   .     S
C756   H768    1.083   .     S
C756   C759    1.401   .     A
C756   C494    1.383   1_565 S
C757   C759    1.401   .     A
C757   H769    1.083   .     S
C757   C491    1.383   1_565 S
C758   H770    1.083   .     S
C758   C760    1.401   .     A
C761   N776    1.367   .     A
C761   H771    1.082   .     S
C762   N775    1.367   .     A
C762   H772    1.082   .     S
C762   C1160   1.416   .     S
C763   N775    1.367   .     A
C763   H773    1.082   .     S
C763   C1157   1.416   .     S
C764   N776    1.367   .     A
C764   H774    1.082   .     S
Cu765  O784    1.975   .     S
Cu765  Cu766   2.676   .     S
Cu765  O781    1.977   .     S
Cu765  N775    2.011   .     S
Cu765  O777    1.965   .     S
Cu765  O780    1.965   .     S
Cu766  O778    1.965   .     S
Cu766  O783    1.975   .     S
Cu766  N776    2.011   .     S
Cu766  O782    1.977   .     S
Cu766  O779    1.965   .     S
C785   H787    1.111   .     S
C785   H788    1.110   .     S
C785   C665    1.522   1_655 S
C785   H698    1.111   1_655 S
C789   H791    1.110   .     S
C789   H792    1.111   .     S
H790   C701    1.111   1_655 S
C793   O821    1.291   .     A
C793   C804    1.450   .     S
C793   O823    1.291   .     A
C794   O822    1.291   .     A
C794   C803    1.450   .     S
C794   O824    1.291   .     A
C795   O827    1.292   .     A
C795   O825    1.280   .     A
C795   C797    1.439   .     S
C796   O828    1.292   .     A
C796   C798    1.439   .     S
C796   O826    1.280   .     A
C797   C886    1.364   1_455 S
C797   C917    1.522   1_455 S
C798   C841    1.364   .     S
C798   C877    1.522   .     S
C799   C804    1.401   .     A
C799   H811    1.083   .     S
C799   C1065   1.383   1_545 S
C800   H812    1.083   .     S
C800   C803    1.401   .     A
C800   C934    1.383   .     S
C801   C803    1.401   .     A
C801   H813    1.083   .     S
C801   C931    1.383   .     S
C802   H814    1.083   .     S
C802   C804    1.401   .     A
C802   C1064   1.383   1_545 S
C805   N820    1.367   .     A
C805   H815    1.082   .     S
C806   N819    1.367   .     A
C806   H816    1.082   .     S
C806   C16     1.416   1_556 S
C807   N819    1.367   .     A
C807   H817    1.082   .     S
C807   C13     1.416   1_556 S
C808   N820    1.367   .     A
C808   H818    1.082   .     S
Cu809  O828    1.975   .     S
Cu809  Cu810   2.676   .     S
Cu809  O825    1.977   .     S
Cu809  N819    2.011   .     S
Cu809  O821    1.965   .     S
Cu809  O824    1.965   .     S
Cu810  O822    1.965   .     S
Cu810  O827    1.975   .     S
Cu810  N820    2.011   .     S
Cu810  O826    1.977   .     S
Cu810  O823    1.965   .     S
C829   H831    1.111   .     S
C829   H832    1.110   .     S
C829   C841    1.522   .     S
C829   H874    1.111   .     S
H830   C917    1.111   1_455 S
C833   H835    1.110   .     S
C833   H836    1.111   .     S
C833   C886    1.522   1_455 S
C833   H922    1.111   1_455 S
H834   C877    1.111   .     S
C837   O865    1.291   .     A
C837   C848    1.450   .     S
C837   O867    1.291   .     A
C838   O866    1.291   .     A
C838   C847    1.450   .     S
C838   O868    1.291   .     A
C839   O871    1.292   .     A
C839   O869    1.280   .     A
C839   C841    1.439   .     S
C840   O872    1.292   .     A
C840   C842    1.439   .     S
C840   O870    1.280   .     A
C842   C885    1.364   .     S
C842   C921    1.522   .     S
C843   C848    1.401   .     A
C843   H855    1.083   .     S
C843   C1109   1.383   1_545 S
C844   H856    1.083   .     S
C844   C847    1.401   .     A
C844   C978    1.383   .     S
C845   C847    1.401   .     A
C845   H857    1.083   .     S
C845   C975    1.383   .     S
C846   H858    1.083   .     S
C846   C848    1.401   .     A
C846   C1108   1.383   1_545 S
C849   N864    1.367   .     A
C849   H859    1.082   .     S
C850   N863    1.367   .     A
C850   H860    1.082   .     S
C850   C60     1.416   1_556 S
C851   N863    1.367   .     A
C851   H861    1.082   .     S
C851   C57     1.416   1_556 S
C852   N864    1.367   .     A
C852   H862    1.082   .     S
Cu853  O872    1.975   .     S
Cu853  Cu854   2.676   .     S
Cu853  O869    1.977   .     S
Cu853  N863    2.011   .     S
Cu853  O865    1.965   .     S
Cu853  O868    1.965   .     S
Cu854  O866    1.965   .     S
Cu854  O871    1.975   .     S
Cu854  N864    2.011   .     S
Cu854  O870    1.977   .     S
Cu854  O867    1.965   .     S
C873   H875    1.111   .     S
C873   H876    1.110   .     S
C873   C885    1.522   .     S
C873   H918    1.111   .     S
C877   H879    1.110   .     S
C877   H880    1.111   .     S
H878   C921    1.111   .     S
C881   O909    1.291   .     A
C881   C892    1.450   .     S
C881   O911    1.291   .     A
C882   O910    1.291   .     A
C882   C891    1.450   .     S
C882   O912    1.291   .     A
C883   O915    1.292   .     A
C883   O913    1.280   .     A
C883   C885    1.439   .     S
C884   O916    1.292   .     A
C884   C886    1.439   .     S
C884   O914    1.280   .     A
C886   C797    1.364   1_655 S
C886   C833    1.522   1_655 S
C887   C892    1.401   .     A
C887   H899    1.083   .     S
C887   C1153   1.383   1_545 S
C888   H900    1.083   .     S
C888   C891    1.401   .     A
C888   C1022   1.383   .     S
C889   C891    1.401   .     A
C889   H901    1.083   .     S
C889   C1019   1.383   .     S
C890   H902    1.083   .     S
C890   C892    1.401   .     A
C890   C1152   1.383   1_545 S
C893   N908    1.367   .     A
C893   H903    1.082   .     S
C894   N907    1.367   .     A
C894   H904    1.082   .     S
C894   C104    1.416   1_556 S
C895   N907    1.367   .     A
C895   H905    1.082   .     S
C895   C101    1.416   1_556 S
C896   N908    1.367   .     A
C896   H906    1.082   .     S
Cu897  O916    1.975   .     S
Cu897  Cu898   2.676   .     S
Cu897  O913    1.977   .     S
Cu897  N907    2.011   .     S
Cu897  O909    1.965   .     S
Cu897  O912    1.965   .     S
Cu898  O910    1.965   .     S
Cu898  O915    1.975   .     S
Cu898  N908    2.011   .     S
Cu898  O914    1.977   .     S
Cu898  O911    1.965   .     S
C917   H919    1.111   .     S
C917   H920    1.110   .     S
C917   C797    1.522   1_655 S
C917   H830    1.111   1_655 S
C921   H923    1.110   .     S
C921   H924    1.111   .     S
H922   C833    1.111   1_655 S
C925   O953    1.291   .     A
C925   C936    1.450   .     S
C925   O955    1.291   .     A
C926   O954    1.291   .     A
C926   C935    1.450   .     S
C926   O956    1.291   .     A
C927   O959    1.292   .     A
C927   O957    1.280   .     A
C927   C929    1.439   .     S
C928   O960    1.292   .     A
C928   C930    1.439   .     S
C928   O958    1.280   .     A
C929   C1018   1.364   1_455 S
C929   C1049   1.522   1_455 S
C930   C973    1.364   .     S
C930   C1009   1.522   .     S
C931   C936    1.401   .     A
C931   H943    1.083   .     S
C932   H944    1.083   .     S
C932   C935    1.401   .     A
C932   C1066   1.383   .     S
C933   C935    1.401   .     A
C933   H945    1.083   .     S
C933   C1063   1.383   .     S
C934   H946    1.083   .     S
C934   C936    1.401   .     A
C937   N952    1.367   .     A
C937   H947    1.082   .     S
C938   N951    1.367   .     A
C938   H948    1.082   .     S
C938   C148    1.416   1_556 S
C939   N951    1.367   .     A
C939   H949    1.082   .     S
C939   C145    1.416   1_556 S
C940   N952    1.367   .     A
C940   H950    1.082   .     S
Cu941  O960    1.975   .     S
Cu941  Cu942   2.676   .     S
Cu941  O957    1.977   .     S
Cu941  N951    2.011   .     S
Cu941  O953    1.965   .     S
Cu941  O956    1.965   .     S
Cu942  O954    1.965   .     S
Cu942  O959    1.975   .     S
Cu942  N952    2.011   .     S
Cu942  O958    1.977   .     S
Cu942  O955    1.965   .     S
C961   H963    1.111   .     S
C961   H964    1.110   .     S
C961   C973    1.522   .     S
C961   H1006   1.111   .     S
H962   C1049   1.111   1_455 S
C965   H967    1.110   .     S
C965   H968    1.111   .     S
C965   C1018   1.522   1_455 S
C965   H1054   1.111   1_455 S
H966   C1009   1.111   .     S
C969   O997    1.291   .     A
C969   C980    1.450   .     S
C969   O999    1.291   .     A
C970   O998    1.291   .     A
C970   C979    1.450   .     S
C970   O1000   1.291   .     A
C971   O1003   1.292   .     A
C971   O1001   1.280   .     A
C971   C973    1.439   .     S
C972   O1004   1.292   .     A
C972   C974    1.439   .     S
C972   O1002   1.280   .     A
C974   C1017   1.364   .     S
C974   C1053   1.522   .     S
C975   C980    1.401   .     A
C975   H987    1.083   .     S
C976   H988    1.083   .     S
C976   C979    1.401   .     A
C976   C1110   1.383   .     S
C977   C979    1.401   .     A
C977   H989    1.083   .     S
C977   C1107   1.383   .     S
C978   H990    1.083   .     S
C978   C980    1.401   .     A
C981   N996    1.367   .     A
C981   H991    1.082   .     S
C982   N995    1.367   .     A
C982   H992    1.082   .     S
C982   C192    1.416   1_556 S
C983   N995    1.367   .     A
C983   H993    1.082   .     S
C983   C189    1.416   1_556 S
C984   N996    1.367   .     A
C984   H994    1.082   .     S
Cu985  O1004   1.975   .     S
Cu985  Cu986   2.676   .     S
Cu985  O1001   1.977   .     S
Cu985  N995    2.011   .     S
Cu985  O997    1.965   .     S
Cu985  O1000   1.965   .     S
Cu986  O998    1.965   .     S
Cu986  O1003   1.975   .     S
Cu986  N996    2.011   .     S
Cu986  O1002   1.977   .     S
Cu986  O999    1.965   .     S
C1005  H1007   1.111   .     S
C1005  H1008   1.110   .     S
C1005  C1017   1.522   .     S
C1005  H1050   1.111   .     S
C1009  H1011   1.110   .     S
C1009  H1012   1.111   .     S
H1010  C1053   1.111   .     S
C1013  O1041   1.291   .     A
C1013  C1024   1.450   .     S
C1013  O1043   1.291   .     A
C1014  O1042   1.291   .     A
C1014  C1023   1.450   .     S
C1014  O1044   1.291   .     A
C1015  O1047   1.292   .     A
C1015  O1045   1.280   .     A
C1015  C1017   1.439   .     S
C1016  O1048   1.292   .     A
C1016  C1018   1.439   .     S
C1016  O1046   1.280   .     A
C1018  C929    1.364   1_655 S
C1018  C965    1.522   1_655 S
C1019  C1024   1.401   .     A
C1019  H1031   1.083   .     S
C1020  H1032   1.083   .     S
C1020  C1023   1.401   .     A
C1020  C1154   1.383   .     S
C1021  C1023   1.401   .     A
C1021  H1033   1.083   .     S
C1021  C1151   1.383   .     S
C1022  H1034   1.083   .     S
C1022  C1024   1.401   .     A
C1025  N1040   1.367   .     A
C1025  H1035   1.082   .     S
C1026  N1039   1.367   .     A
C1026  H1036   1.082   .     S
C1026  C236    1.416   1_556 S
C1027  N1039   1.367   .     A
C1027  H1037   1.082   .     S
C1027  C233    1.416   1_556 S
C1028  N1040   1.367   .     A
C1028  H1038   1.082   .     S
Cu1029 O1048   1.975   .     S
Cu1029 Cu1030  2.676   .     S
Cu1029 O1045   1.977   .     S
Cu1029 N1039   2.011   .     S
Cu1029 O1041   1.965   .     S
Cu1029 O1044   1.965   .     S
Cu1030 O1042   1.965   .     S
Cu1030 O1047   1.975   .     S
Cu1030 N1040   2.011   .     S
Cu1030 O1046   1.977   .     S
Cu1030 O1043   1.965   .     S
C1049  H1051   1.111   .     S
C1049  H1052   1.110   .     S
C1049  C929    1.522   1_655 S
C1049  H962    1.111   1_655 S
C1053  H1055   1.110   .     S
C1053  H1056   1.111   .     S
H1054  C965    1.111   1_655 S
C1057  O1085   1.291   .     A
C1057  C1068   1.450   .     S
C1057  O1087   1.291   .     A
C1058  O1086   1.291   .     A
C1058  C1067   1.450   .     S
C1058  O1088   1.291   .     A
C1059  O1091   1.292   .     A
C1059  O1089   1.280   .     A
C1059  C1061   1.439   .     S
C1060  O1092   1.292   .     A
C1060  C1062   1.439   .     S
C1060  O1090   1.280   .     A
C1061  C1150   1.364   1_455 S
C1061  C1181   1.522   1_455 S
C1062  C1105   1.364   .     S
C1062  C1141   1.522   .     S
C1063  C1068   1.401   .     A
C1063  H1075   1.083   .     S
C1064  H1076   1.083   .     S
C1064  C1067   1.401   .     A
C1064  C802    1.383   1_565 S
C1065  C1067   1.401   .     A
C1065  H1077   1.083   .     S
C1065  C799    1.383   1_565 S
C1066  H1078   1.083   .     S
C1066  C1068   1.401   .     A
C1069  N1084   1.367   .     A
C1069  H1079   1.082   .     S
C1070  N1083   1.367   .     A
C1070  H1080   1.082   .     S
C1070  C280    1.416   1_556 S
C1071  N1083   1.367   .     A
C1071  H1081   1.082   .     S
C1071  C277    1.416   1_556 S
C1072  N1084   1.367   .     A
C1072  H1082   1.082   .     S
Cu1073 O1092   1.975   .     S
Cu1073 Cu1074  2.676   .     S
Cu1073 O1089   1.977   .     S
Cu1073 N1083   2.011   .     S
Cu1073 O1085   1.965   .     S
Cu1073 O1088   1.965   .     S
Cu1074 O1086   1.965   .     S
Cu1074 O1091   1.975   .     S
Cu1074 N1084   2.011   .     S
Cu1074 O1090   1.977   .     S
Cu1074 O1087   1.965   .     S
C1093  H1095   1.111   .     S
C1093  H1096   1.110   .     S
C1093  C1105   1.522   .     S
C1093  H1138   1.111   .     S
H1094  C1181   1.111   1_455 S
C1097  H1099   1.110   .     S
C1097  H1100   1.111   .     S
C1097  C1150   1.522   1_455 S
C1097  H1186   1.111   1_455 S
H1098  C1141   1.111   .     S
C1101  O1129   1.291   .     A
C1101  C1112   1.450   .     S
C1101  O1131   1.291   .     A
C1102  O1130   1.291   .     A
C1102  C1111   1.450   .     S
C1102  O1132   1.291   .     A
C1103  O1135   1.292   .     A
C1103  O1133   1.280   .     A
C1103  C1105   1.439   .     S
C1104  O1136   1.292   .     A
C1104  C1106   1.439   .     S
C1104  O1134   1.280   .     A
C1106  C1149   1.364   .     S
C1106  C1185   1.522   .     S
C1107  C1112   1.401   .     A
C1107  H1119   1.083   .     S
C1108  H1120   1.083   .     S
C1108  C1111   1.401   .     A
C1108  C846    1.383   1_565 S
C1109  C1111   1.401   .     A
C1109  H1121   1.083   .     S
C1109  C843    1.383   1_565 S
C1110  H1122   1.083   .     S
C1110  C1112   1.401   .     A
C1113  N1128   1.367   .     A
C1113  H1123   1.082   .     S
C1114  N1127   1.367   .     A
C1114  H1124   1.082   .     S
C1114  C324    1.416   1_556 S
C1115  N1127   1.367   .     A
C1115  H1125   1.082   .     S
C1115  C321    1.416   1_556 S
C1116  N1128   1.367   .     A
C1116  H1126   1.082   .     S
Cu1117 O1136   1.975   .     S
Cu1117 Cu1118  2.676   .     S
Cu1117 O1133   1.977   .     S
Cu1117 N1127   2.011   .     S
Cu1117 O1129   1.965   .     S
Cu1117 O1132   1.965   .     S
Cu1118 O1130   1.965   .     S
Cu1118 O1135   1.975   .     S
Cu1118 N1128   2.011   .     S
Cu1118 O1134   1.977   .     S
Cu1118 O1131   1.965   .     S
C1137  H1139   1.111   .     S
C1137  H1140   1.110   .     S
C1137  C1149   1.522   .     S
C1137  H1182   1.111   .     S
C1141  H1143   1.110   .     S
C1141  H1144   1.111   .     S
H1142  C1185   1.111   .     S
C1145  O1173   1.291   .     A
C1145  C1156   1.450   .     S
C1145  O1175   1.291   .     A
C1146  O1174   1.291   .     A
C1146  C1155   1.450   .     S
C1146  O1176   1.291   .     A
C1147  O1179   1.292   .     A
C1147  O1177   1.280   .     A
C1147  C1149   1.439   .     S
C1148  O1180   1.292   .     A
C1148  C1150   1.439   .     S
C1148  O1178   1.280   .     A
C1150  C1061   1.364   1_655 S
C1150  C1097   1.522   1_655 S
C1151  C1156   1.401   .     A
C1151  H1163   1.083   .     S
C1152  H1164   1.083   .     S
C1152  C1155   1.401   .     A
C1152  C890    1.383   1_565 S
C1153  C1155   1.401   .     A
C1153  H1165   1.083   .     S
C1153  C887    1.383   1_565 S
C1154  H1166   1.083   .     S
C1154  C1156   1.401   .     A
C1157  N1172   1.367   .     A
C1157  H1167   1.082   .     S
C1158  N1171   1.367   .     A
C1158  H1168   1.082   .     S
C1158  C368    1.416   1_556 S
C1159  N1171   1.367   .     A
C1159  H1169   1.082   .     S
C1159  C365    1.416   1_556 S
C1160  N1172   1.367   .     A
C1160  H1170   1.082   .     S
Cu1161 O1180   1.975   .     S
Cu1161 Cu1162  2.676   .     S
Cu1161 O1177   1.977   .     S
Cu1161 N1171   2.011   .     S
Cu1161 O1173   1.965   .     S
Cu1161 O1176   1.965   .     S
Cu1162 O1174   1.965   .     S
Cu1162 O1179   1.975   .     S
Cu1162 N1172   2.011   .     S
Cu1162 O1178   1.977   .     S
Cu1162 O1175   1.965   .     S
C1181  H1183   1.111   .     S
C1181  H1184   1.110   .     S
C1181  C1061   1.522   1_655 S
C1181  H1094   1.111   1_655 S
C1185  H1187   1.110   .     S
C1185  H1188   1.111   .     S
H1186  C1097   1.111   1_655 S
