data_str_m3_o1_o10_pcu_sym.81
_audit_creation_date              2020-01-03
_audit_creation_method            'Materials Studio'
_symmetry_space_group_name_H-M    'P1'
_symmetry_Int_Tables_number       1
_symmetry_cell_setting            triclinic
loop_
_symmetry_equiv_pos_as_xyz
  x,y,z
_cell_length_a                    25.7174
_cell_length_b                    32.0969
_cell_length_c                    29.7289
_cell_angle_alpha                 89.9692
_cell_angle_beta                  98.7084
_cell_angle_gamma                 91.0976
loop_
_atom_site_label
_atom_site_type_symbol
_atom_site_fract_x
_atom_site_fract_y
_atom_site_fract_z
_atom_site_U_iso_or_equiv
_atom_site_adp_type
_atom_site_occupancy
C1     C     0.16691   0.08672   0.16673   0.00000  Uiso   1.00
C2     C     0.15174   0.02112   0.20376   0.00000  Uiso   1.00
C3     C     0.16681   0.29082   0.16677   0.00000  Uiso   1.00
C4     C     0.16746   0.04255   0.16702   0.00000  Uiso   1.00
C5     C     0.20199   0.19079   0.02864   0.00000  Uiso   1.00
C6     C     0.13054   0.14314   0.30466   0.00000  Uiso   1.00
C7     C     0.20401   0.18912   0.31418   0.00000  Uiso   1.00
C8     C     0.13104   0.14238   0.01963   0.00000  Uiso   1.00
C9     C     0.23622   0.21929   0.05721   0.00000  Uiso   1.00
C10    C     0.09197   0.11860   0.27531   0.00000  Uiso   1.00
C11    C     0.29136   0.19546   0.30717   0.00000  Uiso   1.00
C12    C     0.16666   0.24663   0.16668   0.00000  Uiso   1.00
C13    C     0.33237   0.22510   0.29229   0.00000  Uiso   1.00
C14    C     0.09412   0.07854   0.03534   0.00000  Uiso   1.00
C15    C     0.03878   0.05967   0.02595   0.00000  Uiso   1.00
C16    C     0.06710   0.16650   0.15469   0.00000  Uiso   1.00
C17    C     0.26621   0.16667   0.17858   0.00000  Uiso   1.00
C18    C     0.01196   0.16617   0.14820   0.00000  Uiso   1.00
C19    C     0.32129   0.16669   0.18479   0.00000  Uiso   1.00
C20    C     0.18349   0.02163   0.13048   0.00000  Uiso   1.00
C21    C     0.15157   0.31175   0.20370   0.00000  Uiso   1.00
C22    C     0.18253   0.31229   0.13009   0.00000  Uiso   1.00
H23    H     0.32465   0.16548   0.11344   0.00000  Uiso   1.00
H24    H     0.03831   0.21052   0.29810   0.00000  Uiso   1.00
H25    H     0.32197   0.23263   0.25562   0.00000  Uiso   1.00
H26    H     0.11280   0.06635   0.06846   0.00000  Uiso   1.00
H27    H     0.11729   0.06711   0.00922   0.00000  Uiso   1.00
H28    H     0.01761   0.07153   0.32663   0.00000  Uiso   1.00
H29    H     0.04079   0.02520   0.02396   0.00000  Uiso   1.00
H30    H     0.01651   0.06802   0.05378   0.00000  Uiso   1.00
H31    H     0.00865   0.16728   0.21942   0.00000  Uiso   1.00
H32    H     0.19678   0.03813   0.10238   0.00000  Uiso   1.00
H33    H     0.13898   0.29522   0.23210   0.00000  Uiso   1.00
H34    H     0.19441   0.29629   0.10142   0.00000  Uiso   1.00
H35    H     0.13918   0.03722   0.23216   0.00000  Uiso   1.00
H36    H     0.29324   0.16484   0.29016   0.00000  Uiso   1.00
H37    H     0.30257   0.19026   0.01094   0.00000  Uiso   1.00
H38    H     0.00090   0.25446   0.31227   0.00000  Uiso   1.00
N39    N     0.16665   0.16666   0.28573   0.00000  Uiso   1.00
N40    N     0.16668   0.16668   0.04760   0.00000  Uiso   1.00
N41    N     0.26416   0.24211   0.07984   0.00000  Uiso   1.00
N42    N     0.06117   0.09843   0.25203   0.00000  Uiso   1.00
O43    O     0.16666   0.10558   0.20487   0.00000  Uiso   1.00
O44    O     0.09090   0.12246   0.03814   0.00000  Uiso   1.00
O45    O     0.16667   0.22775   0.12846   0.00000  Uiso   1.00
O46    O     0.16666   0.10559   0.12843   0.00000  Uiso   1.00
O47    O     0.16667   0.22774   0.20490   0.00000  Uiso   1.00
O48    O     0.09058   0.16666   0.19595   0.00000  Uiso   1.00
O49    O     0.24275   0.16667   0.13739   0.00000  Uiso   1.00
O50    O     0.09058   0.16667   0.11950   0.00000  Uiso   1.00
O51    O     0.24275   0.16666   0.21383   0.00000  Uiso   1.00
O52    O     0.24085   0.21292   0.29560   0.00000  Uiso   1.00
Zn53   Zn    0.16667   0.16666   0.21771   0.00000  Uiso   1.00
Zn54   Zn    0.16667   0.16667   0.11563   0.00000  Uiso   1.00
C55    C     0.50024   0.08672   0.16673   0.00000  Uiso   1.00
C56    C     0.48508   0.02112   0.20376   0.00000  Uiso   1.00
C57    C     0.50014   0.29082   0.16677   0.00000  Uiso   1.00
C58    C     0.50079   0.04255   0.16702   0.00000  Uiso   1.00
C59    C     0.53532   0.19079   0.02864   0.00000  Uiso   1.00
C60    C     0.46387   0.14314   0.30466   0.00000  Uiso   1.00
C61    C     0.53734   0.18912   0.31418   0.00000  Uiso   1.00
C62    C     0.46438   0.14238   0.01963   0.00000  Uiso   1.00
C63    C     0.56955   0.21929   0.05721   0.00000  Uiso   1.00
C64    C     0.42530   0.11860   0.27531   0.00000  Uiso   1.00
C65    C     0.62470   0.19546   0.30717   0.00000  Uiso   1.00
C66    C     0.49999   0.24663   0.16668   0.00000  Uiso   1.00
C67    C     0.66571   0.22510   0.29229   0.00000  Uiso   1.00
C68    C     0.42746   0.07854   0.03534   0.00000  Uiso   1.00
C69    C     0.37212   0.05967   0.02595   0.00000  Uiso   1.00
C70    C     0.40043   0.16650   0.15469   0.00000  Uiso   1.00
C71    C     0.59954   0.16667   0.17858   0.00000  Uiso   1.00
C72    C     0.34529   0.16617   0.14820   0.00000  Uiso   1.00
C73    C     0.65462   0.16669   0.18479   0.00000  Uiso   1.00
C74    C     0.51683   0.02163   0.13048   0.00000  Uiso   1.00
C75    C     0.48490   0.31175   0.20370   0.00000  Uiso   1.00
C76    C     0.51586   0.31229   0.13009   0.00000  Uiso   1.00
H77    H     0.65798   0.16548   0.11344   0.00000  Uiso   1.00
H78    H     0.37164   0.21052   0.29810   0.00000  Uiso   1.00
H79    H     0.65530   0.23263   0.25562   0.00000  Uiso   1.00
H80    H     0.44613   0.06635   0.06846   0.00000  Uiso   1.00
H81    H     0.45062   0.06711   0.00922   0.00000  Uiso   1.00
H82    H     0.35095   0.07153   0.32663   0.00000  Uiso   1.00
H83    H     0.37413   0.02520   0.02396   0.00000  Uiso   1.00
H84    H     0.34984   0.06802   0.05378   0.00000  Uiso   1.00
H85    H     0.34199   0.16728   0.21942   0.00000  Uiso   1.00
H86    H     0.53011   0.03813   0.10238   0.00000  Uiso   1.00
H87    H     0.47231   0.29522   0.23210   0.00000  Uiso   1.00
H88    H     0.52775   0.29629   0.10142   0.00000  Uiso   1.00
H89    H     0.47251   0.03722   0.23216   0.00000  Uiso   1.00
H90    H     0.62658   0.16484   0.29016   0.00000  Uiso   1.00
H91    H     0.63591   0.19026   0.01094   0.00000  Uiso   1.00
H92    H     0.33424   0.25446   0.31227   0.00000  Uiso   1.00
N93    N     0.49999   0.16666   0.28573   0.00000  Uiso   1.00
N94    N     0.50001   0.16668   0.04760   0.00000  Uiso   1.00
N95    N     0.59750   0.24211   0.07984   0.00000  Uiso   1.00
N96    N     0.39451   0.09843   0.25203   0.00000  Uiso   1.00
O97    O     0.50000   0.10558   0.20487   0.00000  Uiso   1.00
O98    O     0.42424   0.12246   0.03814   0.00000  Uiso   1.00
O99    O     0.50000   0.22775   0.12846   0.00000  Uiso   1.00
O100   O     0.50000   0.10559   0.12843   0.00000  Uiso   1.00
O101   O     0.50000   0.22774   0.20490   0.00000  Uiso   1.00
O102   O     0.42392   0.16666   0.19595   0.00000  Uiso   1.00
O103   O     0.57608   0.16667   0.13739   0.00000  Uiso   1.00
O104   O     0.42392   0.16667   0.11950   0.00000  Uiso   1.00
O105   O     0.57608   0.16666   0.21383   0.00000  Uiso   1.00
O106   O     0.57418   0.21292   0.29560   0.00000  Uiso   1.00
Zn107  Zn    0.50000   0.16666   0.21771   0.00000  Uiso   1.00
Zn108  Zn    0.50000   0.16667   0.11563   0.00000  Uiso   1.00
C109   C     0.83358   0.08672   0.16673   0.00000  Uiso   1.00
C110   C     0.81841   0.02112   0.20376   0.00000  Uiso   1.00
C111   C     0.83348   0.29082   0.16677   0.00000  Uiso   1.00
C112   C     0.83413   0.04255   0.16702   0.00000  Uiso   1.00
C113   C     0.86865   0.19079   0.02864   0.00000  Uiso   1.00
C114   C     0.79721   0.14314   0.30466   0.00000  Uiso   1.00
C115   C     0.87067   0.18912   0.31418   0.00000  Uiso   1.00
C116   C     0.79771   0.14238   0.01963   0.00000  Uiso   1.00
C117   C     0.90289   0.21929   0.05721   0.00000  Uiso   1.00
C118   C     0.75864   0.11860   0.27531   0.00000  Uiso   1.00
C119   C     0.95803   0.19546   0.30717   0.00000  Uiso   1.00
C120   C     0.83333   0.24663   0.16668   0.00000  Uiso   1.00
C121   C     0.99904   0.22510   0.29229   0.00000  Uiso   1.00
C122   C     0.76079   0.07854   0.03534   0.00000  Uiso   1.00
C123   C     0.70545   0.05967   0.02595   0.00000  Uiso   1.00
C124   C     0.73376   0.16650   0.15469   0.00000  Uiso   1.00
C125   C     0.93288   0.16667   0.17858   0.00000  Uiso   1.00
C126   C     0.67862   0.16617   0.14820   0.00000  Uiso   1.00
C127   C     0.98795   0.16669   0.18479   0.00000  Uiso   1.00
C128   C     0.85016   0.02163   0.13048   0.00000  Uiso   1.00
C129   C     0.81824   0.31175   0.20370   0.00000  Uiso   1.00
C130   C     0.84919   0.31229   0.13009   0.00000  Uiso   1.00
H131   H     0.99131   0.16548   0.11344   0.00000  Uiso   1.00
H132   H     0.70498   0.21052   0.29810   0.00000  Uiso   1.00
H133   H     0.98863   0.23263   0.25562   0.00000  Uiso   1.00
H134   H     0.77946   0.06635   0.06846   0.00000  Uiso   1.00
H135   H     0.78396   0.06711   0.00922   0.00000  Uiso   1.00
H136   H     0.68428   0.07153   0.32663   0.00000  Uiso   1.00
H137   H     0.70746   0.02520   0.02396   0.00000  Uiso   1.00
H138   H     0.68318   0.06802   0.05378   0.00000  Uiso   1.00
H139   H     0.67532   0.16728   0.21942   0.00000  Uiso   1.00
H140   H     0.86344   0.03813   0.10238   0.00000  Uiso   1.00
H141   H     0.80565   0.29522   0.23210   0.00000  Uiso   1.00
H142   H     0.86108   0.29629   0.10142   0.00000  Uiso   1.00
H143   H     0.80585   0.03722   0.23216   0.00000  Uiso   1.00
H144   H     0.95991   0.16484   0.29016   0.00000  Uiso   1.00
H145   H     0.96924   0.19026   0.01094   0.00000  Uiso   1.00
H146   H     0.66757   0.25446   0.31227   0.00000  Uiso   1.00
N147   N     0.83332   0.16666   0.28573   0.00000  Uiso   1.00
N148   N     0.83335   0.16668   0.04760   0.00000  Uiso   1.00
N149   N     0.93083   0.24211   0.07984   0.00000  Uiso   1.00
N150   N     0.72784   0.09843   0.25203   0.00000  Uiso   1.00
O151   O     0.83333   0.10558   0.20487   0.00000  Uiso   1.00
O152   O     0.75757   0.12246   0.03814   0.00000  Uiso   1.00
O153   O     0.83334   0.22775   0.12846   0.00000  Uiso   1.00
O154   O     0.83333   0.10559   0.12843   0.00000  Uiso   1.00
O155   O     0.83334   0.22774   0.20490   0.00000  Uiso   1.00
O156   O     0.75725   0.16666   0.19595   0.00000  Uiso   1.00
O157   O     0.90942   0.16667   0.13739   0.00000  Uiso   1.00
O158   O     0.75725   0.16667   0.11950   0.00000  Uiso   1.00
O159   O     0.90942   0.16666   0.21383   0.00000  Uiso   1.00
O160   O     0.90752   0.21292   0.29560   0.00000  Uiso   1.00
Zn161  Zn    0.83333   0.16666   0.21771   0.00000  Uiso   1.00
Zn162  Zn    0.83333   0.16667   0.11563   0.00000  Uiso   1.00
C163   C     0.16691   0.42005   0.16673   0.00000  Uiso   1.00
C164   C     0.15174   0.35445   0.20376   0.00000  Uiso   1.00
C165   C     0.16681   0.62416   0.16677   0.00000  Uiso   1.00
C166   C     0.16746   0.37589   0.16702   0.00000  Uiso   1.00
C167   C     0.20199   0.52413   0.02864   0.00000  Uiso   1.00
C168   C     0.13054   0.47648   0.30466   0.00000  Uiso   1.00
C169   C     0.20401   0.52245   0.31418   0.00000  Uiso   1.00
C170   C     0.13104   0.47571   0.01963   0.00000  Uiso   1.00
C171   C     0.23622   0.55262   0.05721   0.00000  Uiso   1.00
C172   C     0.09197   0.45194   0.27531   0.00000  Uiso   1.00
C173   C     0.29136   0.52879   0.30717   0.00000  Uiso   1.00
C174   C     0.16666   0.57996   0.16668   0.00000  Uiso   1.00
C175   C     0.33237   0.55843   0.29229   0.00000  Uiso   1.00
C176   C     0.09412   0.41187   0.03534   0.00000  Uiso   1.00
C177   C     0.03878   0.39300   0.02595   0.00000  Uiso   1.00
C178   C     0.06710   0.49984   0.15469   0.00000  Uiso   1.00
C179   C     0.26621   0.50000   0.17858   0.00000  Uiso   1.00
C180   C     0.01196   0.49950   0.14820   0.00000  Uiso   1.00
C181   C     0.32129   0.50002   0.18479   0.00000  Uiso   1.00
C182   C     0.18349   0.35496   0.13048   0.00000  Uiso   1.00
C183   C     0.15157   0.64508   0.20370   0.00000  Uiso   1.00
C184   C     0.18253   0.64563   0.13009   0.00000  Uiso   1.00
H185   H     0.32465   0.49882   0.11344   0.00000  Uiso   1.00
H186   H     0.03831   0.54385   0.29810   0.00000  Uiso   1.00
H187   H     0.32197   0.56597   0.25562   0.00000  Uiso   1.00
H188   H     0.11280   0.39968   0.06846   0.00000  Uiso   1.00
H189   H     0.11729   0.40044   0.00922   0.00000  Uiso   1.00
H190   H     0.01761   0.40486   0.32663   0.00000  Uiso   1.00
H191   H     0.04079   0.35853   0.02396   0.00000  Uiso   1.00
H192   H     0.01651   0.40135   0.05378   0.00000  Uiso   1.00
H193   H     0.00865   0.50061   0.21942   0.00000  Uiso   1.00
H194   H     0.19678   0.37146   0.10238   0.00000  Uiso   1.00
H195   H     0.13898   0.62855   0.23210   0.00000  Uiso   1.00
H196   H     0.19441   0.62962   0.10142   0.00000  Uiso   1.00
H197   H     0.13918   0.37056   0.23216   0.00000  Uiso   1.00
H198   H     0.29324   0.49817   0.29016   0.00000  Uiso   1.00
H199   H     0.30257   0.52359   0.01094   0.00000  Uiso   1.00
H200   H     0.00090   0.58779   0.31227   0.00000  Uiso   1.00
N201   N     0.16665   0.49999   0.28573   0.00000  Uiso   1.00
N202   N     0.16668   0.50001   0.04760   0.00000  Uiso   1.00
N203   N     0.26416   0.57544   0.07984   0.00000  Uiso   1.00
N204   N     0.06117   0.43177   0.25203   0.00000  Uiso   1.00
O205   O     0.16666   0.43892   0.20487   0.00000  Uiso   1.00
O206   O     0.09090   0.45580   0.03814   0.00000  Uiso   1.00
O207   O     0.16667   0.56108   0.12846   0.00000  Uiso   1.00
O208   O     0.16666   0.43893   0.12843   0.00000  Uiso   1.00
O209   O     0.16667   0.56107   0.20490   0.00000  Uiso   1.00
O210   O     0.09058   0.50000   0.19595   0.00000  Uiso   1.00
O211   O     0.24275   0.50000   0.13739   0.00000  Uiso   1.00
O212   O     0.09058   0.50000   0.11950   0.00000  Uiso   1.00
O213   O     0.24275   0.50000   0.21383   0.00000  Uiso   1.00
O214   O     0.24085   0.54625   0.29560   0.00000  Uiso   1.00
Zn215  Zn    0.16667   0.49999   0.21771   0.00000  Uiso   1.00
Zn216  Zn    0.16667   0.50001   0.11563   0.00000  Uiso   1.00
C217   C     0.50024   0.42005   0.16673   0.00000  Uiso   1.00
C218   C     0.48508   0.35445   0.20376   0.00000  Uiso   1.00
C219   C     0.50014   0.62416   0.16677   0.00000  Uiso   1.00
C220   C     0.50079   0.37589   0.16702   0.00000  Uiso   1.00
C221   C     0.53532   0.52413   0.02864   0.00000  Uiso   1.00
C222   C     0.46387   0.47648   0.30466   0.00000  Uiso   1.00
C223   C     0.53734   0.52245   0.31418   0.00000  Uiso   1.00
C224   C     0.46438   0.47571   0.01963   0.00000  Uiso   1.00
C225   C     0.56955   0.55262   0.05721   0.00000  Uiso   1.00
C226   C     0.42530   0.45194   0.27531   0.00000  Uiso   1.00
C227   C     0.62470   0.52879   0.30717   0.00000  Uiso   1.00
C228   C     0.49999   0.57996   0.16668   0.00000  Uiso   1.00
C229   C     0.66571   0.55843   0.29229   0.00000  Uiso   1.00
C230   C     0.42746   0.41187   0.03534   0.00000  Uiso   1.00
C231   C     0.37212   0.39300   0.02595   0.00000  Uiso   1.00
C232   C     0.40043   0.49984   0.15469   0.00000  Uiso   1.00
C233   C     0.59954   0.50000   0.17858   0.00000  Uiso   1.00
C234   C     0.34529   0.49950   0.14820   0.00000  Uiso   1.00
C235   C     0.65462   0.50002   0.18479   0.00000  Uiso   1.00
C236   C     0.51683   0.35496   0.13048   0.00000  Uiso   1.00
C237   C     0.48490   0.64508   0.20370   0.00000  Uiso   1.00
C238   C     0.51586   0.64563   0.13009   0.00000  Uiso   1.00
H239   H     0.65798   0.49882   0.11344   0.00000  Uiso   1.00
H240   H     0.37164   0.54385   0.29810   0.00000  Uiso   1.00
H241   H     0.65530   0.56597   0.25562   0.00000  Uiso   1.00
H242   H     0.44613   0.39968   0.06846   0.00000  Uiso   1.00
H243   H     0.45062   0.40044   0.00922   0.00000  Uiso   1.00
H244   H     0.35095   0.40486   0.32663   0.00000  Uiso   1.00
H245   H     0.37413   0.35853   0.02396   0.00000  Uiso   1.00
H246   H     0.34984   0.40135   0.05378   0.00000  Uiso   1.00
H247   H     0.34199   0.50061   0.21942   0.00000  Uiso   1.00
H248   H     0.53011   0.37146   0.10238   0.00000  Uiso   1.00
H249   H     0.47231   0.62855   0.23210   0.00000  Uiso   1.00
H250   H     0.52775   0.62962   0.10142   0.00000  Uiso   1.00
H251   H     0.47251   0.37056   0.23216   0.00000  Uiso   1.00
H252   H     0.62658   0.49817   0.29016   0.00000  Uiso   1.00
H253   H     0.63591   0.52359   0.01094   0.00000  Uiso   1.00
H254   H     0.33424   0.58779   0.31227   0.00000  Uiso   1.00
N255   N     0.49999   0.49999   0.28573   0.00000  Uiso   1.00
N256   N     0.50001   0.50001   0.04760   0.00000  Uiso   1.00
N257   N     0.59750   0.57544   0.07984   0.00000  Uiso   1.00
N258   N     0.39451   0.43177   0.25203   0.00000  Uiso   1.00
O259   O     0.50000   0.43892   0.20487   0.00000  Uiso   1.00
O260   O     0.42424   0.45580   0.03814   0.00000  Uiso   1.00
O261   O     0.50000   0.56108   0.12846   0.00000  Uiso   1.00
O262   O     0.50000   0.43893   0.12843   0.00000  Uiso   1.00
O263   O     0.50000   0.56107   0.20490   0.00000  Uiso   1.00
O264   O     0.42392   0.50000   0.19595   0.00000  Uiso   1.00
O265   O     0.57608   0.50000   0.13739   0.00000  Uiso   1.00
O266   O     0.42392   0.50000   0.11950   0.00000  Uiso   1.00
O267   O     0.57608   0.50000   0.21383   0.00000  Uiso   1.00
O268   O     0.57418   0.54625   0.29560   0.00000  Uiso   1.00
Zn269  Zn    0.50000   0.49999   0.21771   0.00000  Uiso   1.00
Zn270  Zn    0.50000   0.50001   0.11563   0.00000  Uiso   1.00
C271   C     0.83358   0.42005   0.16673   0.00000  Uiso   1.00
C272   C     0.81841   0.35445   0.20376   0.00000  Uiso   1.00
C273   C     0.83348   0.62416   0.16677   0.00000  Uiso   1.00
C274   C     0.83413   0.37589   0.16702   0.00000  Uiso   1.00
C275   C     0.86865   0.52413   0.02864   0.00000  Uiso   1.00
C276   C     0.79721   0.47648   0.30466   0.00000  Uiso   1.00
C277   C     0.87067   0.52245   0.31418   0.00000  Uiso   1.00
C278   C     0.79771   0.47571   0.01963   0.00000  Uiso   1.00
C279   C     0.90289   0.55262   0.05721   0.00000  Uiso   1.00
C280   C     0.75864   0.45194   0.27531   0.00000  Uiso   1.00
C281   C     0.95803   0.52879   0.30717   0.00000  Uiso   1.00
C282   C     0.83333   0.57996   0.16668   0.00000  Uiso   1.00
C283   C     0.99904   0.55843   0.29229   0.00000  Uiso   1.00
C284   C     0.76079   0.41187   0.03534   0.00000  Uiso   1.00
C285   C     0.70545   0.39300   0.02595   0.00000  Uiso   1.00
C286   C     0.73376   0.49984   0.15469   0.00000  Uiso   1.00
C287   C     0.93288   0.50000   0.17858   0.00000  Uiso   1.00
C288   C     0.67862   0.49950   0.14820   0.00000  Uiso   1.00
C289   C     0.98795   0.50002   0.18479   0.00000  Uiso   1.00
C290   C     0.85016   0.35496   0.13048   0.00000  Uiso   1.00
C291   C     0.81824   0.64508   0.20370   0.00000  Uiso   1.00
C292   C     0.84919   0.64563   0.13009   0.00000  Uiso   1.00
H293   H     0.99131   0.49882   0.11344   0.00000  Uiso   1.00
H294   H     0.70498   0.54385   0.29810   0.00000  Uiso   1.00
H295   H     0.98863   0.56597   0.25562   0.00000  Uiso   1.00
H296   H     0.77946   0.39968   0.06846   0.00000  Uiso   1.00
H297   H     0.78396   0.40044   0.00922   0.00000  Uiso   1.00
H298   H     0.68428   0.40486   0.32663   0.00000  Uiso   1.00
H299   H     0.70746   0.35853   0.02396   0.00000  Uiso   1.00
H300   H     0.68318   0.40135   0.05378   0.00000  Uiso   1.00
H301   H     0.67532   0.50061   0.21942   0.00000  Uiso   1.00
H302   H     0.86344   0.37146   0.10238   0.00000  Uiso   1.00
H303   H     0.80565   0.62855   0.23210   0.00000  Uiso   1.00
H304   H     0.86108   0.62962   0.10142   0.00000  Uiso   1.00
H305   H     0.80585   0.37056   0.23216   0.00000  Uiso   1.00
H306   H     0.95991   0.49817   0.29016   0.00000  Uiso   1.00
H307   H     0.96924   0.52359   0.01094   0.00000  Uiso   1.00
H308   H     0.66757   0.58779   0.31227   0.00000  Uiso   1.00
N309   N     0.83332   0.49999   0.28573   0.00000  Uiso   1.00
N310   N     0.83335   0.50001   0.04760   0.00000  Uiso   1.00
N311   N     0.93083   0.57544   0.07984   0.00000  Uiso   1.00
N312   N     0.72784   0.43177   0.25203   0.00000  Uiso   1.00
O313   O     0.83333   0.43892   0.20487   0.00000  Uiso   1.00
O314   O     0.75757   0.45580   0.03814   0.00000  Uiso   1.00
O315   O     0.83334   0.56108   0.12846   0.00000  Uiso   1.00
O316   O     0.83333   0.43893   0.12843   0.00000  Uiso   1.00
O317   O     0.83334   0.56107   0.20490   0.00000  Uiso   1.00
O318   O     0.75725   0.50000   0.19595   0.00000  Uiso   1.00
O319   O     0.90942   0.50000   0.13739   0.00000  Uiso   1.00
O320   O     0.75725   0.50000   0.11950   0.00000  Uiso   1.00
O321   O     0.90942   0.50000   0.21383   0.00000  Uiso   1.00
O322   O     0.90752   0.54625   0.29560   0.00000  Uiso   1.00
Zn323  Zn    0.83333   0.49999   0.21771   0.00000  Uiso   1.00
Zn324  Zn    0.83333   0.50001   0.11563   0.00000  Uiso   1.00
C325   C     0.16691   0.75338   0.16673   0.00000  Uiso   1.00
C326   C     0.15174   0.68779   0.20376   0.00000  Uiso   1.00
C327   C     0.16681   0.95749   0.16677   0.00000  Uiso   1.00
C328   C     0.16746   0.70922   0.16702   0.00000  Uiso   1.00
C329   C     0.20199   0.85746   0.02864   0.00000  Uiso   1.00
C330   C     0.13054   0.80981   0.30466   0.00000  Uiso   1.00
C331   C     0.20401   0.85579   0.31418   0.00000  Uiso   1.00
C332   C     0.13104   0.80905   0.01963   0.00000  Uiso   1.00
C333   C     0.23622   0.88595   0.05721   0.00000  Uiso   1.00
C334   C     0.09197   0.78527   0.27531   0.00000  Uiso   1.00
C335   C     0.29136   0.86212   0.30717   0.00000  Uiso   1.00
C336   C     0.16666   0.91330   0.16668   0.00000  Uiso   1.00
C337   C     0.33237   0.89176   0.29229   0.00000  Uiso   1.00
C338   C     0.09412   0.74521   0.03534   0.00000  Uiso   1.00
C339   C     0.03878   0.72634   0.02595   0.00000  Uiso   1.00
C340   C     0.06710   0.83317   0.15469   0.00000  Uiso   1.00
C341   C     0.26621   0.83334   0.17858   0.00000  Uiso   1.00
C342   C     0.01196   0.83283   0.14820   0.00000  Uiso   1.00
C343   C     0.32129   0.83336   0.18479   0.00000  Uiso   1.00
C344   C     0.18349   0.68829   0.13048   0.00000  Uiso   1.00
C345   C     0.15157   0.97841   0.20370   0.00000  Uiso   1.00
C346   C     0.18253   0.97896   0.13009   0.00000  Uiso   1.00
H347   H     0.32465   0.83215   0.11344   0.00000  Uiso   1.00
H348   H     0.03831   0.87719   0.29810   0.00000  Uiso   1.00
H349   H     0.32197   0.89930   0.25562   0.00000  Uiso   1.00
H350   H     0.11280   0.73302   0.06846   0.00000  Uiso   1.00
H351   H     0.11729   0.73377   0.00922   0.00000  Uiso   1.00
H352   H     0.01761   0.73820   0.32663   0.00000  Uiso   1.00
H353   H     0.04079   0.69187   0.02396   0.00000  Uiso   1.00
H354   H     0.01651   0.73468   0.05378   0.00000  Uiso   1.00
H355   H     0.00865   0.83395   0.21942   0.00000  Uiso   1.00
H356   H     0.19678   0.70479   0.10238   0.00000  Uiso   1.00
H357   H     0.13898   0.96189   0.23210   0.00000  Uiso   1.00
H358   H     0.19441   0.96295   0.10142   0.00000  Uiso   1.00
H359   H     0.13918   0.70389   0.23216   0.00000  Uiso   1.00
H360   H     0.29324   0.83150   0.29016   0.00000  Uiso   1.00
H361   H     0.30257   0.85693   0.01094   0.00000  Uiso   1.00
H362   H     0.00090   0.92112   0.31227   0.00000  Uiso   1.00
N363   N     0.16665   0.83332   0.28573   0.00000  Uiso   1.00
N364   N     0.16668   0.83334   0.04760   0.00000  Uiso   1.00
N365   N     0.26416   0.90878   0.07984   0.00000  Uiso   1.00
N366   N     0.06117   0.76510   0.25203   0.00000  Uiso   1.00
O367   O     0.16666   0.77225   0.20487   0.00000  Uiso   1.00
O368   O     0.09090   0.78913   0.03814   0.00000  Uiso   1.00
O369   O     0.16667   0.89442   0.12846   0.00000  Uiso   1.00
O370   O     0.16666   0.77226   0.12843   0.00000  Uiso   1.00
O371   O     0.16667   0.89441   0.20490   0.00000  Uiso   1.00
O372   O     0.09058   0.83333   0.19595   0.00000  Uiso   1.00
O373   O     0.24275   0.83334   0.13739   0.00000  Uiso   1.00
O374   O     0.09058   0.83334   0.11950   0.00000  Uiso   1.00
O375   O     0.24275   0.83333   0.21383   0.00000  Uiso   1.00
O376   O     0.24085   0.87958   0.29560   0.00000  Uiso   1.00
Zn377  Zn    0.16667   0.83333   0.21771   0.00000  Uiso   1.00
Zn378  Zn    0.16667   0.83334   0.11563   0.00000  Uiso   1.00
C379   C     0.50024   0.75338   0.16673   0.00000  Uiso   1.00
C380   C     0.48508   0.68779   0.20376   0.00000  Uiso   1.00
C381   C     0.50014   0.95749   0.16677   0.00000  Uiso   1.00
C382   C     0.50079   0.70922   0.16702   0.00000  Uiso   1.00
C383   C     0.53532   0.85746   0.02864   0.00000  Uiso   1.00
C384   C     0.46387   0.80981   0.30466   0.00000  Uiso   1.00
C385   C     0.53734   0.85579   0.31418   0.00000  Uiso   1.00
C386   C     0.46438   0.80905   0.01963   0.00000  Uiso   1.00
C387   C     0.56955   0.88595   0.05721   0.00000  Uiso   1.00
C388   C     0.42530   0.78527   0.27531   0.00000  Uiso   1.00
C389   C     0.62470   0.86212   0.30717   0.00000  Uiso   1.00
C390   C     0.49999   0.91330   0.16668   0.00000  Uiso   1.00
C391   C     0.66571   0.89176   0.29229   0.00000  Uiso   1.00
C392   C     0.42746   0.74521   0.03534   0.00000  Uiso   1.00
C393   C     0.37212   0.72634   0.02595   0.00000  Uiso   1.00
C394   C     0.40043   0.83317   0.15469   0.00000  Uiso   1.00
C395   C     0.59954   0.83334   0.17858   0.00000  Uiso   1.00
C396   C     0.34529   0.83283   0.14820   0.00000  Uiso   1.00
C397   C     0.65462   0.83336   0.18479   0.00000  Uiso   1.00
C398   C     0.51683   0.68829   0.13048   0.00000  Uiso   1.00
C399   C     0.48490   0.97841   0.20370   0.00000  Uiso   1.00
C400   C     0.51586   0.97896   0.13009   0.00000  Uiso   1.00
H401   H     0.65798   0.83215   0.11344   0.00000  Uiso   1.00
H402   H     0.37164   0.87719   0.29810   0.00000  Uiso   1.00
H403   H     0.65530   0.89930   0.25562   0.00000  Uiso   1.00
H404   H     0.44613   0.73302   0.06846   0.00000  Uiso   1.00
H405   H     0.45062   0.73377   0.00922   0.00000  Uiso   1.00
H406   H     0.35095   0.73820   0.32663   0.00000  Uiso   1.00
H407   H     0.37413   0.69187   0.02396   0.00000  Uiso   1.00
H408   H     0.34984   0.73468   0.05378   0.00000  Uiso   1.00
H409   H     0.34199   0.83395   0.21942   0.00000  Uiso   1.00
H410   H     0.53011   0.70479   0.10238   0.00000  Uiso   1.00
H411   H     0.47231   0.96189   0.23210   0.00000  Uiso   1.00
H412   H     0.52775   0.96295   0.10142   0.00000  Uiso   1.00
H413   H     0.47251   0.70389   0.23216   0.00000  Uiso   1.00
H414   H     0.62658   0.83150   0.29016   0.00000  Uiso   1.00
H415   H     0.63591   0.85693   0.01094   0.00000  Uiso   1.00
H416   H     0.33424   0.92112   0.31227   0.00000  Uiso   1.00
N417   N     0.49999   0.83332   0.28573   0.00000  Uiso   1.00
N418   N     0.50001   0.83334   0.04760   0.00000  Uiso   1.00
N419   N     0.59750   0.90878   0.07984   0.00000  Uiso   1.00
N420   N     0.39451   0.76510   0.25203   0.00000  Uiso   1.00
O421   O     0.50000   0.77225   0.20487   0.00000  Uiso   1.00
O422   O     0.42424   0.78913   0.03814   0.00000  Uiso   1.00
O423   O     0.50000   0.89442   0.12846   0.00000  Uiso   1.00
O424   O     0.50000   0.77226   0.12843   0.00000  Uiso   1.00
O425   O     0.50000   0.89441   0.20490   0.00000  Uiso   1.00
O426   O     0.42392   0.83333   0.19595   0.00000  Uiso   1.00
O427   O     0.57608   0.83334   0.13739   0.00000  Uiso   1.00
O428   O     0.42392   0.83334   0.11950   0.00000  Uiso   1.00
O429   O     0.57608   0.83333   0.21383   0.00000  Uiso   1.00
O430   O     0.57418   0.87958   0.29560   0.00000  Uiso   1.00
Zn431  Zn    0.50000   0.83333   0.21771   0.00000  Uiso   1.00
Zn432  Zn    0.50000   0.83334   0.11563   0.00000  Uiso   1.00
C433   C     0.83358   0.75338   0.16673   0.00000  Uiso   1.00
C434   C     0.81841   0.68779   0.20376   0.00000  Uiso   1.00
C435   C     0.83348   0.95749   0.16677   0.00000  Uiso   1.00
C436   C     0.83413   0.70922   0.16702   0.00000  Uiso   1.00
C437   C     0.86865   0.85746   0.02864   0.00000  Uiso   1.00
C438   C     0.79721   0.80981   0.30466   0.00000  Uiso   1.00
C439   C     0.87067   0.85579   0.31418   0.00000  Uiso   1.00
C440   C     0.79771   0.80905   0.01963   0.00000  Uiso   1.00
C441   C     0.90289   0.88595   0.05721   0.00000  Uiso   1.00
C442   C     0.75864   0.78527   0.27531   0.00000  Uiso   1.00
C443   C     0.95803   0.86212   0.30717   0.00000  Uiso   1.00
C444   C     0.83333   0.91330   0.16668   0.00000  Uiso   1.00
C445   C     0.99904   0.89176   0.29229   0.00000  Uiso   1.00
C446   C     0.76079   0.74521   0.03534   0.00000  Uiso   1.00
C447   C     0.70545   0.72634   0.02595   0.00000  Uiso   1.00
C448   C     0.73376   0.83317   0.15469   0.00000  Uiso   1.00
C449   C     0.93288   0.83334   0.17858   0.00000  Uiso   1.00
C450   C     0.67862   0.83283   0.14820   0.00000  Uiso   1.00
C451   C     0.98795   0.83336   0.18479   0.00000  Uiso   1.00
C452   C     0.85016   0.68829   0.13048   0.00000  Uiso   1.00
C453   C     0.81824   0.97841   0.20370   0.00000  Uiso   1.00
C454   C     0.84919   0.97896   0.13009   0.00000  Uiso   1.00
H455   H     0.99131   0.83215   0.11344   0.00000  Uiso   1.00
H456   H     0.70498   0.87719   0.29810   0.00000  Uiso   1.00
H457   H     0.98863   0.89930   0.25562   0.00000  Uiso   1.00
H458   H     0.77946   0.73302   0.06846   0.00000  Uiso   1.00
H459   H     0.78396   0.73377   0.00922   0.00000  Uiso   1.00
H460   H     0.68428   0.73820   0.32663   0.00000  Uiso   1.00
H461   H     0.70746   0.69187   0.02396   0.00000  Uiso   1.00
H462   H     0.68318   0.73468   0.05378   0.00000  Uiso   1.00
H463   H     0.67532   0.83395   0.21942   0.00000  Uiso   1.00
H464   H     0.86344   0.70479   0.10238   0.00000  Uiso   1.00
H465   H     0.80565   0.96189   0.23210   0.00000  Uiso   1.00
H466   H     0.86108   0.96295   0.10142   0.00000  Uiso   1.00
H467   H     0.80585   0.70389   0.23216   0.00000  Uiso   1.00
H468   H     0.95991   0.83150   0.29016   0.00000  Uiso   1.00
H469   H     0.96924   0.85693   0.01094   0.00000  Uiso   1.00
H470   H     0.66757   0.92112   0.31227   0.00000  Uiso   1.00
N471   N     0.83332   0.83332   0.28573   0.00000  Uiso   1.00
N472   N     0.83335   0.83334   0.04760   0.00000  Uiso   1.00
N473   N     0.93083   0.90878   0.07984   0.00000  Uiso   1.00
N474   N     0.72784   0.76510   0.25203   0.00000  Uiso   1.00
O475   O     0.83333   0.77225   0.20487   0.00000  Uiso   1.00
O476   O     0.75757   0.78913   0.03814   0.00000  Uiso   1.00
O477   O     0.83334   0.89442   0.12846   0.00000  Uiso   1.00
O478   O     0.83333   0.77226   0.12843   0.00000  Uiso   1.00
O479   O     0.83334   0.89441   0.20490   0.00000  Uiso   1.00
O480   O     0.75725   0.83333   0.19595   0.00000  Uiso   1.00
O481   O     0.90942   0.83334   0.13739   0.00000  Uiso   1.00
O482   O     0.75725   0.83334   0.11950   0.00000  Uiso   1.00
O483   O     0.90942   0.83333   0.21383   0.00000  Uiso   1.00
O484   O     0.90752   0.87958   0.29560   0.00000  Uiso   1.00
Zn485  Zn    0.83333   0.83333   0.21771   0.00000  Uiso   1.00
Zn486  Zn    0.83333   0.83334   0.11563   0.00000  Uiso   1.00
C487   C     0.16691   0.08672   0.50007   0.00000  Uiso   1.00
C488   C     0.15174   0.02112   0.53709   0.00000  Uiso   1.00
C489   C     0.16681   0.29082   0.50011   0.00000  Uiso   1.00
C490   C     0.16746   0.04255   0.50035   0.00000  Uiso   1.00
C491   C     0.20199   0.19079   0.36197   0.00000  Uiso   1.00
C492   C     0.13054   0.14314   0.63799   0.00000  Uiso   1.00
C493   C     0.20401   0.18912   0.64752   0.00000  Uiso   1.00
C494   C     0.13104   0.14238   0.35296   0.00000  Uiso   1.00
C495   C     0.23622   0.21929   0.39054   0.00000  Uiso   1.00
C496   C     0.09197   0.11860   0.60864   0.00000  Uiso   1.00
C497   C     0.29136   0.19546   0.64051   0.00000  Uiso   1.00
C498   C     0.16666   0.24663   0.50002   0.00000  Uiso   1.00
C499   C     0.33237   0.22510   0.62562   0.00000  Uiso   1.00
C500   C     0.09412   0.07854   0.36868   0.00000  Uiso   1.00
C501   C     0.03878   0.05967   0.35928   0.00000  Uiso   1.00
C502   C     0.06710   0.16650   0.48802   0.00000  Uiso   1.00
C503   C     0.26621   0.16667   0.51191   0.00000  Uiso   1.00
C504   C     0.01196   0.16617   0.48153   0.00000  Uiso   1.00
C505   C     0.32129   0.16669   0.51813   0.00000  Uiso   1.00
C506   C     0.18349   0.02163   0.46381   0.00000  Uiso   1.00
C507   C     0.15157   0.31175   0.53703   0.00000  Uiso   1.00
C508   C     0.18253   0.31229   0.46343   0.00000  Uiso   1.00
H509   H     0.32465   0.16548   0.44677   0.00000  Uiso   1.00
H510   H     0.03831   0.21052   0.63143   0.00000  Uiso   1.00
H511   H     0.32197   0.23263   0.58896   0.00000  Uiso   1.00
H512   H     0.11280   0.06635   0.40179   0.00000  Uiso   1.00
H513   H     0.11729   0.06711   0.34255   0.00000  Uiso   1.00
H514   H     0.01761   0.07153   0.65997   0.00000  Uiso   1.00
H515   H     0.04079   0.02520   0.35730   0.00000  Uiso   1.00
H516   H     0.01651   0.06802   0.38712   0.00000  Uiso   1.00
H517   H     0.00865   0.16728   0.55275   0.00000  Uiso   1.00
H518   H     0.19678   0.03813   0.43571   0.00000  Uiso   1.00
H519   H     0.13898   0.29522   0.56543   0.00000  Uiso   1.00
H520   H     0.19441   0.29629   0.43475   0.00000  Uiso   1.00
H521   H     0.13918   0.03722   0.56549   0.00000  Uiso   1.00
H522   H     0.29324   0.16484   0.62349   0.00000  Uiso   1.00
H523   H     0.30257   0.19026   0.34428   0.00000  Uiso   1.00
H524   H     0.00090   0.25446   0.64561   0.00000  Uiso   1.00
N525   N     0.16665   0.16666   0.61907   0.00000  Uiso   1.00
N526   N     0.16668   0.16668   0.38093   0.00000  Uiso   1.00
N527   N     0.26416   0.24211   0.41317   0.00000  Uiso   1.00
N528   N     0.06117   0.09843   0.58537   0.00000  Uiso   1.00
O529   O     0.16666   0.10558   0.53821   0.00000  Uiso   1.00
O530   O     0.09090   0.12246   0.37148   0.00000  Uiso   1.00
O531   O     0.16667   0.22775   0.46179   0.00000  Uiso   1.00
O532   O     0.16666   0.10559   0.46176   0.00000  Uiso   1.00
O533   O     0.16667   0.22774   0.53824   0.00000  Uiso   1.00
O534   O     0.09058   0.16666   0.52928   0.00000  Uiso   1.00
O535   O     0.24275   0.16667   0.47072   0.00000  Uiso   1.00
O536   O     0.09058   0.16667   0.45284   0.00000  Uiso   1.00
O537   O     0.24275   0.16666   0.54716   0.00000  Uiso   1.00
O538   O     0.24085   0.21292   0.62893   0.00000  Uiso   1.00
Zn539  Zn    0.16667   0.16666   0.55104   0.00000  Uiso   1.00
Zn540  Zn    0.16667   0.16667   0.44896   0.00000  Uiso   1.00
C541   C     0.50024   0.08672   0.50007   0.00000  Uiso   1.00
C542   C     0.48508   0.02112   0.53709   0.00000  Uiso   1.00
C543   C     0.50014   0.29082   0.50011   0.00000  Uiso   1.00
C544   C     0.50079   0.04255   0.50035   0.00000  Uiso   1.00
C545   C     0.53532   0.19079   0.36197   0.00000  Uiso   1.00
C546   C     0.46387   0.14314   0.63799   0.00000  Uiso   1.00
C547   C     0.53734   0.18912   0.64752   0.00000  Uiso   1.00
C548   C     0.46438   0.14238   0.35296   0.00000  Uiso   1.00
C549   C     0.56955   0.21929   0.39054   0.00000  Uiso   1.00
C550   C     0.42530   0.11860   0.60864   0.00000  Uiso   1.00
C551   C     0.62470   0.19546   0.64051   0.00000  Uiso   1.00
C552   C     0.49999   0.24663   0.50002   0.00000  Uiso   1.00
C553   C     0.66571   0.22510   0.62562   0.00000  Uiso   1.00
C554   C     0.42746   0.07854   0.36868   0.00000  Uiso   1.00
C555   C     0.37212   0.05967   0.35928   0.00000  Uiso   1.00
C556   C     0.40043   0.16650   0.48802   0.00000  Uiso   1.00
C557   C     0.59954   0.16667   0.51191   0.00000  Uiso   1.00
C558   C     0.34529   0.16617   0.48153   0.00000  Uiso   1.00
C559   C     0.65462   0.16669   0.51813   0.00000  Uiso   1.00
C560   C     0.51683   0.02163   0.46381   0.00000  Uiso   1.00
C561   C     0.48490   0.31175   0.53703   0.00000  Uiso   1.00
C562   C     0.51586   0.31229   0.46343   0.00000  Uiso   1.00
H563   H     0.65798   0.16548   0.44677   0.00000  Uiso   1.00
H564   H     0.37164   0.21052   0.63143   0.00000  Uiso   1.00
H565   H     0.65530   0.23263   0.58896   0.00000  Uiso   1.00
H566   H     0.44613   0.06635   0.40179   0.00000  Uiso   1.00
H567   H     0.45062   0.06711   0.34255   0.00000  Uiso   1.00
H568   H     0.35095   0.07153   0.65997   0.00000  Uiso   1.00
H569   H     0.37413   0.02520   0.35730   0.00000  Uiso   1.00
H570   H     0.34984   0.06802   0.38712   0.00000  Uiso   1.00
H571   H     0.34199   0.16728   0.55275   0.00000  Uiso   1.00
H572   H     0.53011   0.03813   0.43571   0.00000  Uiso   1.00
H573   H     0.47231   0.29522   0.56543   0.00000  Uiso   1.00
H574   H     0.52775   0.29629   0.43475   0.00000  Uiso   1.00
H575   H     0.47251   0.03722   0.56549   0.00000  Uiso   1.00
H576   H     0.62658   0.16484   0.62349   0.00000  Uiso   1.00
H577   H     0.63591   0.19026   0.34428   0.00000  Uiso   1.00
H578   H     0.33424   0.25446   0.64561   0.00000  Uiso   1.00
N579   N     0.49999   0.16666   0.61907   0.00000  Uiso   1.00
N580   N     0.50001   0.16668   0.38093   0.00000  Uiso   1.00
N581   N     0.59750   0.24211   0.41317   0.00000  Uiso   1.00
N582   N     0.39451   0.09843   0.58537   0.00000  Uiso   1.00
O583   O     0.50000   0.10558   0.53821   0.00000  Uiso   1.00
O584   O     0.42424   0.12246   0.37148   0.00000  Uiso   1.00
O585   O     0.50000   0.22775   0.46179   0.00000  Uiso   1.00
O586   O     0.50000   0.10559   0.46176   0.00000  Uiso   1.00
O587   O     0.50000   0.22774   0.53824   0.00000  Uiso   1.00
O588   O     0.42392   0.16666   0.52928   0.00000  Uiso   1.00
O589   O     0.57608   0.16667   0.47072   0.00000  Uiso   1.00
O590   O     0.42392   0.16667   0.45284   0.00000  Uiso   1.00
O591   O     0.57608   0.16666   0.54716   0.00000  Uiso   1.00
O592   O     0.57418   0.21292   0.62893   0.00000  Uiso   1.00
Zn593  Zn    0.50000   0.16666   0.55104   0.00000  Uiso   1.00
Zn594  Zn    0.50000   0.16667   0.44896   0.00000  Uiso   1.00
C595   C     0.83358   0.08672   0.50007   0.00000  Uiso   1.00
C596   C     0.81841   0.02112   0.53709   0.00000  Uiso   1.00
C597   C     0.83348   0.29082   0.50011   0.00000  Uiso   1.00
C598   C     0.83413   0.04255   0.50035   0.00000  Uiso   1.00
C599   C     0.86865   0.19079   0.36197   0.00000  Uiso   1.00
C600   C     0.79721   0.14314   0.63799   0.00000  Uiso   1.00
C601   C     0.87067   0.18912   0.64752   0.00000  Uiso   1.00
C602   C     0.79771   0.14238   0.35296   0.00000  Uiso   1.00
C603   C     0.90289   0.21929   0.39054   0.00000  Uiso   1.00
C604   C     0.75864   0.11860   0.60864   0.00000  Uiso   1.00
C605   C     0.95803   0.19546   0.64051   0.00000  Uiso   1.00
C606   C     0.83333   0.24663   0.50002   0.00000  Uiso   1.00
C607   C     0.99904   0.22510   0.62562   0.00000  Uiso   1.00
C608   C     0.76079   0.07854   0.36868   0.00000  Uiso   1.00
C609   C     0.70545   0.05967   0.35928   0.00000  Uiso   1.00
C610   C     0.73376   0.16650   0.48802   0.00000  Uiso   1.00
C611   C     0.93288   0.16667   0.51191   0.00000  Uiso   1.00
C612   C     0.67862   0.16617   0.48153   0.00000  Uiso   1.00
C613   C     0.98795   0.16669   0.51813   0.00000  Uiso   1.00
C614   C     0.85016   0.02163   0.46381   0.00000  Uiso   1.00
C615   C     0.81824   0.31175   0.53703   0.00000  Uiso   1.00
C616   C     0.84919   0.31229   0.46343   0.00000  Uiso   1.00
H617   H     0.99131   0.16548   0.44677   0.00000  Uiso   1.00
H618   H     0.70498   0.21052   0.63143   0.00000  Uiso   1.00
H619   H     0.98863   0.23263   0.58896   0.00000  Uiso   1.00
H620   H     0.77946   0.06635   0.40179   0.00000  Uiso   1.00
H621   H     0.78396   0.06711   0.34255   0.00000  Uiso   1.00
H622   H     0.68428   0.07153   0.65997   0.00000  Uiso   1.00
H623   H     0.70746   0.02520   0.35730   0.00000  Uiso   1.00
H624   H     0.68318   0.06802   0.38712   0.00000  Uiso   1.00
H625   H     0.67532   0.16728   0.55275   0.00000  Uiso   1.00
H626   H     0.86344   0.03813   0.43571   0.00000  Uiso   1.00
H627   H     0.80565   0.29522   0.56543   0.00000  Uiso   1.00
H628   H     0.86108   0.29629   0.43475   0.00000  Uiso   1.00
H629   H     0.80585   0.03722   0.56549   0.00000  Uiso   1.00
H630   H     0.95991   0.16484   0.62349   0.00000  Uiso   1.00
H631   H     0.96924   0.19026   0.34428   0.00000  Uiso   1.00
H632   H     0.66757   0.25446   0.64561   0.00000  Uiso   1.00
N633   N     0.83332   0.16666   0.61907   0.00000  Uiso   1.00
N634   N     0.83335   0.16668   0.38093   0.00000  Uiso   1.00
N635   N     0.93083   0.24211   0.41317   0.00000  Uiso   1.00
N636   N     0.72784   0.09843   0.58537   0.00000  Uiso   1.00
O637   O     0.83333   0.10558   0.53821   0.00000  Uiso   1.00
O638   O     0.75757   0.12246   0.37148   0.00000  Uiso   1.00
O639   O     0.83334   0.22775   0.46179   0.00000  Uiso   1.00
O640   O     0.83333   0.10559   0.46176   0.00000  Uiso   1.00
O641   O     0.83334   0.22774   0.53824   0.00000  Uiso   1.00
O642   O     0.75725   0.16666   0.52928   0.00000  Uiso   1.00
O643   O     0.90942   0.16667   0.47072   0.00000  Uiso   1.00
O644   O     0.75725   0.16667   0.45284   0.00000  Uiso   1.00
O645   O     0.90942   0.16666   0.54716   0.00000  Uiso   1.00
O646   O     0.90752   0.21292   0.62893   0.00000  Uiso   1.00
Zn647  Zn    0.83333   0.16666   0.55104   0.00000  Uiso   1.00
Zn648  Zn    0.83333   0.16667   0.44896   0.00000  Uiso   1.00
C649   C     0.16691   0.42005   0.50007   0.00000  Uiso   1.00
C650   C     0.15174   0.35445   0.53709   0.00000  Uiso   1.00
C651   C     0.16681   0.62416   0.50011   0.00000  Uiso   1.00
C652   C     0.16746   0.37589   0.50035   0.00000  Uiso   1.00
C653   C     0.20199   0.52413   0.36197   0.00000  Uiso   1.00
C654   C     0.13054   0.47648   0.63799   0.00000  Uiso   1.00
C655   C     0.20401   0.52245   0.64752   0.00000  Uiso   1.00
C656   C     0.13104   0.47571   0.35296   0.00000  Uiso   1.00
C657   C     0.23622   0.55262   0.39054   0.00000  Uiso   1.00
C658   C     0.09197   0.45194   0.60864   0.00000  Uiso   1.00
C659   C     0.29136   0.52879   0.64051   0.00000  Uiso   1.00
C660   C     0.16666   0.57996   0.50002   0.00000  Uiso   1.00
C661   C     0.33237   0.55843   0.62562   0.00000  Uiso   1.00
C662   C     0.09412   0.41187   0.36868   0.00000  Uiso   1.00
C663   C     0.03878   0.39300   0.35928   0.00000  Uiso   1.00
C664   C     0.06710   0.49984   0.48802   0.00000  Uiso   1.00
C665   C     0.26621   0.50000   0.51191   0.00000  Uiso   1.00
C666   C     0.01196   0.49950   0.48153   0.00000  Uiso   1.00
C667   C     0.32129   0.50002   0.51813   0.00000  Uiso   1.00
C668   C     0.18349   0.35496   0.46381   0.00000  Uiso   1.00
C669   C     0.15157   0.64508   0.53703   0.00000  Uiso   1.00
C670   C     0.18253   0.64563   0.46343   0.00000  Uiso   1.00
H671   H     0.32465   0.49882   0.44677   0.00000  Uiso   1.00
H672   H     0.03831   0.54385   0.63143   0.00000  Uiso   1.00
H673   H     0.32197   0.56597   0.58896   0.00000  Uiso   1.00
H674   H     0.11280   0.39968   0.40179   0.00000  Uiso   1.00
H675   H     0.11729   0.40044   0.34255   0.00000  Uiso   1.00
H676   H     0.01761   0.40486   0.65997   0.00000  Uiso   1.00
H677   H     0.04079   0.35853   0.35730   0.00000  Uiso   1.00
H678   H     0.01651   0.40135   0.38712   0.00000  Uiso   1.00
H679   H     0.00865   0.50061   0.55275   0.00000  Uiso   1.00
H680   H     0.19678   0.37146   0.43571   0.00000  Uiso   1.00
H681   H     0.13898   0.62855   0.56543   0.00000  Uiso   1.00
H682   H     0.19441   0.62962   0.43475   0.00000  Uiso   1.00
H683   H     0.13918   0.37056   0.56549   0.00000  Uiso   1.00
H684   H     0.29324   0.49817   0.62349   0.00000  Uiso   1.00
H685   H     0.30257   0.52359   0.34428   0.00000  Uiso   1.00
H686   H     0.00090   0.58779   0.64561   0.00000  Uiso   1.00
N687   N     0.16665   0.49999   0.61907   0.00000  Uiso   1.00
N688   N     0.16668   0.50001   0.38093   0.00000  Uiso   1.00
N689   N     0.26416   0.57544   0.41317   0.00000  Uiso   1.00
N690   N     0.06117   0.43177   0.58537   0.00000  Uiso   1.00
O691   O     0.16666   0.43892   0.53821   0.00000  Uiso   1.00
O692   O     0.09090   0.45580   0.37148   0.00000  Uiso   1.00
O693   O     0.16667   0.56108   0.46179   0.00000  Uiso   1.00
O694   O     0.16666   0.43893   0.46176   0.00000  Uiso   1.00
O695   O     0.16667   0.56107   0.53824   0.00000  Uiso   1.00
O696   O     0.09058   0.50000   0.52928   0.00000  Uiso   1.00
O697   O     0.24275   0.50000   0.47072   0.00000  Uiso   1.00
O698   O     0.09058   0.50000   0.45284   0.00000  Uiso   1.00
O699   O     0.24275   0.50000   0.54716   0.00000  Uiso   1.00
O700   O     0.24085   0.54625   0.62893   0.00000  Uiso   1.00
Zn701  Zn    0.16667   0.49999   0.55104   0.00000  Uiso   1.00
Zn702  Zn    0.16667   0.50001   0.44896   0.00000  Uiso   1.00
C703   C     0.50024   0.42005   0.50007   0.00000  Uiso   1.00
C704   C     0.48508   0.35445   0.53709   0.00000  Uiso   1.00
C705   C     0.50014   0.62416   0.50011   0.00000  Uiso   1.00
C706   C     0.50079   0.37589   0.50035   0.00000  Uiso   1.00
C707   C     0.53532   0.52413   0.36197   0.00000  Uiso   1.00
C708   C     0.46387   0.47648   0.63799   0.00000  Uiso   1.00
C709   C     0.53734   0.52245   0.64752   0.00000  Uiso   1.00
C710   C     0.46438   0.47571   0.35296   0.00000  Uiso   1.00
C711   C     0.56955   0.55262   0.39054   0.00000  Uiso   1.00
C712   C     0.42530   0.45194   0.60864   0.00000  Uiso   1.00
C713   C     0.62470   0.52879   0.64051   0.00000  Uiso   1.00
C714   C     0.49999   0.57996   0.50002   0.00000  Uiso   1.00
C715   C     0.66571   0.55843   0.62562   0.00000  Uiso   1.00
C716   C     0.42746   0.41187   0.36868   0.00000  Uiso   1.00
C717   C     0.37212   0.39300   0.35928   0.00000  Uiso   1.00
C718   C     0.40043   0.49984   0.48802   0.00000  Uiso   1.00
C719   C     0.59954   0.50000   0.51191   0.00000  Uiso   1.00
C720   C     0.34529   0.49950   0.48153   0.00000  Uiso   1.00
C721   C     0.65462   0.50002   0.51813   0.00000  Uiso   1.00
C722   C     0.51683   0.35496   0.46381   0.00000  Uiso   1.00
C723   C     0.48490   0.64508   0.53703   0.00000  Uiso   1.00
C724   C     0.51586   0.64563   0.46343   0.00000  Uiso   1.00
H725   H     0.65798   0.49882   0.44677   0.00000  Uiso   1.00
H726   H     0.37164   0.54385   0.63143   0.00000  Uiso   1.00
H727   H     0.65530   0.56597   0.58896   0.00000  Uiso   1.00
H728   H     0.44613   0.39968   0.40179   0.00000  Uiso   1.00
H729   H     0.45062   0.40044   0.34255   0.00000  Uiso   1.00
H730   H     0.35095   0.40486   0.65997   0.00000  Uiso   1.00
H731   H     0.37413   0.35853   0.35730   0.00000  Uiso   1.00
H732   H     0.34984   0.40135   0.38712   0.00000  Uiso   1.00
H733   H     0.34199   0.50061   0.55275   0.00000  Uiso   1.00
H734   H     0.53011   0.37146   0.43571   0.00000  Uiso   1.00
H735   H     0.47231   0.62855   0.56543   0.00000  Uiso   1.00
H736   H     0.52775   0.62962   0.43475   0.00000  Uiso   1.00
H737   H     0.47251   0.37056   0.56549   0.00000  Uiso   1.00
H738   H     0.62658   0.49817   0.62349   0.00000  Uiso   1.00
H739   H     0.63591   0.52359   0.34428   0.00000  Uiso   1.00
H740   H     0.33424   0.58779   0.64561   0.00000  Uiso   1.00
N741   N     0.49999   0.49999   0.61907   0.00000  Uiso   1.00
N742   N     0.50001   0.50001   0.38093   0.00000  Uiso   1.00
N743   N     0.59750   0.57544   0.41317   0.00000  Uiso   1.00
N744   N     0.39451   0.43177   0.58537   0.00000  Uiso   1.00
O745   O     0.50000   0.43892   0.53821   0.00000  Uiso   1.00
O746   O     0.42424   0.45580   0.37148   0.00000  Uiso   1.00
O747   O     0.50000   0.56108   0.46179   0.00000  Uiso   1.00
O748   O     0.50000   0.43893   0.46176   0.00000  Uiso   1.00
O749   O     0.50000   0.56107   0.53824   0.00000  Uiso   1.00
O750   O     0.42392   0.50000   0.52928   0.00000  Uiso   1.00
O751   O     0.57608   0.50000   0.47072   0.00000  Uiso   1.00
O752   O     0.42392   0.50000   0.45284   0.00000  Uiso   1.00
O753   O     0.57608   0.50000   0.54716   0.00000  Uiso   1.00
O754   O     0.57418   0.54625   0.62893   0.00000  Uiso   1.00
Zn755  Zn    0.50000   0.49999   0.55104   0.00000  Uiso   1.00
Zn756  Zn    0.50000   0.50001   0.44896   0.00000  Uiso   1.00
C757   C     0.83358   0.42005   0.50007   0.00000  Uiso   1.00
C758   C     0.81841   0.35445   0.53709   0.00000  Uiso   1.00
C759   C     0.83348   0.62416   0.50011   0.00000  Uiso   1.00
C760   C     0.83413   0.37589   0.50035   0.00000  Uiso   1.00
C761   C     0.86865   0.52413   0.36197   0.00000  Uiso   1.00
C762   C     0.79721   0.47648   0.63799   0.00000  Uiso   1.00
C763   C     0.87067   0.52245   0.64752   0.00000  Uiso   1.00
C764   C     0.79771   0.47571   0.35296   0.00000  Uiso   1.00
C765   C     0.90289   0.55262   0.39054   0.00000  Uiso   1.00
C766   C     0.75864   0.45194   0.60864   0.00000  Uiso   1.00
C767   C     0.95803   0.52879   0.64051   0.00000  Uiso   1.00
C768   C     0.83333   0.57996   0.50002   0.00000  Uiso   1.00
C769   C     0.99904   0.55843   0.62562   0.00000  Uiso   1.00
C770   C     0.76079   0.41187   0.36868   0.00000  Uiso   1.00
C771   C     0.70545   0.39300   0.35928   0.00000  Uiso   1.00
C772   C     0.73376   0.49984   0.48802   0.00000  Uiso   1.00
C773   C     0.93288   0.50000   0.51191   0.00000  Uiso   1.00
C774   C     0.67862   0.49950   0.48153   0.00000  Uiso   1.00
C775   C     0.98795   0.50002   0.51813   0.00000  Uiso   1.00
C776   C     0.85016   0.35496   0.46381   0.00000  Uiso   1.00
C777   C     0.81824   0.64508   0.53703   0.00000  Uiso   1.00
C778   C     0.84919   0.64563   0.46343   0.00000  Uiso   1.00
H779   H     0.99131   0.49882   0.44677   0.00000  Uiso   1.00
H780   H     0.70498   0.54385   0.63143   0.00000  Uiso   1.00
H781   H     0.98863   0.56597   0.58896   0.00000  Uiso   1.00
H782   H     0.77946   0.39968   0.40179   0.00000  Uiso   1.00
H783   H     0.78396   0.40044   0.34255   0.00000  Uiso   1.00
H784   H     0.68428   0.40486   0.65997   0.00000  Uiso   1.00
H785   H     0.70746   0.35853   0.35730   0.00000  Uiso   1.00
H786   H     0.68318   0.40135   0.38712   0.00000  Uiso   1.00
H787   H     0.67532   0.50061   0.55275   0.00000  Uiso   1.00
H788   H     0.86344   0.37146   0.43571   0.00000  Uiso   1.00
H789   H     0.80565   0.62855   0.56543   0.00000  Uiso   1.00
H790   H     0.86108   0.62962   0.43475   0.00000  Uiso   1.00
H791   H     0.80585   0.37056   0.56549   0.00000  Uiso   1.00
H792   H     0.95991   0.49817   0.62349   0.00000  Uiso   1.00
H793   H     0.96924   0.52359   0.34428   0.00000  Uiso   1.00
H794   H     0.66757   0.58779   0.64561   0.00000  Uiso   1.00
N795   N     0.83332   0.49999   0.61907   0.00000  Uiso   1.00
N796   N     0.83335   0.50001   0.38093   0.00000  Uiso   1.00
N797   N     0.93083   0.57544   0.41317   0.00000  Uiso   1.00
N798   N     0.72784   0.43177   0.58537   0.00000  Uiso   1.00
O799   O     0.83333   0.43892   0.53821   0.00000  Uiso   1.00
O800   O     0.75757   0.45580   0.37148   0.00000  Uiso   1.00
O801   O     0.83334   0.56108   0.46179   0.00000  Uiso   1.00
O802   O     0.83333   0.43893   0.46176   0.00000  Uiso   1.00
O803   O     0.83334   0.56107   0.53824   0.00000  Uiso   1.00
O804   O     0.75725   0.50000   0.52928   0.00000  Uiso   1.00
O805   O     0.90942   0.50000   0.47072   0.00000  Uiso   1.00
O806   O     0.75725   0.50000   0.45284   0.00000  Uiso   1.00
O807   O     0.90942   0.50000   0.54716   0.00000  Uiso   1.00
O808   O     0.90752   0.54625   0.62893   0.00000  Uiso   1.00
Zn809  Zn    0.83333   0.49999   0.55104   0.00000  Uiso   1.00
Zn810  Zn    0.83333   0.50001   0.44896   0.00000  Uiso   1.00
C811   C     0.16691   0.75338   0.50007   0.00000  Uiso   1.00
C812   C     0.15174   0.68779   0.53709   0.00000  Uiso   1.00
C813   C     0.16681   0.95749   0.50011   0.00000  Uiso   1.00
C814   C     0.16746   0.70922   0.50035   0.00000  Uiso   1.00
C815   C     0.20199   0.85746   0.36197   0.00000  Uiso   1.00
C816   C     0.13054   0.80981   0.63799   0.00000  Uiso   1.00
C817   C     0.20401   0.85579   0.64752   0.00000  Uiso   1.00
C818   C     0.13104   0.80905   0.35296   0.00000  Uiso   1.00
C819   C     0.23622   0.88595   0.39054   0.00000  Uiso   1.00
C820   C     0.09197   0.78527   0.60864   0.00000  Uiso   1.00
C821   C     0.29136   0.86212   0.64051   0.00000  Uiso   1.00
C822   C     0.16666   0.91330   0.50002   0.00000  Uiso   1.00
C823   C     0.33237   0.89176   0.62562   0.00000  Uiso   1.00
C824   C     0.09412   0.74521   0.36868   0.00000  Uiso   1.00
C825   C     0.03878   0.72634   0.35928   0.00000  Uiso   1.00
C826   C     0.06710   0.83317   0.48802   0.00000  Uiso   1.00
C827   C     0.26621   0.83334   0.51191   0.00000  Uiso   1.00
C828   C     0.01196   0.83283   0.48153   0.00000  Uiso   1.00
C829   C     0.32129   0.83336   0.51813   0.00000  Uiso   1.00
C830   C     0.18349   0.68829   0.46381   0.00000  Uiso   1.00
C831   C     0.15157   0.97841   0.53703   0.00000  Uiso   1.00
C832   C     0.18253   0.97896   0.46343   0.00000  Uiso   1.00
H833   H     0.32465   0.83215   0.44677   0.00000  Uiso   1.00
H834   H     0.03831   0.87719   0.63143   0.00000  Uiso   1.00
H835   H     0.32197   0.89930   0.58896   0.00000  Uiso   1.00
H836   H     0.11280   0.73302   0.40179   0.00000  Uiso   1.00
H837   H     0.11729   0.73377   0.34255   0.00000  Uiso   1.00
H838   H     0.01761   0.73820   0.65997   0.00000  Uiso   1.00
H839   H     0.04079   0.69187   0.35730   0.00000  Uiso   1.00
H840   H     0.01651   0.73468   0.38712   0.00000  Uiso   1.00
H841   H     0.00865   0.83395   0.55275   0.00000  Uiso   1.00
H842   H     0.19678   0.70479   0.43571   0.00000  Uiso   1.00
H843   H     0.13898   0.96189   0.56543   0.00000  Uiso   1.00
H844   H     0.19441   0.96295   0.43475   0.00000  Uiso   1.00
H845   H     0.13918   0.70389   0.56549   0.00000  Uiso   1.00
H846   H     0.29324   0.83150   0.62349   0.00000  Uiso   1.00
H847   H     0.30257   0.85693   0.34428   0.00000  Uiso   1.00
H848   H     0.00090   0.92112   0.64561   0.00000  Uiso   1.00
N849   N     0.16665   0.83332   0.61907   0.00000  Uiso   1.00
N850   N     0.16668   0.83334   0.38093   0.00000  Uiso   1.00
N851   N     0.26416   0.90878   0.41317   0.00000  Uiso   1.00
N852   N     0.06117   0.76510   0.58537   0.00000  Uiso   1.00
O853   O     0.16666   0.77225   0.53821   0.00000  Uiso   1.00
O854   O     0.09090   0.78913   0.37148   0.00000  Uiso   1.00
O855   O     0.16667   0.89442   0.46179   0.00000  Uiso   1.00
O856   O     0.16666   0.77226   0.46176   0.00000  Uiso   1.00
O857   O     0.16667   0.89441   0.53824   0.00000  Uiso   1.00
O858   O     0.09058   0.83333   0.52928   0.00000  Uiso   1.00
O859   O     0.24275   0.83334   0.47072   0.00000  Uiso   1.00
O860   O     0.09058   0.83334   0.45284   0.00000  Uiso   1.00
O861   O     0.24275   0.83333   0.54716   0.00000  Uiso   1.00
O862   O     0.24085   0.87958   0.62893   0.00000  Uiso   1.00
Zn863  Zn    0.16667   0.83333   0.55104   0.00000  Uiso   1.00
Zn864  Zn    0.16667   0.83334   0.44896   0.00000  Uiso   1.00
C865   C     0.50024   0.75338   0.50007   0.00000  Uiso   1.00
C866   C     0.48508   0.68779   0.53709   0.00000  Uiso   1.00
C867   C     0.50014   0.95749   0.50011   0.00000  Uiso   1.00
C868   C     0.50079   0.70922   0.50035   0.00000  Uiso   1.00
C869   C     0.53532   0.85746   0.36197   0.00000  Uiso   1.00
C870   C     0.46387   0.80981   0.63799   0.00000  Uiso   1.00
C871   C     0.53734   0.85579   0.64752   0.00000  Uiso   1.00
C872   C     0.46438   0.80905   0.35296   0.00000  Uiso   1.00
C873   C     0.56955   0.88595   0.39054   0.00000  Uiso   1.00
C874   C     0.42530   0.78527   0.60864   0.00000  Uiso   1.00
C875   C     0.62470   0.86212   0.64051   0.00000  Uiso   1.00
C876   C     0.49999   0.91330   0.50002   0.00000  Uiso   1.00
C877   C     0.66571   0.89176   0.62562   0.00000  Uiso   1.00
C878   C     0.42746   0.74521   0.36868   0.00000  Uiso   1.00
C879   C     0.37212   0.72634   0.35928   0.00000  Uiso   1.00
C880   C     0.40043   0.83317   0.48802   0.00000  Uiso   1.00
C881   C     0.59954   0.83334   0.51191   0.00000  Uiso   1.00
C882   C     0.34529   0.83283   0.48153   0.00000  Uiso   1.00
C883   C     0.65462   0.83336   0.51813   0.00000  Uiso   1.00
C884   C     0.51683   0.68829   0.46381   0.00000  Uiso   1.00
C885   C     0.48490   0.97841   0.53703   0.00000  Uiso   1.00
C886   C     0.51586   0.97896   0.46343   0.00000  Uiso   1.00
H887   H     0.65798   0.83215   0.44677   0.00000  Uiso   1.00
H888   H     0.37164   0.87719   0.63143   0.00000  Uiso   1.00
H889   H     0.65530   0.89930   0.58896   0.00000  Uiso   1.00
H890   H     0.44613   0.73302   0.40179   0.00000  Uiso   1.00
H891   H     0.45062   0.73377   0.34255   0.00000  Uiso   1.00
H892   H     0.35095   0.73820   0.65997   0.00000  Uiso   1.00
H893   H     0.37413   0.69187   0.35730   0.00000  Uiso   1.00
H894   H     0.34984   0.73468   0.38712   0.00000  Uiso   1.00
H895   H     0.34199   0.83395   0.55275   0.00000  Uiso   1.00
H896   H     0.53011   0.70479   0.43571   0.00000  Uiso   1.00
H897   H     0.47231   0.96189   0.56543   0.00000  Uiso   1.00
H898   H     0.52775   0.96295   0.43475   0.00000  Uiso   1.00
H899   H     0.47251   0.70389   0.56549   0.00000  Uiso   1.00
H900   H     0.62658   0.83150   0.62349   0.00000  Uiso   1.00
H901   H     0.63591   0.85693   0.34428   0.00000  Uiso   1.00
H902   H     0.33424   0.92112   0.64561   0.00000  Uiso   1.00
N903   N     0.49999   0.83332   0.61907   0.00000  Uiso   1.00
N904   N     0.50001   0.83334   0.38093   0.00000  Uiso   1.00
N905   N     0.59750   0.90878   0.41317   0.00000  Uiso   1.00
N906   N     0.39451   0.76510   0.58537   0.00000  Uiso   1.00
O907   O     0.50000   0.77225   0.53821   0.00000  Uiso   1.00
O908   O     0.42424   0.78913   0.37148   0.00000  Uiso   1.00
O909   O     0.50000   0.89442   0.46179   0.00000  Uiso   1.00
O910   O     0.50000   0.77226   0.46176   0.00000  Uiso   1.00
O911   O     0.50000   0.89441   0.53824   0.00000  Uiso   1.00
O912   O     0.42392   0.83333   0.52928   0.00000  Uiso   1.00
O913   O     0.57608   0.83334   0.47072   0.00000  Uiso   1.00
O914   O     0.42392   0.83334   0.45284   0.00000  Uiso   1.00
O915   O     0.57608   0.83333   0.54716   0.00000  Uiso   1.00
O916   O     0.57418   0.87958   0.62893   0.00000  Uiso   1.00
Zn917  Zn    0.50000   0.83333   0.55104   0.00000  Uiso   1.00
Zn918  Zn    0.50000   0.83334   0.44896   0.00000  Uiso   1.00
C919   C     0.83358   0.75338   0.50007   0.00000  Uiso   1.00
C920   C     0.81841   0.68779   0.53709   0.00000  Uiso   1.00
C921   C     0.83348   0.95749   0.50011   0.00000  Uiso   1.00
C922   C     0.83413   0.70922   0.50035   0.00000  Uiso   1.00
C923   C     0.86865   0.85746   0.36197   0.00000  Uiso   1.00
C924   C     0.79721   0.80981   0.63799   0.00000  Uiso   1.00
C925   C     0.87067   0.85579   0.64752   0.00000  Uiso   1.00
C926   C     0.79771   0.80905   0.35296   0.00000  Uiso   1.00
C927   C     0.90289   0.88595   0.39054   0.00000  Uiso   1.00
C928   C     0.75864   0.78527   0.60864   0.00000  Uiso   1.00
C929   C     0.95803   0.86212   0.64051   0.00000  Uiso   1.00
C930   C     0.83333   0.91330   0.50002   0.00000  Uiso   1.00
C931   C     0.99904   0.89176   0.62562   0.00000  Uiso   1.00
C932   C     0.76079   0.74521   0.36868   0.00000  Uiso   1.00
C933   C     0.70545   0.72634   0.35928   0.00000  Uiso   1.00
C934   C     0.73376   0.83317   0.48802   0.00000  Uiso   1.00
C935   C     0.93288   0.83334   0.51191   0.00000  Uiso   1.00
C936   C     0.67862   0.83283   0.48153   0.00000  Uiso   1.00
C937   C     0.98795   0.83336   0.51813   0.00000  Uiso   1.00
C938   C     0.85016   0.68829   0.46381   0.00000  Uiso   1.00
C939   C     0.81824   0.97841   0.53703   0.00000  Uiso   1.00
C940   C     0.84919   0.97896   0.46343   0.00000  Uiso   1.00
H941   H     0.99131   0.83215   0.44677   0.00000  Uiso   1.00
H942   H     0.70498   0.87719   0.63143   0.00000  Uiso   1.00
H943   H     0.98863   0.89930   0.58896   0.00000  Uiso   1.00
H944   H     0.77946   0.73302   0.40179   0.00000  Uiso   1.00
H945   H     0.78396   0.73377   0.34255   0.00000  Uiso   1.00
H946   H     0.68428   0.73820   0.65997   0.00000  Uiso   1.00
H947   H     0.70746   0.69187   0.35730   0.00000  Uiso   1.00
H948   H     0.68318   0.73468   0.38712   0.00000  Uiso   1.00
H949   H     0.67532   0.83395   0.55275   0.00000  Uiso   1.00
H950   H     0.86344   0.70479   0.43571   0.00000  Uiso   1.00
H951   H     0.80565   0.96189   0.56543   0.00000  Uiso   1.00
H952   H     0.86108   0.96295   0.43475   0.00000  Uiso   1.00
H953   H     0.80585   0.70389   0.56549   0.00000  Uiso   1.00
H954   H     0.95991   0.83150   0.62349   0.00000  Uiso   1.00
H955   H     0.96924   0.85693   0.34428   0.00000  Uiso   1.00
H956   H     0.66757   0.92112   0.64561   0.00000  Uiso   1.00
N957   N     0.83332   0.83332   0.61907   0.00000  Uiso   1.00
N958   N     0.83335   0.83334   0.38093   0.00000  Uiso   1.00
N959   N     0.93083   0.90878   0.41317   0.00000  Uiso   1.00
N960   N     0.72784   0.76510   0.58537   0.00000  Uiso   1.00
O961   O     0.83333   0.77225   0.53821   0.00000  Uiso   1.00
O962   O     0.75757   0.78913   0.37148   0.00000  Uiso   1.00
O963   O     0.83334   0.89442   0.46179   0.00000  Uiso   1.00
O964   O     0.83333   0.77226   0.46176   0.00000  Uiso   1.00
O965   O     0.83334   0.89441   0.53824   0.00000  Uiso   1.00
O966   O     0.75725   0.83333   0.52928   0.00000  Uiso   1.00
O967   O     0.90942   0.83334   0.47072   0.00000  Uiso   1.00
O968   O     0.75725   0.83334   0.45284   0.00000  Uiso   1.00
O969   O     0.90942   0.83333   0.54716   0.00000  Uiso   1.00
O970   O     0.90752   0.87958   0.62893   0.00000  Uiso   1.00
Zn971  Zn    0.83333   0.83333   0.55104   0.00000  Uiso   1.00
Zn972  Zn    0.83333   0.83334   0.44896   0.00000  Uiso   1.00
C973   C     0.16691   0.08672   0.83340   0.00000  Uiso   1.00
C974   C     0.15174   0.02112   0.87042   0.00000  Uiso   1.00
C975   C     0.16681   0.29082   0.83344   0.00000  Uiso   1.00
C976   C     0.16746   0.04255   0.83368   0.00000  Uiso   1.00
C977   C     0.20199   0.19079   0.69530   0.00000  Uiso   1.00
C978   C     0.13054   0.14314   0.97133   0.00000  Uiso   1.00
C979   C     0.20401   0.18912   0.98085   0.00000  Uiso   1.00
C980   C     0.13104   0.14238   0.68630   0.00000  Uiso   1.00
C981   C     0.23622   0.21929   0.72387   0.00000  Uiso   1.00
C982   C     0.09197   0.11860   0.94198   0.00000  Uiso   1.00
C983   C     0.29136   0.19546   0.97384   0.00000  Uiso   1.00
C984   C     0.16666   0.24663   0.83335   0.00000  Uiso   1.00
C985   C     0.33237   0.22510   0.95896   0.00000  Uiso   1.00
C986   C     0.09412   0.07854   0.70201   0.00000  Uiso   1.00
C987   C     0.03878   0.05967   0.69261   0.00000  Uiso   1.00
C988   C     0.06710   0.16650   0.82135   0.00000  Uiso   1.00
C989   C     0.26621   0.16667   0.84524   0.00000  Uiso   1.00
C990   C     0.01196   0.16617   0.81486   0.00000  Uiso   1.00
C991   C     0.32129   0.16669   0.85146   0.00000  Uiso   1.00
C992   C     0.18349   0.02163   0.79715   0.00000  Uiso   1.00
C993   C     0.15157   0.31175   0.87037   0.00000  Uiso   1.00
C994   C     0.18253   0.31229   0.79676   0.00000  Uiso   1.00
H995   H     0.32465   0.16548   0.78010   0.00000  Uiso   1.00
H996   H     0.03831   0.21052   0.96477   0.00000  Uiso   1.00
H997   H     0.32197   0.23263   0.92229   0.00000  Uiso   1.00
H998   H     0.11280   0.06635   0.73512   0.00000  Uiso   1.00
H999   H     0.11729   0.06711   0.67589   0.00000  Uiso   1.00
H1000  H     0.01761   0.07153   0.99330   0.00000  Uiso   1.00
H1001  H     0.04079   0.02520   0.69063   0.00000  Uiso   1.00
H1002  H     0.01651   0.06802   0.72045   0.00000  Uiso   1.00
H1003  H     0.00865   0.16728   0.88609   0.00000  Uiso   1.00
H1004  H     0.19678   0.03813   0.76904   0.00000  Uiso   1.00
H1005  H     0.13898   0.29522   0.89876   0.00000  Uiso   1.00
H1006  H     0.19441   0.29629   0.76808   0.00000  Uiso   1.00
H1007  H     0.13918   0.03722   0.89883   0.00000  Uiso   1.00
H1008  H     0.29324   0.16484   0.95682   0.00000  Uiso   1.00
H1009  H     0.30257   0.19026   0.67761   0.00000  Uiso   1.00
H1010  H     0.00090   0.25446   0.97894   0.00000  Uiso   1.00
N1011  N     0.16665   0.16666   0.95240   0.00000  Uiso   1.00
N1012  N     0.16668   0.16668   0.71427   0.00000  Uiso   1.00
N1013  N     0.26416   0.24211   0.74650   0.00000  Uiso   1.00
N1014  N     0.06117   0.09843   0.91870   0.00000  Uiso   1.00
O1015  O     0.16666   0.10558   0.87154   0.00000  Uiso   1.00
O1016  O     0.09090   0.12246   0.70481   0.00000  Uiso   1.00
O1017  O     0.16667   0.22775   0.79513   0.00000  Uiso   1.00
O1018  O     0.16666   0.10559   0.79510   0.00000  Uiso   1.00
O1019  O     0.16667   0.22774   0.87157   0.00000  Uiso   1.00
O1020  O     0.09058   0.16666   0.86261   0.00000  Uiso   1.00
O1021  O     0.24275   0.16667   0.80405   0.00000  Uiso   1.00
O1022  O     0.09058   0.16667   0.78617   0.00000  Uiso   1.00
O1023  O     0.24275   0.16666   0.88050   0.00000  Uiso   1.00
O1024  O     0.24085   0.21292   0.96226   0.00000  Uiso   1.00
Zn1025 Zn    0.16667   0.16666   0.88437   0.00000  Uiso   1.00
Zn1026 Zn    0.16667   0.16667   0.78229   0.00000  Uiso   1.00
C1027  C     0.50024   0.08672   0.83340   0.00000  Uiso   1.00
C1028  C     0.48508   0.02112   0.87042   0.00000  Uiso   1.00
C1029  C     0.50014   0.29082   0.83344   0.00000  Uiso   1.00
C1030  C     0.50079   0.04255   0.83368   0.00000  Uiso   1.00
C1031  C     0.53532   0.19079   0.69530   0.00000  Uiso   1.00
C1032  C     0.46387   0.14314   0.97133   0.00000  Uiso   1.00
C1033  C     0.53734   0.18912   0.98085   0.00000  Uiso   1.00
C1034  C     0.46438   0.14238   0.68630   0.00000  Uiso   1.00
C1035  C     0.56955   0.21929   0.72387   0.00000  Uiso   1.00
C1036  C     0.42530   0.11860   0.94198   0.00000  Uiso   1.00
C1037  C     0.62470   0.19546   0.97384   0.00000  Uiso   1.00
C1038  C     0.49999   0.24663   0.83335   0.00000  Uiso   1.00
C1039  C     0.66571   0.22510   0.95896   0.00000  Uiso   1.00
C1040  C     0.42746   0.07854   0.70201   0.00000  Uiso   1.00
C1041  C     0.37212   0.05967   0.69261   0.00000  Uiso   1.00
C1042  C     0.40043   0.16650   0.82135   0.00000  Uiso   1.00
C1043  C     0.59954   0.16667   0.84524   0.00000  Uiso   1.00
C1044  C     0.34529   0.16617   0.81486   0.00000  Uiso   1.00
C1045  C     0.65462   0.16669   0.85146   0.00000  Uiso   1.00
C1046  C     0.51683   0.02163   0.79715   0.00000  Uiso   1.00
C1047  C     0.48490   0.31175   0.87037   0.00000  Uiso   1.00
C1048  C     0.51586   0.31229   0.79676   0.00000  Uiso   1.00
H1049  H     0.65798   0.16548   0.78010   0.00000  Uiso   1.00
H1050  H     0.37164   0.21052   0.96477   0.00000  Uiso   1.00
H1051  H     0.65530   0.23263   0.92229   0.00000  Uiso   1.00
H1052  H     0.44613   0.06635   0.73512   0.00000  Uiso   1.00
H1053  H     0.45062   0.06711   0.67589   0.00000  Uiso   1.00
H1054  H     0.35095   0.07153   0.99330   0.00000  Uiso   1.00
H1055  H     0.37413   0.02520   0.69063   0.00000  Uiso   1.00
H1056  H     0.34984   0.06802   0.72045   0.00000  Uiso   1.00
H1057  H     0.34199   0.16728   0.88609   0.00000  Uiso   1.00
H1058  H     0.53011   0.03813   0.76904   0.00000  Uiso   1.00
H1059  H     0.47231   0.29522   0.89876   0.00000  Uiso   1.00
H1060  H     0.52775   0.29629   0.76808   0.00000  Uiso   1.00
H1061  H     0.47251   0.03722   0.89883   0.00000  Uiso   1.00
H1062  H     0.62658   0.16484   0.95682   0.00000  Uiso   1.00
H1063  H     0.63591   0.19026   0.67761   0.00000  Uiso   1.00
H1064  H     0.33424   0.25446   0.97894   0.00000  Uiso   1.00
N1065  N     0.49999   0.16666   0.95240   0.00000  Uiso   1.00
N1066  N     0.50001   0.16668   0.71427   0.00000  Uiso   1.00
N1067  N     0.59750   0.24211   0.74650   0.00000  Uiso   1.00
N1068  N     0.39451   0.09843   0.91870   0.00000  Uiso   1.00
O1069  O     0.50000   0.10558   0.87154   0.00000  Uiso   1.00
O1070  O     0.42424   0.12246   0.70481   0.00000  Uiso   1.00
O1071  O     0.50000   0.22775   0.79513   0.00000  Uiso   1.00
O1072  O     0.50000   0.10559   0.79510   0.00000  Uiso   1.00
O1073  O     0.50000   0.22774   0.87157   0.00000  Uiso   1.00
O1074  O     0.42392   0.16666   0.86261   0.00000  Uiso   1.00
O1075  O     0.57608   0.16667   0.80405   0.00000  Uiso   1.00
O1076  O     0.42392   0.16667   0.78617   0.00000  Uiso   1.00
O1077  O     0.57608   0.16666   0.88050   0.00000  Uiso   1.00
O1078  O     0.57418   0.21292   0.96226   0.00000  Uiso   1.00
Zn1079 Zn    0.50000   0.16666   0.88437   0.00000  Uiso   1.00
Zn1080 Zn    0.50000   0.16667   0.78229   0.00000  Uiso   1.00
C1081  C     0.83358   0.08672   0.83340   0.00000  Uiso   1.00
C1082  C     0.81841   0.02112   0.87042   0.00000  Uiso   1.00
C1083  C     0.83348   0.29082   0.83344   0.00000  Uiso   1.00
C1084  C     0.83413   0.04255   0.83368   0.00000  Uiso   1.00
C1085  C     0.86865   0.19079   0.69530   0.00000  Uiso   1.00
C1086  C     0.79721   0.14314   0.97133   0.00000  Uiso   1.00
C1087  C     0.87067   0.18912   0.98085   0.00000  Uiso   1.00
C1088  C     0.79771   0.14238   0.68630   0.00000  Uiso   1.00
C1089  C     0.90289   0.21929   0.72387   0.00000  Uiso   1.00
C1090  C     0.75864   0.11860   0.94198   0.00000  Uiso   1.00
C1091  C     0.95803   0.19546   0.97384   0.00000  Uiso   1.00
C1092  C     0.83333   0.24663   0.83335   0.00000  Uiso   1.00
C1093  C     0.99904   0.22510   0.95896   0.00000  Uiso   1.00
C1094  C     0.76079   0.07854   0.70201   0.00000  Uiso   1.00
C1095  C     0.70545   0.05967   0.69261   0.00000  Uiso   1.00
C1096  C     0.73376   0.16650   0.82135   0.00000  Uiso   1.00
C1097  C     0.93288   0.16667   0.84524   0.00000  Uiso   1.00
C1098  C     0.67862   0.16617   0.81486   0.00000  Uiso   1.00
C1099  C     0.98795   0.16669   0.85146   0.00000  Uiso   1.00
C1100  C     0.85016   0.02163   0.79715   0.00000  Uiso   1.00
C1101  C     0.81824   0.31175   0.87037   0.00000  Uiso   1.00
C1102  C     0.84919   0.31229   0.79676   0.00000  Uiso   1.00
H1103  H     0.99131   0.16548   0.78010   0.00000  Uiso   1.00
H1104  H     0.70498   0.21052   0.96477   0.00000  Uiso   1.00
H1105  H     0.98863   0.23263   0.92229   0.00000  Uiso   1.00
H1106  H     0.77946   0.06635   0.73512   0.00000  Uiso   1.00
H1107  H     0.78396   0.06711   0.67589   0.00000  Uiso   1.00
H1108  H     0.68428   0.07153   0.99330   0.00000  Uiso   1.00
H1109  H     0.70746   0.02520   0.69063   0.00000  Uiso   1.00
H1110  H     0.68318   0.06802   0.72045   0.00000  Uiso   1.00
H1111  H     0.67532   0.16728   0.88609   0.00000  Uiso   1.00
H1112  H     0.86344   0.03813   0.76904   0.00000  Uiso   1.00
H1113  H     0.80565   0.29522   0.89876   0.00000  Uiso   1.00
H1114  H     0.86108   0.29629   0.76808   0.00000  Uiso   1.00
H1115  H     0.80585   0.03722   0.89883   0.00000  Uiso   1.00
H1116  H     0.95991   0.16484   0.95682   0.00000  Uiso   1.00
H1117  H     0.96924   0.19026   0.67761   0.00000  Uiso   1.00
H1118  H     0.66757   0.25446   0.97894   0.00000  Uiso   1.00
N1119  N     0.83332   0.16666   0.95240   0.00000  Uiso   1.00
N1120  N     0.83335   0.16668   0.71427   0.00000  Uiso   1.00
N1121  N     0.93083   0.24211   0.74650   0.00000  Uiso   1.00
N1122  N     0.72784   0.09843   0.91870   0.00000  Uiso   1.00
O1123  O     0.83333   0.10558   0.87154   0.00000  Uiso   1.00
O1124  O     0.75757   0.12246   0.70481   0.00000  Uiso   1.00
O1125  O     0.83334   0.22775   0.79513   0.00000  Uiso   1.00
O1126  O     0.83333   0.10559   0.79510   0.00000  Uiso   1.00
O1127  O     0.83334   0.22774   0.87157   0.00000  Uiso   1.00
O1128  O     0.75725   0.16666   0.86261   0.00000  Uiso   1.00
O1129  O     0.90942   0.16667   0.80405   0.00000  Uiso   1.00
O1130  O     0.75725   0.16667   0.78617   0.00000  Uiso   1.00
O1131  O     0.90942   0.16666   0.88050   0.00000  Uiso   1.00
O1132  O     0.90752   0.21292   0.96226   0.00000  Uiso   1.00
Zn1133 Zn    0.83333   0.16666   0.88437   0.00000  Uiso   1.00
Zn1134 Zn    0.83333   0.16667   0.78229   0.00000  Uiso   1.00
C1135  C     0.16691   0.42005   0.83340   0.00000  Uiso   1.00
C1136  C     0.15174   0.35445   0.87042   0.00000  Uiso   1.00
C1137  C     0.16681   0.62416   0.83344   0.00000  Uiso   1.00
C1138  C     0.16746   0.37589   0.83368   0.00000  Uiso   1.00
C1139  C     0.20199   0.52413   0.69530   0.00000  Uiso   1.00
C1140  C     0.13054   0.47648   0.97133   0.00000  Uiso   1.00
C1141  C     0.20401   0.52245   0.98085   0.00000  Uiso   1.00
C1142  C     0.13104   0.47571   0.68630   0.00000  Uiso   1.00
C1143  C     0.23622   0.55262   0.72387   0.00000  Uiso   1.00
C1144  C     0.09197   0.45194   0.94198   0.00000  Uiso   1.00
C1145  C     0.29136   0.52879   0.97384   0.00000  Uiso   1.00
C1146  C     0.16666   0.57996   0.83335   0.00000  Uiso   1.00
C1147  C     0.33237   0.55843   0.95896   0.00000  Uiso   1.00
C1148  C     0.09412   0.41187   0.70201   0.00000  Uiso   1.00
C1149  C     0.03878   0.39300   0.69261   0.00000  Uiso   1.00
C1150  C     0.06710   0.49984   0.82135   0.00000  Uiso   1.00
C1151  C     0.26621   0.50000   0.84524   0.00000  Uiso   1.00
C1152  C     0.01196   0.49950   0.81486   0.00000  Uiso   1.00
C1153  C     0.32129   0.50002   0.85146   0.00000  Uiso   1.00
C1154  C     0.18349   0.35496   0.79715   0.00000  Uiso   1.00
C1155  C     0.15157   0.64508   0.87037   0.00000  Uiso   1.00
C1156  C     0.18253   0.64563   0.79676   0.00000  Uiso   1.00
H1157  H     0.32465   0.49882   0.78010   0.00000  Uiso   1.00
H1158  H     0.03831   0.54385   0.96477   0.00000  Uiso   1.00
H1159  H     0.32197   0.56597   0.92229   0.00000  Uiso   1.00
H1160  H     0.11280   0.39968   0.73512   0.00000  Uiso   1.00
H1161  H     0.11729   0.40044   0.67589   0.00000  Uiso   1.00
H1162  H     0.01761   0.40486   0.99330   0.00000  Uiso   1.00
H1163  H     0.04079   0.35853   0.69063   0.00000  Uiso   1.00
H1164  H     0.01651   0.40135   0.72045   0.00000  Uiso   1.00
H1165  H     0.00865   0.50061   0.88609   0.00000  Uiso   1.00
H1166  H     0.19678   0.37146   0.76904   0.00000  Uiso   1.00
H1167  H     0.13898   0.62855   0.89876   0.00000  Uiso   1.00
H1168  H     0.19441   0.62962   0.76808   0.00000  Uiso   1.00
H1169  H     0.13918   0.37056   0.89883   0.00000  Uiso   1.00
H1170  H     0.29324   0.49817   0.95682   0.00000  Uiso   1.00
H1171  H     0.30257   0.52359   0.67761   0.00000  Uiso   1.00
H1172  H     0.00090   0.58779   0.97894   0.00000  Uiso   1.00
N1173  N     0.16665   0.49999   0.95240   0.00000  Uiso   1.00
N1174  N     0.16668   0.50001   0.71427   0.00000  Uiso   1.00
N1175  N     0.26416   0.57544   0.74650   0.00000  Uiso   1.00
N1176  N     0.06117   0.43177   0.91870   0.00000  Uiso   1.00
O1177  O     0.16666   0.43892   0.87154   0.00000  Uiso   1.00
O1178  O     0.09090   0.45580   0.70481   0.00000  Uiso   1.00
O1179  O     0.16667   0.56108   0.79513   0.00000  Uiso   1.00
O1180  O     0.16666   0.43893   0.79510   0.00000  Uiso   1.00
O1181  O     0.16667   0.56107   0.87157   0.00000  Uiso   1.00
O1182  O     0.09058   0.50000   0.86261   0.00000  Uiso   1.00
O1183  O     0.24275   0.50000   0.80405   0.00000  Uiso   1.00
O1184  O     0.09058   0.50000   0.78617   0.00000  Uiso   1.00
O1185  O     0.24275   0.50000   0.88050   0.00000  Uiso   1.00
O1186  O     0.24085   0.54625   0.96226   0.00000  Uiso   1.00
Zn1187 Zn    0.16667   0.49999   0.88437   0.00000  Uiso   1.00
Zn1188 Zn    0.16667   0.50001   0.78229   0.00000  Uiso   1.00
C1189  C     0.50024   0.42005   0.83340   0.00000  Uiso   1.00
C1190  C     0.48508   0.35445   0.87042   0.00000  Uiso   1.00
C1191  C     0.50014   0.62416   0.83344   0.00000  Uiso   1.00
C1192  C     0.50079   0.37589   0.83368   0.00000  Uiso   1.00
C1193  C     0.53532   0.52413   0.69530   0.00000  Uiso   1.00
C1194  C     0.46387   0.47648   0.97133   0.00000  Uiso   1.00
C1195  C     0.53734   0.52245   0.98085   0.00000  Uiso   1.00
C1196  C     0.46438   0.47571   0.68630   0.00000  Uiso   1.00
C1197  C     0.56955   0.55262   0.72387   0.00000  Uiso   1.00
C1198  C     0.42530   0.45194   0.94198   0.00000  Uiso   1.00
C1199  C     0.62470   0.52879   0.97384   0.00000  Uiso   1.00
C1200  C     0.49999   0.57996   0.83335   0.00000  Uiso   1.00
C1201  C     0.66571   0.55843   0.95896   0.00000  Uiso   1.00
C1202  C     0.42746   0.41187   0.70201   0.00000  Uiso   1.00
C1203  C     0.37212   0.39300   0.69261   0.00000  Uiso   1.00
C1204  C     0.40043   0.49984   0.82135   0.00000  Uiso   1.00
C1205  C     0.59954   0.50000   0.84524   0.00000  Uiso   1.00
C1206  C     0.34529   0.49950   0.81486   0.00000  Uiso   1.00
C1207  C     0.65462   0.50002   0.85146   0.00000  Uiso   1.00
C1208  C     0.51683   0.35496   0.79715   0.00000  Uiso   1.00
C1209  C     0.48490   0.64508   0.87037   0.00000  Uiso   1.00
C1210  C     0.51586   0.64563   0.79676   0.00000  Uiso   1.00
H1211  H     0.65798   0.49882   0.78010   0.00000  Uiso   1.00
H1212  H     0.37164   0.54385   0.96477   0.00000  Uiso   1.00
H1213  H     0.65530   0.56597   0.92229   0.00000  Uiso   1.00
H1214  H     0.44613   0.39968   0.73512   0.00000  Uiso   1.00
H1215  H     0.45062   0.40044   0.67589   0.00000  Uiso   1.00
H1216  H     0.35095   0.40486   0.99330   0.00000  Uiso   1.00
H1217  H     0.37413   0.35853   0.69063   0.00000  Uiso   1.00
H1218  H     0.34984   0.40135   0.72045   0.00000  Uiso   1.00
H1219  H     0.34199   0.50061   0.88609   0.00000  Uiso   1.00
H1220  H     0.53011   0.37146   0.76904   0.00000  Uiso   1.00
H1221  H     0.47231   0.62855   0.89876   0.00000  Uiso   1.00
H1222  H     0.52775   0.62962   0.76808   0.00000  Uiso   1.00
H1223  H     0.47251   0.37056   0.89883   0.00000  Uiso   1.00
H1224  H     0.62658   0.49817   0.95682   0.00000  Uiso   1.00
H1225  H     0.63591   0.52359   0.67761   0.00000  Uiso   1.00
H1226  H     0.33424   0.58779   0.97894   0.00000  Uiso   1.00
N1227  N     0.49999   0.49999   0.95240   0.00000  Uiso   1.00
N1228  N     0.50001   0.50001   0.71427   0.00000  Uiso   1.00
N1229  N     0.59750   0.57544   0.74650   0.00000  Uiso   1.00
N1230  N     0.39451   0.43177   0.91870   0.00000  Uiso   1.00
O1231  O     0.50000   0.43892   0.87154   0.00000  Uiso   1.00
O1232  O     0.42424   0.45580   0.70481   0.00000  Uiso   1.00
O1233  O     0.50000   0.56108   0.79513   0.00000  Uiso   1.00
O1234  O     0.50000   0.43893   0.79510   0.00000  Uiso   1.00
O1235  O     0.50000   0.56107   0.87157   0.00000  Uiso   1.00
O1236  O     0.42392   0.50000   0.86261   0.00000  Uiso   1.00
O1237  O     0.57608   0.50000   0.80405   0.00000  Uiso   1.00
O1238  O     0.42392   0.50000   0.78617   0.00000  Uiso   1.00
O1239  O     0.57608   0.50000   0.88050   0.00000  Uiso   1.00
O1240  O     0.57418   0.54625   0.96226   0.00000  Uiso   1.00
Zn1241 Zn    0.50000   0.49999   0.88437   0.00000  Uiso   1.00
Zn1242 Zn    0.50000   0.50001   0.78229   0.00000  Uiso   1.00
C1243  C     0.83358   0.42005   0.83340   0.00000  Uiso   1.00
C1244  C     0.81841   0.35445   0.87042   0.00000  Uiso   1.00
C1245  C     0.83348   0.62416   0.83344   0.00000  Uiso   1.00
C1246  C     0.83413   0.37589   0.83368   0.00000  Uiso   1.00
C1247  C     0.86865   0.52413   0.69530   0.00000  Uiso   1.00
C1248  C     0.79721   0.47648   0.97133   0.00000  Uiso   1.00
C1249  C     0.87067   0.52245   0.98085   0.00000  Uiso   1.00
C1250  C     0.79771   0.47571   0.68630   0.00000  Uiso   1.00
C1251  C     0.90289   0.55262   0.72387   0.00000  Uiso   1.00
C1252  C     0.75864   0.45194   0.94198   0.00000  Uiso   1.00
C1253  C     0.95803   0.52879   0.97384   0.00000  Uiso   1.00
C1254  C     0.83333   0.57996   0.83335   0.00000  Uiso   1.00
C1255  C     0.99904   0.55843   0.95896   0.00000  Uiso   1.00
C1256  C     0.76079   0.41187   0.70201   0.00000  Uiso   1.00
C1257  C     0.70545   0.39300   0.69261   0.00000  Uiso   1.00
C1258  C     0.73376   0.49984   0.82135   0.00000  Uiso   1.00
C1259  C     0.93288   0.50000   0.84524   0.00000  Uiso   1.00
C1260  C     0.67862   0.49950   0.81486   0.00000  Uiso   1.00
C1261  C     0.98795   0.50002   0.85146   0.00000  Uiso   1.00
C1262  C     0.85016   0.35496   0.79715   0.00000  Uiso   1.00
C1263  C     0.81824   0.64508   0.87037   0.00000  Uiso   1.00
C1264  C     0.84919   0.64563   0.79676   0.00000  Uiso   1.00
H1265  H     0.99131   0.49882   0.78010   0.00000  Uiso   1.00
H1266  H     0.70498   0.54385   0.96477   0.00000  Uiso   1.00
H1267  H     0.98863   0.56597   0.92229   0.00000  Uiso   1.00
H1268  H     0.77946   0.39968   0.73512   0.00000  Uiso   1.00
H1269  H     0.78396   0.40044   0.67589   0.00000  Uiso   1.00
H1270  H     0.68428   0.40486   0.99330   0.00000  Uiso   1.00
H1271  H     0.70746   0.35853   0.69063   0.00000  Uiso   1.00
H1272  H     0.68318   0.40135   0.72045   0.00000  Uiso   1.00
H1273  H     0.67532   0.50061   0.88609   0.00000  Uiso   1.00
H1274  H     0.86344   0.37146   0.76904   0.00000  Uiso   1.00
H1275  H     0.80565   0.62855   0.89876   0.00000  Uiso   1.00
H1276  H     0.86108   0.62962   0.76808   0.00000  Uiso   1.00
H1277  H     0.80585   0.37056   0.89883   0.00000  Uiso   1.00
H1278  H     0.95991   0.49817   0.95682   0.00000  Uiso   1.00
H1279  H     0.96924   0.52359   0.67761   0.00000  Uiso   1.00
H1280  H     0.66757   0.58779   0.97894   0.00000  Uiso   1.00
N1281  N     0.83332   0.49999   0.95240   0.00000  Uiso   1.00
N1282  N     0.83335   0.50001   0.71427   0.00000  Uiso   1.00
N1283  N     0.93083   0.57544   0.74650   0.00000  Uiso   1.00
N1284  N     0.72784   0.43177   0.91870   0.00000  Uiso   1.00
O1285  O     0.83333   0.43892   0.87154   0.00000  Uiso   1.00
O1286  O     0.75757   0.45580   0.70481   0.00000  Uiso   1.00
O1287  O     0.83334   0.56108   0.79513   0.00000  Uiso   1.00
O1288  O     0.83333   0.43893   0.79510   0.00000  Uiso   1.00
O1289  O     0.83334   0.56107   0.87157   0.00000  Uiso   1.00
O1290  O     0.75725   0.50000   0.86261   0.00000  Uiso   1.00
O1291  O     0.90942   0.50000   0.80405   0.00000  Uiso   1.00
O1292  O     0.75725   0.50000   0.78617   0.00000  Uiso   1.00
O1293  O     0.90942   0.50000   0.88050   0.00000  Uiso   1.00
O1294  O     0.90752   0.54625   0.96226   0.00000  Uiso   1.00
Zn1295 Zn    0.83333   0.49999   0.88437   0.00000  Uiso   1.00
Zn1296 Zn    0.83333   0.50001   0.78229   0.00000  Uiso   1.00
C1297  C     0.16691   0.75338   0.83340   0.00000  Uiso   1.00
C1298  C     0.15174   0.68779   0.87042   0.00000  Uiso   1.00
C1299  C     0.16681   0.95749   0.83344   0.00000  Uiso   1.00
C1300  C     0.16746   0.70922   0.83368   0.00000  Uiso   1.00
C1301  C     0.20199   0.85746   0.69530   0.00000  Uiso   1.00
C1302  C     0.13054   0.80981   0.97133   0.00000  Uiso   1.00
C1303  C     0.20401   0.85579   0.98085   0.00000  Uiso   1.00
C1304  C     0.13104   0.80905   0.68630   0.00000  Uiso   1.00
C1305  C     0.23622   0.88595   0.72387   0.00000  Uiso   1.00
C1306  C     0.09197   0.78527   0.94198   0.00000  Uiso   1.00
C1307  C     0.29136   0.86212   0.97384   0.00000  Uiso   1.00
C1308  C     0.16666   0.91330   0.83335   0.00000  Uiso   1.00
C1309  C     0.33237   0.89176   0.95896   0.00000  Uiso   1.00
C1310  C     0.09412   0.74521   0.70201   0.00000  Uiso   1.00
C1311  C     0.03878   0.72634   0.69261   0.00000  Uiso   1.00
C1312  C     0.06710   0.83317   0.82135   0.00000  Uiso   1.00
C1313  C     0.26621   0.83334   0.84524   0.00000  Uiso   1.00
C1314  C     0.01196   0.83283   0.81486   0.00000  Uiso   1.00
C1315  C     0.32129   0.83336   0.85146   0.00000  Uiso   1.00
C1316  C     0.18349   0.68829   0.79715   0.00000  Uiso   1.00
C1317  C     0.15157   0.97841   0.87037   0.00000  Uiso   1.00
C1318  C     0.18253   0.97896   0.79676   0.00000  Uiso   1.00
H1319  H     0.32465   0.83215   0.78010   0.00000  Uiso   1.00
H1320  H     0.03831   0.87719   0.96477   0.00000  Uiso   1.00
H1321  H     0.32197   0.89930   0.92229   0.00000  Uiso   1.00
H1322  H     0.11280   0.73302   0.73512   0.00000  Uiso   1.00
H1323  H     0.11729   0.73377   0.67589   0.00000  Uiso   1.00
H1324  H     0.01761   0.73820   0.99330   0.00000  Uiso   1.00
H1325  H     0.04079   0.69187   0.69063   0.00000  Uiso   1.00
H1326  H     0.01651   0.73468   0.72045   0.00000  Uiso   1.00
H1327  H     0.00865   0.83395   0.88609   0.00000  Uiso   1.00
H1328  H     0.19678   0.70479   0.76904   0.00000  Uiso   1.00
H1329  H     0.13898   0.96189   0.89876   0.00000  Uiso   1.00
H1330  H     0.19441   0.96295   0.76808   0.00000  Uiso   1.00
H1331  H     0.13918   0.70389   0.89883   0.00000  Uiso   1.00
H1332  H     0.29324   0.83150   0.95682   0.00000  Uiso   1.00
H1333  H     0.30257   0.85693   0.67761   0.00000  Uiso   1.00
H1334  H     0.00090   0.92112   0.97894   0.00000  Uiso   1.00
N1335  N     0.16665   0.83332   0.95240   0.00000  Uiso   1.00
N1336  N     0.16668   0.83334   0.71427   0.00000  Uiso   1.00
N1337  N     0.26416   0.90878   0.74650   0.00000  Uiso   1.00
N1338  N     0.06117   0.76510   0.91870   0.00000  Uiso   1.00
O1339  O     0.16666   0.77225   0.87154   0.00000  Uiso   1.00
O1340  O     0.09090   0.78913   0.70481   0.00000  Uiso   1.00
O1341  O     0.16667   0.89442   0.79513   0.00000  Uiso   1.00
O1342  O     0.16666   0.77226   0.79510   0.00000  Uiso   1.00
O1343  O     0.16667   0.89441   0.87157   0.00000  Uiso   1.00
O1344  O     0.09058   0.83333   0.86261   0.00000  Uiso   1.00
O1345  O     0.24275   0.83334   0.80405   0.00000  Uiso   1.00
O1346  O     0.09058   0.83334   0.78617   0.00000  Uiso   1.00
O1347  O     0.24275   0.83333   0.88050   0.00000  Uiso   1.00
O1348  O     0.24085   0.87958   0.96226   0.00000  Uiso   1.00
Zn1349 Zn    0.16667   0.83333   0.88437   0.00000  Uiso   1.00
Zn1350 Zn    0.16667   0.83334   0.78229   0.00000  Uiso   1.00
C1351  C     0.50024   0.75338   0.83340   0.00000  Uiso   1.00
C1352  C     0.48508   0.68779   0.87042   0.00000  Uiso   1.00
C1353  C     0.50014   0.95749   0.83344   0.00000  Uiso   1.00
C1354  C     0.50079   0.70922   0.83368   0.00000  Uiso   1.00
C1355  C     0.53532   0.85746   0.69530   0.00000  Uiso   1.00
C1356  C     0.46387   0.80981   0.97133   0.00000  Uiso   1.00
C1357  C     0.53734   0.85579   0.98085   0.00000  Uiso   1.00
C1358  C     0.46438   0.80905   0.68630   0.00000  Uiso   1.00
C1359  C     0.56955   0.88595   0.72387   0.00000  Uiso   1.00
C1360  C     0.42530   0.78527   0.94198   0.00000  Uiso   1.00
C1361  C     0.62470   0.86212   0.97384   0.00000  Uiso   1.00
C1362  C     0.49999   0.91330   0.83335   0.00000  Uiso   1.00
C1363  C     0.66571   0.89176   0.95896   0.00000  Uiso   1.00
C1364  C     0.42746   0.74521   0.70201   0.00000  Uiso   1.00
C1365  C     0.37212   0.72634   0.69261   0.00000  Uiso   1.00
C1366  C     0.40043   0.83317   0.82135   0.00000  Uiso   1.00
C1367  C     0.59954   0.83334   0.84524   0.00000  Uiso   1.00
C1368  C     0.34529   0.83283   0.81486   0.00000  Uiso   1.00
C1369  C     0.65462   0.83336   0.85146   0.00000  Uiso   1.00
C1370  C     0.51683   0.68829   0.79715   0.00000  Uiso   1.00
C1371  C     0.48490   0.97841   0.87037   0.00000  Uiso   1.00
C1372  C     0.51586   0.97896   0.79676   0.00000  Uiso   1.00
H1373  H     0.65798   0.83215   0.78010   0.00000  Uiso   1.00
H1374  H     0.37164   0.87719   0.96477   0.00000  Uiso   1.00
H1375  H     0.65530   0.89930   0.92229   0.00000  Uiso   1.00
H1376  H     0.44613   0.73302   0.73512   0.00000  Uiso   1.00
H1377  H     0.45062   0.73377   0.67589   0.00000  Uiso   1.00
H1378  H     0.35095   0.73820   0.99330   0.00000  Uiso   1.00
H1379  H     0.37413   0.69187   0.69063   0.00000  Uiso   1.00
H1380  H     0.34984   0.73468   0.72045   0.00000  Uiso   1.00
H1381  H     0.34199   0.83395   0.88609   0.00000  Uiso   1.00
H1382  H     0.53011   0.70479   0.76904   0.00000  Uiso   1.00
H1383  H     0.47231   0.96189   0.89876   0.00000  Uiso   1.00
H1384  H     0.52775   0.96295   0.76808   0.00000  Uiso   1.00
H1385  H     0.47251   0.70389   0.89883   0.00000  Uiso   1.00
H1386  H     0.62658   0.83150   0.95682   0.00000  Uiso   1.00
H1387  H     0.63591   0.85693   0.67761   0.00000  Uiso   1.00
H1388  H     0.33424   0.92112   0.97894   0.00000  Uiso   1.00
N1389  N     0.49999   0.83332   0.95240   0.00000  Uiso   1.00
N1390  N     0.50001   0.83334   0.71427   0.00000  Uiso   1.00
N1391  N     0.59750   0.90878   0.74650   0.00000  Uiso   1.00
N1392  N     0.39451   0.76510   0.91870   0.00000  Uiso   1.00
O1393  O     0.50000   0.77225   0.87154   0.00000  Uiso   1.00
O1394  O     0.42424   0.78913   0.70481   0.00000  Uiso   1.00
O1395  O     0.50000   0.89442   0.79513   0.00000  Uiso   1.00
O1396  O     0.50000   0.77226   0.79510   0.00000  Uiso   1.00
O1397  O     0.50000   0.89441   0.87157   0.00000  Uiso   1.00
O1398  O     0.42392   0.83333   0.86261   0.00000  Uiso   1.00
O1399  O     0.57608   0.83334   0.80405   0.00000  Uiso   1.00
O1400  O     0.42392   0.83334   0.78617   0.00000  Uiso   1.00
O1401  O     0.57608   0.83333   0.88050   0.00000  Uiso   1.00
O1402  O     0.57418   0.87958   0.96226   0.00000  Uiso   1.00
Zn1403 Zn    0.50000   0.83333   0.88437   0.00000  Uiso   1.00
Zn1404 Zn    0.50000   0.83334   0.78229   0.00000  Uiso   1.00
C1405  C     0.83358   0.75338   0.83340   0.00000  Uiso   1.00
C1406  C     0.81841   0.68779   0.87042   0.00000  Uiso   1.00
C1407  C     0.83348   0.95749   0.83344   0.00000  Uiso   1.00
C1408  C     0.83413   0.70922   0.83368   0.00000  Uiso   1.00
C1409  C     0.86865   0.85746   0.69530   0.00000  Uiso   1.00
C1410  C     0.79721   0.80981   0.97133   0.00000  Uiso   1.00
C1411  C     0.87067   0.85579   0.98085   0.00000  Uiso   1.00
C1412  C     0.79771   0.80905   0.68630   0.00000  Uiso   1.00
C1413  C     0.90289   0.88595   0.72387   0.00000  Uiso   1.00
C1414  C     0.75864   0.78527   0.94198   0.00000  Uiso   1.00
C1415  C     0.95803   0.86212   0.97384   0.00000  Uiso   1.00
C1416  C     0.83333   0.91330   0.83335   0.00000  Uiso   1.00
C1417  C     0.99904   0.89176   0.95896   0.00000  Uiso   1.00
C1418  C     0.76079   0.74521   0.70201   0.00000  Uiso   1.00
C1419  C     0.70545   0.72634   0.69261   0.00000  Uiso   1.00
C1420  C     0.73376   0.83317   0.82135   0.00000  Uiso   1.00
C1421  C     0.93288   0.83334   0.84524   0.00000  Uiso   1.00
C1422  C     0.67862   0.83283   0.81486   0.00000  Uiso   1.00
C1423  C     0.98795   0.83336   0.85146   0.00000  Uiso   1.00
C1424  C     0.85016   0.68829   0.79715   0.00000  Uiso   1.00
C1425  C     0.81824   0.97841   0.87037   0.00000  Uiso   1.00
C1426  C     0.84919   0.97896   0.79676   0.00000  Uiso   1.00
H1427  H     0.99131   0.83215   0.78010   0.00000  Uiso   1.00
H1428  H     0.70498   0.87719   0.96477   0.00000  Uiso   1.00
H1429  H     0.98863   0.89930   0.92229   0.00000  Uiso   1.00
H1430  H     0.77946   0.73302   0.73512   0.00000  Uiso   1.00
H1431  H     0.78396   0.73377   0.67589   0.00000  Uiso   1.00
H1432  H     0.68428   0.73820   0.99330   0.00000  Uiso   1.00
H1433  H     0.70746   0.69187   0.69063   0.00000  Uiso   1.00
H1434  H     0.68318   0.73468   0.72045   0.00000  Uiso   1.00
H1435  H     0.67532   0.83395   0.88609   0.00000  Uiso   1.00
H1436  H     0.86344   0.70479   0.76904   0.00000  Uiso   1.00
H1437  H     0.80565   0.96189   0.89876   0.00000  Uiso   1.00
H1438  H     0.86108   0.96295   0.76808   0.00000  Uiso   1.00
H1439  H     0.80585   0.70389   0.89883   0.00000  Uiso   1.00
H1440  H     0.95991   0.83150   0.95682   0.00000  Uiso   1.00
H1441  H     0.96924   0.85693   0.67761   0.00000  Uiso   1.00
H1442  H     0.66757   0.92112   0.97894   0.00000  Uiso   1.00
N1443  N     0.83332   0.83332   0.95240   0.00000  Uiso   1.00
N1444  N     0.83335   0.83334   0.71427   0.00000  Uiso   1.00
N1445  N     0.93083   0.90878   0.74650   0.00000  Uiso   1.00
N1446  N     0.72784   0.76510   0.91870   0.00000  Uiso   1.00
O1447  O     0.83333   0.77225   0.87154   0.00000  Uiso   1.00
O1448  O     0.75757   0.78913   0.70481   0.00000  Uiso   1.00
O1449  O     0.83334   0.89442   0.79513   0.00000  Uiso   1.00
O1450  O     0.83333   0.77226   0.79510   0.00000  Uiso   1.00
O1451  O     0.83334   0.89441   0.87157   0.00000  Uiso   1.00
O1452  O     0.75725   0.83333   0.86261   0.00000  Uiso   1.00
O1453  O     0.90942   0.83334   0.80405   0.00000  Uiso   1.00
O1454  O     0.75725   0.83334   0.78617   0.00000  Uiso   1.00
O1455  O     0.90942   0.83333   0.88050   0.00000  Uiso   1.00
O1456  O     0.90752   0.87958   0.96226   0.00000  Uiso   1.00
Zn1457 Zn    0.83333   0.83333   0.88437   0.00000  Uiso   1.00
Zn1458 Zn    0.83333   0.83334   0.78229   0.00000  Uiso   1.00
loop_
_geom_bond_atom_site_label_1
_geom_bond_atom_site_label_2
_geom_bond_distance
_geom_bond_site_symmetry_2
_ccdc_geom_bond_type
C1     C4      1.418   .     S
C1     O46     1.289   .     A
C1     O43     1.287   .     A
C2     H35     1.083   .     S
C2     C4      1.397   .     A
C2     C345    1.371   1_545 S
C3     C21     1.397   .     A
C3     C22     1.396   .     A
C3     C12     1.418   .     S
C4     C20     1.396   .     A
C5     C9      1.441   .     S
C5     N40     1.367   .     A
C5     C979    1.430   1_554 S
C6     C10     1.440   .     S
C6     N39     1.371   .     A
C6     C494    1.434   .     S
C7     O52     1.385   .     S
C7     N39     1.373   .     A
C7     C491    1.430   .     S
C8     O44     1.387   .     S
C8     N40     1.372   .     A
C8     C978    1.434   1_554 S
C9     N41     1.157   .     T
C10    N42     1.158   .     T
C11    O52     1.419   .     S
C11    C13     1.522   .     S
C11    H36     1.111   .     S
C11    H523    1.110   .     S
C12    O47     1.288   .     A
C12    O45     1.288   .     A
C13    H25     1.110   .     S
C13    H78     1.111   .     S
C13    H92     1.111   .     S
C14    H27     1.114   .     S
C14    H26     1.103   .     S
C14    O44     1.417   .     S
C14    C15     1.522   .     S
C15    H29     1.111   .     S
C15    H30     1.111   .     S
C15    H1000   1.109   1_554 S
C16    C18     1.402   .     S
C16    O50     1.285   .     A
C16    O48     1.283   .     A
C17    O51     1.286   .     A
C17    C19     1.400   .     S
C17    O49     1.281   .     A
C18    C127    1.330   1_455 S
C18    H131    1.088   1_455 S
C19    C72     1.330   .     S
C19    H85     1.085   .     S
C20    H32     1.084   .     S
C20    C346    1.369   1_545 S
C21    H33     1.084   .     S
C21    C164    1.371   .     S
C22    H34     1.081   .     S
C22    C182    1.369   .     S
H23    C72     1.088   .     S
H24    C121    1.111   1_455 S
H28    C501    1.109   .     S
H31    C127    1.085   1_455 S
H37    C983    1.110   1_554 S
H38    C121    1.111   1_455 S
N39    Zn53    2.022   .     S
N40    Zn54    2.022   .     S
O43    Zn53    1.997   .     S
O45    Zn54    1.997   .     S
O46    Zn54    1.997   .     S
O47    Zn53    1.997   .     S
O48    Zn53    1.966   .     S
O49    Zn54    1.966   .     S
O50    Zn54    1.977   .     S
O51    Zn53    1.977   .     S
C55    C58     1.418   .     S
C55    O100    1.289   .     A
C55    O97     1.287   .     A
C56    H89     1.083   .     S
C56    C58     1.397   .     A
C56    C399    1.371   1_545 S
C57    C75     1.397   .     A
C57    C76     1.396   .     A
C57    C66     1.418   .     S
C58    C74     1.396   .     A
C59    C63     1.441   .     S
C59    N94     1.367   .     A
C59    C1033   1.430   1_554 S
C60    C64     1.440   .     S
C60    N93     1.371   .     A
C60    C548    1.434   .     S
C61    O106    1.385   .     S
C61    N93     1.373   .     A
C61    C545    1.430   .     S
C62    O98     1.387   .     S
C62    N94     1.372   .     A
C62    C1032   1.434   1_554 S
C63    N95     1.157   .     T
C64    N96     1.158   .     T
C65    O106    1.419   .     S
C65    C67     1.522   .     S
C65    H90     1.111   .     S
C65    H577    1.110   .     S
C66    O101    1.288   .     A
C66    O99     1.288   .     A
C67    H79     1.110   .     S
C67    H132    1.111   .     S
C67    H146    1.111   .     S
C68    H81     1.114   .     S
C68    H80     1.103   .     S
C68    O98     1.417   .     S
C68    C69     1.522   .     S
C69    H83     1.111   .     S
C69    H84     1.111   .     S
C69    H1054   1.109   1_554 S
C70    C72     1.402   .     S
C70    O104    1.285   .     A
C70    O102    1.283   .     A
C71    O105    1.286   .     A
C71    C73     1.400   .     S
C71    O103    1.281   .     A
C73    C126    1.330   .     S
C73    H139    1.085   .     S
C74    H86     1.084   .     S
C74    C400    1.369   1_545 S
C75    H87     1.084   .     S
C75    C218    1.371   .     S
C76    H88     1.081   .     S
C76    C236    1.369   .     S
H77    C126    1.088   .     S
H82    C555    1.109   .     S
H91    C1037   1.110   1_554 S
N93    Zn107   2.022   .     S
N94    Zn108   2.022   .     S
O97    Zn107   1.997   .     S
O99    Zn108   1.997   .     S
O100   Zn108   1.997   .     S
O101   Zn107   1.997   .     S
O102   Zn107   1.966   .     S
O103   Zn108   1.966   .     S
O104   Zn108   1.977   .     S
O105   Zn107   1.977   .     S
C109   C112    1.418   .     S
C109   O154    1.289   .     A
C109   O151    1.287   .     A
C110   H143    1.083   .     S
C110   C112    1.397   .     A
C110   C453    1.371   1_545 S
C111   C129    1.397   .     A
C111   C130    1.396   .     A
C111   C120    1.418   .     S
C112   C128    1.396   .     A
C113   C117    1.441   .     S
C113   N148    1.367   .     A
C113   C1087   1.430   1_554 S
C114   C118    1.440   .     S
C114   N147    1.371   .     A
C114   C602    1.434   .     S
C115   O160    1.385   .     S
C115   N147    1.373   .     A
C115   C599    1.430   .     S
C116   O152    1.387   .     S
C116   N148    1.372   .     A
C116   C1086   1.434   1_554 S
C117   N149    1.157   .     T
C118   N150    1.158   .     T
C119   O160    1.419   .     S
C119   C121    1.522   .     S
C119   H144    1.111   .     S
C119   H631    1.110   .     S
C120   O155    1.288   .     A
C120   O153    1.288   .     A
C121   H133    1.110   .     S
C121   H24     1.111   1_655 S
C121   H38     1.111   1_655 S
C122   H135    1.114   .     S
C122   H134    1.103   .     S
C122   O152    1.417   .     S
C122   C123    1.522   .     S
C123   H137    1.111   .     S
C123   H138    1.111   .     S
C123   H1108   1.109   1_554 S
C124   C126    1.402   .     S
C124   O158    1.285   .     A
C124   O156    1.283   .     A
C125   O159    1.286   .     A
C125   C127    1.400   .     S
C125   O157    1.281   .     A
C127   C18     1.330   1_655 S
C127   H31     1.085   1_655 S
C128   H140    1.084   .     S
C128   C454    1.369   1_545 S
C129   H141    1.084   .     S
C129   C272    1.371   .     S
C130   H142    1.081   .     S
C130   C290    1.369   .     S
H131   C18     1.088   1_655 S
H136   C609    1.109   .     S
H145   C1091   1.110   1_554 S
N147   Zn161   2.022   .     S
N148   Zn162   2.022   .     S
O151   Zn161   1.997   .     S
O153   Zn162   1.997   .     S
O154   Zn162   1.997   .     S
O155   Zn161   1.997   .     S
O156   Zn161   1.966   .     S
O157   Zn162   1.966   .     S
O158   Zn162   1.977   .     S
O159   Zn161   1.977   .     S
C163   C166    1.418   .     S
C163   O208    1.289   .     A
C163   O205    1.287   .     A
C164   H197    1.083   .     S
C164   C166    1.397   .     A
C165   C183    1.397   .     A
C165   C184    1.396   .     A
C165   C174    1.418   .     S
C166   C182    1.396   .     A
C167   C171    1.441   .     S
C167   N202    1.367   .     A
C167   C1141   1.430   1_554 S
C168   C172    1.440   .     S
C168   N201    1.371   .     A
C168   C656    1.434   .     S
C169   O214    1.385   .     S
C169   N201    1.373   .     A
C169   C653    1.430   .     S
C170   O206    1.387   .     S
C170   N202    1.372   .     A
C170   C1140   1.434   1_554 S
C171   N203    1.157   .     T
C172   N204    1.158   .     T
C173   O214    1.419   .     S
C173   C175    1.522   .     S
C173   H198    1.111   .     S
C173   H685    1.110   .     S
C174   O209    1.288   .     A
C174   O207    1.288   .     A
C175   H187    1.110   .     S
C175   H240    1.111   .     S
C175   H254    1.111   .     S
C176   H189    1.114   .     S
C176   H188    1.103   .     S
C176   O206    1.417   .     S
C176   C177    1.522   .     S
C177   H191    1.111   .     S
C177   H192    1.111   .     S
C177   H1162   1.109   1_554 S
C178   C180    1.402   .     S
C178   O212    1.285   .     A
C178   O210    1.283   .     A
C179   O213    1.286   .     A
C179   C181    1.400   .     S
C179   O211    1.281   .     A
C180   C289    1.330   1_455 S
C180   H293    1.088   1_455 S
C181   C234    1.330   .     S
C181   H247    1.085   .     S
C182   H194    1.084   .     S
C183   H195    1.084   .     S
C183   C326    1.371   .     S
C184   H196    1.081   .     S
C184   C344    1.369   .     S
H185   C234    1.088   .     S
H186   C283    1.111   1_455 S
H190   C663    1.109   .     S
H193   C289    1.085   1_455 S
H199   C1145   1.110   1_554 S
H200   C283    1.111   1_455 S
N201   Zn215   2.022   .     S
N202   Zn216   2.022   .     S
O205   Zn215   1.997   .     S
O207   Zn216   1.997   .     S
O208   Zn216   1.997   .     S
O209   Zn215   1.997   .     S
O210   Zn215   1.966   .     S
O211   Zn216   1.966   .     S
O212   Zn216   1.977   .     S
O213   Zn215   1.977   .     S
C217   C220    1.418   .     S
C217   O262    1.289   .     A
C217   O259    1.287   .     A
C218   H251    1.083   .     S
C218   C220    1.397   .     A
C219   C237    1.397   .     A
C219   C238    1.396   .     A
C219   C228    1.418   .     S
C220   C236    1.396   .     A
C221   C225    1.441   .     S
C221   N256    1.367   .     A
C221   C1195   1.430   1_554 S
C222   C226    1.440   .     S
C222   N255    1.371   .     A
C222   C710    1.434   .     S
C223   O268    1.385   .     S
C223   N255    1.373   .     A
C223   C707    1.430   .     S
C224   O260    1.387   .     S
C224   N256    1.372   .     A
C224   C1194   1.434   1_554 S
C225   N257    1.157   .     T
C226   N258    1.158   .     T
C227   O268    1.419   .     S
C227   C229    1.522   .     S
C227   H252    1.111   .     S
C227   H739    1.110   .     S
C228   O263    1.288   .     A
C228   O261    1.288   .     A
C229   H241    1.110   .     S
C229   H294    1.111   .     S
C229   H308    1.111   .     S
C230   H243    1.114   .     S
C230   H242    1.103   .     S
C230   O260    1.417   .     S
C230   C231    1.522   .     S
C231   H245    1.111   .     S
C231   H246    1.111   .     S
C231   H1216   1.109   1_554 S
C232   C234    1.402   .     S
C232   O266    1.285   .     A
C232   O264    1.283   .     A
C233   O267    1.286   .     A
C233   C235    1.400   .     S
C233   O265    1.281   .     A
C235   C288    1.330   .     S
C235   H301    1.085   .     S
C236   H248    1.084   .     S
C237   H249    1.084   .     S
C237   C380    1.371   .     S
C238   H250    1.081   .     S
C238   C398    1.369   .     S
H239   C288    1.088   .     S
H244   C717    1.109   .     S
H253   C1199   1.110   1_554 S
N255   Zn269   2.022   .     S
N256   Zn270   2.022   .     S
O259   Zn269   1.997   .     S
O261   Zn270   1.997   .     S
O262   Zn270   1.997   .     S
O263   Zn269   1.997   .     S
O264   Zn269   1.966   .     S
O265   Zn270   1.966   .     S
O266   Zn270   1.977   .     S
O267   Zn269   1.977   .     S
C271   C274    1.418   .     S
C271   O316    1.289   .     A
C271   O313    1.287   .     A
C272   H305    1.083   .     S
C272   C274    1.397   .     A
C273   C291    1.397   .     A
C273   C292    1.396   .     A
C273   C282    1.418   .     S
C274   C290    1.396   .     A
C275   C279    1.441   .     S
C275   N310    1.367   .     A
C275   C1249   1.430   1_554 S
C276   C280    1.440   .     S
C276   N309    1.371   .     A
C276   C764    1.434   .     S
C277   O322    1.385   .     S
C277   N309    1.373   .     A
C277   C761    1.430   .     S
C278   O314    1.387   .     S
C278   N310    1.372   .     A
C278   C1248   1.434   1_554 S
C279   N311    1.157   .     T
C280   N312    1.158   .     T
C281   O322    1.419   .     S
C281   C283    1.522   .     S
C281   H306    1.111   .     S
C281   H793    1.110   .     S
C282   O317    1.288   .     A
C282   O315    1.288   .     A
C283   H295    1.110   .     S
C283   H186    1.111   1_655 S
C283   H200    1.111   1_655 S
C284   H297    1.114   .     S
C284   H296    1.103   .     S
C284   O314    1.417   .     S
C284   C285    1.522   .     S
C285   H299    1.111   .     S
C285   H300    1.111   .     S
C285   H1270   1.109   1_554 S
C286   C288    1.402   .     S
C286   O320    1.285   .     A
C286   O318    1.283   .     A
C287   O321    1.286   .     A
C287   C289    1.400   .     S
C287   O319    1.281   .     A
C289   C180    1.330   1_655 S
C289   H193    1.085   1_655 S
C290   H302    1.084   .     S
C291   H303    1.084   .     S
C291   C434    1.371   .     S
C292   H304    1.081   .     S
C292   C452    1.369   .     S
H293   C180    1.088   1_655 S
H298   C771    1.109   .     S
H307   C1253   1.110   1_554 S
N309   Zn323   2.022   .     S
N310   Zn324   2.022   .     S
O313   Zn323   1.997   .     S
O315   Zn324   1.997   .     S
O316   Zn324   1.997   .     S
O317   Zn323   1.997   .     S
O318   Zn323   1.966   .     S
O319   Zn324   1.966   .     S
O320   Zn324   1.977   .     S
O321   Zn323   1.977   .     S
C325   C328    1.418   .     S
C325   O370    1.289   .     A
C325   O367    1.287   .     A
C326   H359    1.083   .     S
C326   C328    1.397   .     A
C327   C345    1.397   .     A
C327   C346    1.396   .     A
C327   C336    1.418   .     S
C328   C344    1.396   .     A
C329   C333    1.441   .     S
C329   N364    1.367   .     A
C329   C1303   1.430   1_554 S
C330   C334    1.440   .     S
C330   N363    1.371   .     A
C330   C818    1.434   .     S
C331   O376    1.385   .     S
C331   N363    1.373   .     A
C331   C815    1.430   .     S
C332   O368    1.387   .     S
C332   N364    1.372   .     A
C332   C1302   1.434   1_554 S
C333   N365    1.157   .     T
C334   N366    1.158   .     T
C335   O376    1.419   .     S
C335   C337    1.522   .     S
C335   H360    1.111   .     S
C335   H847    1.110   .     S
C336   O371    1.288   .     A
C336   O369    1.288   .     A
C337   H349    1.110   .     S
C337   H402    1.111   .     S
C337   H416    1.111   .     S
C338   H351    1.114   .     S
C338   H350    1.103   .     S
C338   O368    1.417   .     S
C338   C339    1.522   .     S
C339   H353    1.111   .     S
C339   H354    1.111   .     S
C339   H1324   1.109   1_554 S
C340   C342    1.402   .     S
C340   O374    1.285   .     A
C340   O372    1.283   .     A
C341   O375    1.286   .     A
C341   C343    1.400   .     S
C341   O373    1.281   .     A
C342   C451    1.330   1_455 S
C342   H455    1.088   1_455 S
C343   C396    1.330   .     S
C343   H409    1.085   .     S
C344   H356    1.084   .     S
C345   H357    1.084   .     S
C345   C2      1.371   1_565 S
C346   H358    1.081   .     S
C346   C20     1.369   1_565 S
H347   C396    1.088   .     S
H348   C445    1.111   1_455 S
H352   C825    1.109   .     S
H355   C451    1.085   1_455 S
H361   C1307   1.110   1_554 S
H362   C445    1.111   1_455 S
N363   Zn377   2.022   .     S
N364   Zn378   2.022   .     S
O367   Zn377   1.997   .     S
O369   Zn378   1.997   .     S
O370   Zn378   1.997   .     S
O371   Zn377   1.997   .     S
O372   Zn377   1.966   .     S
O373   Zn378   1.966   .     S
O374   Zn378   1.977   .     S
O375   Zn377   1.977   .     S
C379   C382    1.418   .     S
C379   O424    1.289   .     A
C379   O421    1.287   .     A
C380   H413    1.083   .     S
C380   C382    1.397   .     A
C381   C399    1.397   .     A
C381   C400    1.396   .     A
C381   C390    1.418   .     S
C382   C398    1.396   .     A
C383   C387    1.441   .     S
C383   N418    1.367   .     A
C383   C1357   1.430   1_554 S
C384   C388    1.440   .     S
C384   N417    1.371   .     A
C384   C872    1.434   .     S
C385   O430    1.385   .     S
C385   N417    1.373   .     A
C385   C869    1.430   .     S
C386   O422    1.387   .     S
C386   N418    1.372   .     A
C386   C1356   1.434   1_554 S
C387   N419    1.157   .     T
C388   N420    1.158   .     T
C389   O430    1.419   .     S
C389   C391    1.522   .     S
C389   H414    1.111   .     S
C389   H901    1.110   .     S
C390   O425    1.288   .     A
C390   O423    1.288   .     A
C391   H403    1.110   .     S
C391   H456    1.111   .     S
C391   H470    1.111   .     S
C392   H405    1.114   .     S
C392   H404    1.103   .     S
C392   O422    1.417   .     S
C392   C393    1.522   .     S
C393   H407    1.111   .     S
C393   H408    1.111   .     S
C393   H1378   1.109   1_554 S
C394   C396    1.402   .     S
C394   O428    1.285   .     A
C394   O426    1.283   .     A
C395   O429    1.286   .     A
C395   C397    1.400   .     S
C395   O427    1.281   .     A
C397   C450    1.330   .     S
C397   H463    1.085   .     S
C398   H410    1.084   .     S
C399   H411    1.084   .     S
C399   C56     1.371   1_565 S
C400   H412    1.081   .     S
C400   C74     1.369   1_565 S
H401   C450    1.088   .     S
H406   C879    1.109   .     S
H415   C1361   1.110   1_554 S
N417   Zn431   2.022   .     S
N418   Zn432   2.022   .     S
O421   Zn431   1.997   .     S
O423   Zn432   1.997   .     S
O424   Zn432   1.997   .     S
O425   Zn431   1.997   .     S
O426   Zn431   1.966   .     S
O427   Zn432   1.966   .     S
O428   Zn432   1.977   .     S
O429   Zn431   1.977   .     S
C433   C436    1.418   .     S
C433   O478    1.289   .     A
C433   O475    1.287   .     A
C434   H467    1.083   .     S
C434   C436    1.397   .     A
C435   C453    1.397   .     A
C435   C454    1.396   .     A
C435   C444    1.418   .     S
C436   C452    1.396   .     A
C437   C441    1.441   .     S
C437   N472    1.367   .     A
C437   C1411   1.430   1_554 S
C438   C442    1.440   .     S
C438   N471    1.371   .     A
C438   C926    1.434   .     S
C439   O484    1.385   .     S
C439   N471    1.373   .     A
C439   C923    1.430   .     S
C440   O476    1.387   .     S
C440   N472    1.372   .     A
C440   C1410   1.434   1_554 S
C441   N473    1.157   .     T
C442   N474    1.158   .     T
C443   O484    1.419   .     S
C443   C445    1.522   .     S
C443   H468    1.111   .     S
C443   H955    1.110   .     S
C444   O479    1.288   .     A
C444   O477    1.288   .     A
C445   H457    1.110   .     S
C445   H348    1.111   1_655 S
C445   H362    1.111   1_655 S
C446   H459    1.114   .     S
C446   H458    1.103   .     S
C446   O476    1.417   .     S
C446   C447    1.522   .     S
C447   H461    1.111   .     S
C447   H462    1.111   .     S
C447   H1432   1.109   1_554 S
C448   C450    1.402   .     S
C448   O482    1.285   .     A
C448   O480    1.283   .     A
C449   O483    1.286   .     A
C449   C451    1.400   .     S
C449   O481    1.281   .     A
C451   C342    1.330   1_655 S
C451   H355    1.085   1_655 S
C452   H464    1.084   .     S
C453   H465    1.084   .     S
C453   C110    1.371   1_565 S
C454   H466    1.081   .     S
C454   C128    1.369   1_565 S
H455   C342    1.088   1_655 S
H460   C933    1.109   .     S
H469   C1415   1.110   1_554 S
N471   Zn485   2.022   .     S
N472   Zn486   2.022   .     S
O475   Zn485   1.997   .     S
O477   Zn486   1.997   .     S
O478   Zn486   1.997   .     S
O479   Zn485   1.997   .     S
O480   Zn485   1.966   .     S
O481   Zn486   1.966   .     S
O482   Zn486   1.977   .     S
O483   Zn485   1.977   .     S
C487   C490    1.418   .     S
C487   O532    1.289   .     A
C487   O529    1.287   .     A
C488   H521    1.083   .     S
C488   C490    1.397   .     A
C488   C831    1.371   1_545 S
C489   C507    1.397   .     A
C489   C508    1.396   .     A
C489   C498    1.418   .     S
C490   C506    1.396   .     A
C491   C495    1.441   .     S
C491   N526    1.367   .     A
C492   C496    1.440   .     S
C492   N525    1.371   .     A
C492   C980    1.434   .     S
C493   O538    1.385   .     S
C493   N525    1.373   .     A
C493   C977    1.430   .     S
C494   O530    1.387   .     S
C494   N526    1.372   .     A
C495   N527    1.157   .     T
C496   N528    1.158   .     T
C497   O538    1.419   .     S
C497   C499    1.522   .     S
C497   H522    1.111   .     S
C497   H1009   1.110   .     S
C498   O533    1.288   .     A
C498   O531    1.288   .     A
C499   H511    1.110   .     S
C499   H564    1.111   .     S
C499   H578    1.111   .     S
C500   H513    1.114   .     S
C500   H512    1.103   .     S
C500   O530    1.417   .     S
C500   C501    1.522   .     S
C501   H515    1.111   .     S
C501   H516    1.111   .     S
C502   C504    1.402   .     S
C502   O536    1.285   .     A
C502   O534    1.283   .     A
C503   O537    1.286   .     A
C503   C505    1.400   .     S
C503   O535    1.281   .     A
C504   C613    1.330   1_455 S
C504   H617    1.088   1_455 S
C505   C558    1.330   .     S
C505   H571    1.085   .     S
C506   H518    1.084   .     S
C506   C832    1.369   1_545 S
C507   H519    1.084   .     S
C507   C650    1.371   .     S
C508   H520    1.081   .     S
C508   C668    1.369   .     S
H509   C558    1.088   .     S
H510   C607    1.111   1_455 S
H514   C987    1.109   .     S
H517   C613    1.085   1_455 S
H524   C607    1.111   1_455 S
N525   Zn539   2.022   .     S
N526   Zn540   2.022   .     S
O529   Zn539   1.997   .     S
O531   Zn540   1.997   .     S
O532   Zn540   1.997   .     S
O533   Zn539   1.997   .     S
O534   Zn539   1.966   .     S
O535   Zn540   1.966   .     S
O536   Zn540   1.977   .     S
O537   Zn539   1.977   .     S
C541   C544    1.418   .     S
C541   O586    1.289   .     A
C541   O583    1.287   .     A
C542   H575    1.083   .     S
C542   C544    1.397   .     A
C542   C885    1.371   1_545 S
C543   C561    1.397   .     A
C543   C562    1.396   .     A
C543   C552    1.418   .     S
C544   C560    1.396   .     A
C545   C549    1.441   .     S
C545   N580    1.367   .     A
C546   C550    1.440   .     S
C546   N579    1.371   .     A
C546   C1034   1.434   .     S
C547   O592    1.385   .     S
C547   N579    1.373   .     A
C547   C1031   1.430   .     S
C548   O584    1.387   .     S
C548   N580    1.372   .     A
C549   N581    1.157   .     T
C550   N582    1.158   .     T
C551   O592    1.419   .     S
C551   C553    1.522   .     S
C551   H576    1.111   .     S
C551   H1063   1.110   .     S
C552   O587    1.288   .     A
C552   O585    1.288   .     A
C553   H565    1.110   .     S
C553   H618    1.111   .     S
C553   H632    1.111   .     S
C554   H567    1.114   .     S
C554   H566    1.103   .     S
C554   O584    1.417   .     S
C554   C555    1.522   .     S
C555   H569    1.111   .     S
C555   H570    1.111   .     S
C556   C558    1.402   .     S
C556   O590    1.285   .     A
C556   O588    1.283   .     A
C557   O591    1.286   .     A
C557   C559    1.400   .     S
C557   O589    1.281   .     A
C559   C612    1.330   .     S
C559   H625    1.085   .     S
C560   H572    1.084   .     S
C560   C886    1.369   1_545 S
C561   H573    1.084   .     S
C561   C704    1.371   .     S
C562   H574    1.081   .     S
C562   C722    1.369   .     S
H563   C612    1.088   .     S
H568   C1041   1.109   .     S
N579   Zn593   2.022   .     S
N580   Zn594   2.022   .     S
O583   Zn593   1.997   .     S
O585   Zn594   1.997   .     S
O586   Zn594   1.997   .     S
O587   Zn593   1.997   .     S
O588   Zn593   1.966   .     S
O589   Zn594   1.966   .     S
O590   Zn594   1.977   .     S
O591   Zn593   1.977   .     S
C595   C598    1.418   .     S
C595   O640    1.289   .     A
C595   O637    1.287   .     A
C596   H629    1.083   .     S
C596   C598    1.397   .     A
C596   C939    1.371   1_545 S
C597   C615    1.397   .     A
C597   C616    1.396   .     A
C597   C606    1.418   .     S
C598   C614    1.396   .     A
C599   C603    1.441   .     S
C599   N634    1.367   .     A
C600   C604    1.440   .     S
C600   N633    1.371   .     A
C600   C1088   1.434   .     S
C601   O646    1.385   .     S
C601   N633    1.373   .     A
C601   C1085   1.430   .     S
C602   O638    1.387   .     S
C602   N634    1.372   .     A
C603   N635    1.157   .     T
C604   N636    1.158   .     T
C605   O646    1.419   .     S
C605   C607    1.522   .     S
C605   H630    1.111   .     S
C605   H1117   1.110   .     S
C606   O641    1.288   .     A
C606   O639    1.288   .     A
C607   H619    1.110   .     S
C607   H510    1.111   1_655 S
C607   H524    1.111   1_655 S
C608   H621    1.114   .     S
C608   H620    1.103   .     S
C608   O638    1.417   .     S
C608   C609    1.522   .     S
C609   H623    1.111   .     S
C609   H624    1.111   .     S
C610   C612    1.402   .     S
C610   O644    1.285   .     A
C610   O642    1.283   .     A
C611   O645    1.286   .     A
C611   C613    1.400   .     S
C611   O643    1.281   .     A
C613   C504    1.330   1_655 S
C613   H517    1.085   1_655 S
C614   H626    1.084   .     S
C614   C940    1.369   1_545 S
C615   H627    1.084   .     S
C615   C758    1.371   .     S
C616   H628    1.081   .     S
C616   C776    1.369   .     S
H617   C504    1.088   1_655 S
H622   C1095   1.109   .     S
N633   Zn647   2.022   .     S
N634   Zn648   2.022   .     S
O637   Zn647   1.997   .     S
O639   Zn648   1.997   .     S
O640   Zn648   1.997   .     S
O641   Zn647   1.997   .     S
O642   Zn647   1.966   .     S
O643   Zn648   1.966   .     S
O644   Zn648   1.977   .     S
O645   Zn647   1.977   .     S
C649   C652    1.418   .     S
C649   O694    1.289   .     A
C649   O691    1.287   .     A
C650   H683    1.083   .     S
C650   C652    1.397   .     A
C651   C669    1.397   .     A
C651   C670    1.396   .     A
C651   C660    1.418   .     S
C652   C668    1.396   .     A
C653   C657    1.441   .     S
C653   N688    1.367   .     A
C654   C658    1.440   .     S
C654   N687    1.371   .     A
C654   C1142   1.434   .     S
C655   O700    1.385   .     S
C655   N687    1.373   .     A
C655   C1139   1.430   .     S
C656   O692    1.387   .     S
C656   N688    1.372   .     A
C657   N689    1.157   .     T
C658   N690    1.158   .     T
C659   O700    1.419   .     S
C659   C661    1.522   .     S
C659   H684    1.111   .     S
C659   H1171   1.110   .     S
C660   O695    1.288   .     A
C660   O693    1.288   .     A
C661   H673    1.110   .     S
C661   H726    1.111   .     S
C661   H740    1.111   .     S
C662   H675    1.114   .     S
C662   H674    1.103   .     S
C662   O692    1.417   .     S
C662   C663    1.522   .     S
C663   H677    1.111   .     S
C663   H678    1.111   .     S
C664   C666    1.402   .     S
C664   O698    1.285   .     A
C664   O696    1.283   .     A
C665   O699    1.286   .     A
C665   C667    1.400   .     S
C665   O697    1.281   .     A
C666   C775    1.330   1_455 S
C666   H779    1.088   1_455 S
C667   C720    1.330   .     S
C667   H733    1.085   .     S
C668   H680    1.084   .     S
C669   H681    1.084   .     S
C669   C812    1.371   .     S
C670   H682    1.081   .     S
C670   C830    1.369   .     S
H671   C720    1.088   .     S
H672   C769    1.111   1_455 S
H676   C1149   1.109   .     S
H679   C775    1.085   1_455 S
H686   C769    1.111   1_455 S
N687   Zn701   2.022   .     S
N688   Zn702   2.022   .     S
O691   Zn701   1.997   .     S
O693   Zn702   1.997   .     S
O694   Zn702   1.997   .     S
O695   Zn701   1.997   .     S
O696   Zn701   1.966   .     S
O697   Zn702   1.966   .     S
O698   Zn702   1.977   .     S
O699   Zn701   1.977   .     S
C703   C706    1.418   .     S
C703   O748    1.289   .     A
C703   O745    1.287   .     A
C704   H737    1.083   .     S
C704   C706    1.397   .     A
C705   C723    1.397   .     A
C705   C724    1.396   .     A
C705   C714    1.418   .     S
C706   C722    1.396   .     A
C707   C711    1.441   .     S
C707   N742    1.367   .     A
C708   C712    1.440   .     S
C708   N741    1.371   .     A
C708   C1196   1.434   .     S
C709   O754    1.385   .     S
C709   N741    1.373   .     A
C709   C1193   1.430   .     S
C710   O746    1.387   .     S
C710   N742    1.372   .     A
C711   N743    1.157   .     T
C712   N744    1.158   .     T
C713   O754    1.419   .     S
C713   C715    1.522   .     S
C713   H738    1.111   .     S
C713   H1225   1.110   .     S
C714   O749    1.288   .     A
C714   O747    1.288   .     A
C715   H727    1.110   .     S
C715   H780    1.111   .     S
C715   H794    1.111   .     S
C716   H729    1.114   .     S
C716   H728    1.103   .     S
C716   O746    1.417   .     S
C716   C717    1.522   .     S
C717   H731    1.111   .     S
C717   H732    1.111   .     S
C718   C720    1.402   .     S
C718   O752    1.285   .     A
C718   O750    1.283   .     A
C719   O753    1.286   .     A
C719   C721    1.400   .     S
C719   O751    1.281   .     A
C721   C774    1.330   .     S
C721   H787    1.085   .     S
C722   H734    1.084   .     S
C723   H735    1.084   .     S
C723   C866    1.371   .     S
C724   H736    1.081   .     S
C724   C884    1.369   .     S
H725   C774    1.088   .     S
H730   C1203   1.109   .     S
N741   Zn755   2.022   .     S
N742   Zn756   2.022   .     S
O745   Zn755   1.997   .     S
O747   Zn756   1.997   .     S
O748   Zn756   1.997   .     S
O749   Zn755   1.997   .     S
O750   Zn755   1.966   .     S
O751   Zn756   1.966   .     S
O752   Zn756   1.977   .     S
O753   Zn755   1.977   .     S
C757   C760    1.418   .     S
C757   O802    1.289   .     A
C757   O799    1.287   .     A
C758   H791    1.083   .     S
C758   C760    1.397   .     A
C759   C777    1.397   .     A
C759   C778    1.396   .     A
C759   C768    1.418   .     S
C760   C776    1.396   .     A
C761   C765    1.441   .     S
C761   N796    1.367   .     A
C762   C766    1.440   .     S
C762   N795    1.371   .     A
C762   C1250   1.434   .     S
C763   O808    1.385   .     S
C763   N795    1.373   .     A
C763   C1247   1.430   .     S
C764   O800    1.387   .     S
C764   N796    1.372   .     A
C765   N797    1.157   .     T
C766   N798    1.158   .     T
C767   O808    1.419   .     S
C767   C769    1.522   .     S
C767   H792    1.111   .     S
C767   H1279   1.110   .     S
C768   O803    1.288   .     A
C768   O801    1.288   .     A
C769   H781    1.110   .     S
C769   H672    1.111   1_655 S
C769   H686    1.111   1_655 S
C770   H783    1.114   .     S
C770   H782    1.103   .     S
C770   O800    1.417   .     S
C770   C771    1.522   .     S
C771   H785    1.111   .     S
C771   H786    1.111   .     S
C772   C774    1.402   .     S
C772   O806    1.285   .     A
C772   O804    1.283   .     A
C773   O807    1.286   .     A
C773   C775    1.400   .     S
C773   O805    1.281   .     A
C775   C666    1.330   1_655 S
C775   H679    1.085   1_655 S
C776   H788    1.084   .     S
C777   H789    1.084   .     S
C777   C920    1.371   .     S
C778   H790    1.081   .     S
C778   C938    1.369   .     S
H779   C666    1.088   1_655 S
H784   C1257   1.109   .     S
N795   Zn809   2.022   .     S
N796   Zn810   2.022   .     S
O799   Zn809   1.997   .     S
O801   Zn810   1.997   .     S
O802   Zn810   1.997   .     S
O803   Zn809   1.997   .     S
O804   Zn809   1.966   .     S
O805   Zn810   1.966   .     S
O806   Zn810   1.977   .     S
O807   Zn809   1.977   .     S
C811   C814    1.418   .     S
C811   O856    1.289   .     A
C811   O853    1.287   .     A
C812   H845    1.083   .     S
C812   C814    1.397   .     A
C813   C831    1.397   .     A
C813   C832    1.396   .     A
C813   C822    1.418   .     S
C814   C830    1.396   .     A
C815   C819    1.441   .     S
C815   N850    1.367   .     A
C816   C820    1.440   .     S
C816   N849    1.371   .     A
C816   C1304   1.434   .     S
C817   O862    1.385   .     S
C817   N849    1.373   .     A
C817   C1301   1.430   .     S
C818   O854    1.387   .     S
C818   N850    1.372   .     A
C819   N851    1.157   .     T
C820   N852    1.158   .     T
C821   O862    1.419   .     S
C821   C823    1.522   .     S
C821   H846    1.111   .     S
C821   H1333   1.110   .     S
C822   O857    1.288   .     A
C822   O855    1.288   .     A
C823   H835    1.110   .     S
C823   H888    1.111   .     S
C823   H902    1.111   .     S
C824   H837    1.114   .     S
C824   H836    1.103   .     S
C824   O854    1.417   .     S
C824   C825    1.522   .     S
C825   H839    1.111   .     S
C825   H840    1.111   .     S
C826   C828    1.402   .     S
C826   O860    1.285   .     A
C826   O858    1.283   .     A
C827   O861    1.286   .     A
C827   C829    1.400   .     S
C827   O859    1.281   .     A
C828   C937    1.330   1_455 S
C828   H941    1.088   1_455 S
C829   C882    1.330   .     S
C829   H895    1.085   .     S
C830   H842    1.084   .     S
C831   H843    1.084   .     S
C831   C488    1.371   1_565 S
C832   H844    1.081   .     S
C832   C506    1.369   1_565 S
H833   C882    1.088   .     S
H834   C931    1.111   1_455 S
H838   C1311   1.109   .     S
H841   C937    1.085   1_455 S
H848   C931    1.111   1_455 S
N849   Zn863   2.022   .     S
N850   Zn864   2.022   .     S
O853   Zn863   1.997   .     S
O855   Zn864   1.997   .     S
O856   Zn864   1.997   .     S
O857   Zn863   1.997   .     S
O858   Zn863   1.966   .     S
O859   Zn864   1.966   .     S
O860   Zn864   1.977   .     S
O861   Zn863   1.977   .     S
C865   C868    1.418   .     S
C865   O910    1.289   .     A
C865   O907    1.287   .     A
C866   H899    1.083   .     S
C866   C868    1.397   .     A
C867   C885    1.397   .     A
C867   C886    1.396   .     A
C867   C876    1.418   .     S
C868   C884    1.396   .     A
C869   C873    1.441   .     S
C869   N904    1.367   .     A
C870   C874    1.440   .     S
C870   N903    1.371   .     A
C870   C1358   1.434   .     S
C871   O916    1.385   .     S
C871   N903    1.373   .     A
C871   C1355   1.430   .     S
C872   O908    1.387   .     S
C872   N904    1.372   .     A
C873   N905    1.157   .     T
C874   N906    1.158   .     T
C875   O916    1.419   .     S
C875   C877    1.522   .     S
C875   H900    1.111   .     S
C875   H1387   1.110   .     S
C876   O911    1.288   .     A
C876   O909    1.288   .     A
C877   H889    1.110   .     S
C877   H942    1.111   .     S
C877   H956    1.111   .     S
C878   H891    1.114   .     S
C878   H890    1.103   .     S
C878   O908    1.417   .     S
C878   C879    1.522   .     S
C879   H893    1.111   .     S
C879   H894    1.111   .     S
C880   C882    1.402   .     S
C880   O914    1.285   .     A
C880   O912    1.283   .     A
C881   O915    1.286   .     A
C881   C883    1.400   .     S
C881   O913    1.281   .     A
C883   C936    1.330   .     S
C883   H949    1.085   .     S
C884   H896    1.084   .     S
C885   H897    1.084   .     S
C885   C542    1.371   1_565 S
C886   H898    1.081   .     S
C886   C560    1.369   1_565 S
H887   C936    1.088   .     S
H892   C1365   1.109   .     S
N903   Zn917   2.022   .     S
N904   Zn918   2.022   .     S
O907   Zn917   1.997   .     S
O909   Zn918   1.997   .     S
O910   Zn918   1.997   .     S
O911   Zn917   1.997   .     S
O912   Zn917   1.966   .     S
O913   Zn918   1.966   .     S
O914   Zn918   1.977   .     S
O915   Zn917   1.977   .     S
C919   C922    1.418   .     S
C919   O964    1.289   .     A
C919   O961    1.287   .     A
C920   H953    1.083   .     S
C920   C922    1.397   .     A
C921   C939    1.397   .     A
C921   C940    1.396   .     A
C921   C930    1.418   .     S
C922   C938    1.396   .     A
C923   C927    1.441   .     S
C923   N958    1.367   .     A
C924   C928    1.440   .     S
C924   N957    1.371   .     A
C924   C1412   1.434   .     S
C925   O970    1.385   .     S
C925   N957    1.373   .     A
C925   C1409   1.430   .     S
C926   O962    1.387   .     S
C926   N958    1.372   .     A
C927   N959    1.157   .     T
C928   N960    1.158   .     T
C929   O970    1.419   .     S
C929   C931    1.522   .     S
C929   H954    1.111   .     S
C929   H1441   1.110   .     S
C930   O965    1.288   .     A
C930   O963    1.288   .     A
C931   H943    1.110   .     S
C931   H834    1.111   1_655 S
C931   H848    1.111   1_655 S
C932   H945    1.114   .     S
C932   H944    1.103   .     S
C932   O962    1.417   .     S
C932   C933    1.522   .     S
C933   H947    1.111   .     S
C933   H948    1.111   .     S
C934   C936    1.402   .     S
C934   O968    1.285   .     A
C934   O966    1.283   .     A
C935   O969    1.286   .     A
C935   C937    1.400   .     S
C935   O967    1.281   .     A
C937   C828    1.330   1_655 S
C937   H841    1.085   1_655 S
C938   H950    1.084   .     S
C939   H951    1.084   .     S
C939   C596    1.371   1_565 S
C940   H952    1.081   .     S
C940   C614    1.369   1_565 S
H941   C828    1.088   1_655 S
H946   C1419   1.109   .     S
N957   Zn971   2.022   .     S
N958   Zn972   2.022   .     S
O961   Zn971   1.997   .     S
O963   Zn972   1.997   .     S
O964   Zn972   1.997   .     S
O965   Zn971   1.997   .     S
O966   Zn971   1.966   .     S
O967   Zn972   1.966   .     S
O968   Zn972   1.977   .     S
O969   Zn971   1.977   .     S
C973   C976    1.418   .     S
C973   O1018   1.289   .     A
C973   O1015   1.287   .     A
C974   H1007   1.083   .     S
C974   C976    1.397   .     A
C974   C1317   1.371   1_545 S
C975   C993    1.397   .     A
C975   C994    1.396   .     A
C975   C984    1.418   .     S
C976   C992    1.396   .     A
C977   C981    1.441   .     S
C977   N1012   1.367   .     A
C978   C982    1.440   .     S
C978   N1011   1.371   .     A
C978   C8      1.434   1_556 S
C979   O1024   1.385   .     S
C979   N1011   1.373   .     A
C979   C5      1.430   1_556 S
C980   O1016   1.387   .     S
C980   N1012   1.372   .     A
C981   N1013   1.157   .     T
C982   N1014   1.158   .     T
C983   O1024   1.419   .     S
C983   C985    1.522   .     S
C983   H1008   1.111   .     S
C983   H37     1.110   1_556 S
C984   O1019   1.288   .     A
C984   O1017   1.288   .     A
C985   H997    1.110   .     S
C985   H1050   1.111   .     S
C985   H1064   1.111   .     S
C986   H999    1.114   .     S
C986   H998    1.103   .     S
C986   O1016   1.417   .     S
C986   C987    1.522   .     S
C987   H1001   1.111   .     S
C987   H1002   1.111   .     S
C988   C990    1.402   .     S
C988   O1022   1.285   .     A
C988   O1020   1.283   .     A
C989   O1023   1.286   .     A
C989   C991    1.400   .     S
C989   O1021   1.281   .     A
C990   C1099   1.330   1_455 S
C990   H1103   1.088   1_455 S
C991   C1044   1.330   .     S
C991   H1057   1.085   .     S
C992   H1004   1.084   .     S
C992   C1318   1.369   1_545 S
C993   H1005   1.084   .     S
C993   C1136   1.371   .     S
C994   H1006   1.081   .     S
C994   C1154   1.369   .     S
H995   C1044   1.088   .     S
H996   C1093   1.111   1_455 S
H1000  C15     1.109   1_556 S
H1003  C1099   1.085   1_455 S
H1010  C1093   1.111   1_455 S
N1011  Zn1025  2.022   .     S
N1012  Zn1026  2.022   .     S
O1015  Zn1025  1.997   .     S
O1017  Zn1026  1.997   .     S
O1018  Zn1026  1.997   .     S
O1019  Zn1025  1.997   .     S
O1020  Zn1025  1.966   .     S
O1021  Zn1026  1.966   .     S
O1022  Zn1026  1.977   .     S
O1023  Zn1025  1.977   .     S
C1027  C1030   1.418   .     S
C1027  O1072   1.289   .     A
C1027  O1069   1.287   .     A
C1028  H1061   1.083   .     S
C1028  C1030   1.397   .     A
C1028  C1371   1.371   1_545 S
C1029  C1047   1.397   .     A
C1029  C1048   1.396   .     A
C1029  C1038   1.418   .     S
C1030  C1046   1.396   .     A
C1031  C1035   1.441   .     S
C1031  N1066   1.367   .     A
C1032  C1036   1.440   .     S
C1032  N1065   1.371   .     A
C1032  C62     1.434   1_556 S
C1033  O1078   1.385   .     S
C1033  N1065   1.373   .     A
C1033  C59     1.430   1_556 S
C1034  O1070   1.387   .     S
C1034  N1066   1.372   .     A
C1035  N1067   1.157   .     T
C1036  N1068   1.158   .     T
C1037  O1078   1.419   .     S
C1037  C1039   1.522   .     S
C1037  H1062   1.111   .     S
C1037  H91     1.110   1_556 S
C1038  O1073   1.288   .     A
C1038  O1071   1.288   .     A
C1039  H1051   1.110   .     S
C1039  H1104   1.111   .     S
C1039  H1118   1.111   .     S
C1040  H1053   1.114   .     S
C1040  H1052   1.103   .     S
C1040  O1070   1.417   .     S
C1040  C1041   1.522   .     S
C1041  H1055   1.111   .     S
C1041  H1056   1.111   .     S
C1042  C1044   1.402   .     S
C1042  O1076   1.285   .     A
C1042  O1074   1.283   .     A
C1043  O1077   1.286   .     A
C1043  C1045   1.400   .     S
C1043  O1075   1.281   .     A
C1045  C1098   1.330   .     S
C1045  H1111   1.085   .     S
C1046  H1058   1.084   .     S
C1046  C1372   1.369   1_545 S
C1047  H1059   1.084   .     S
C1047  C1190   1.371   .     S
C1048  H1060   1.081   .     S
C1048  C1208   1.369   .     S
H1049  C1098   1.088   .     S
H1054  C69     1.109   1_556 S
N1065  Zn1079  2.022   .     S
N1066  Zn1080  2.022   .     S
O1069  Zn1079  1.997   .     S
O1071  Zn1080  1.997   .     S
O1072  Zn1080  1.997   .     S
O1073  Zn1079  1.997   .     S
O1074  Zn1079  1.966   .     S
O1075  Zn1080  1.966   .     S
O1076  Zn1080  1.977   .     S
O1077  Zn1079  1.977   .     S
C1081  C1084   1.418   .     S
C1081  O1126   1.289   .     A
C1081  O1123   1.287   .     A
C1082  H1115   1.083   .     S
C1082  C1084   1.397   .     A
C1082  C1425   1.371   1_545 S
C1083  C1101   1.397   .     A
C1083  C1102   1.396   .     A
C1083  C1092   1.418   .     S
C1084  C1100   1.396   .     A
C1085  C1089   1.441   .     S
C1085  N1120   1.367   .     A
C1086  C1090   1.440   .     S
C1086  N1119   1.371   .     A
C1086  C116    1.434   1_556 S
C1087  O1132   1.385   .     S
C1087  N1119   1.373   .     A
C1087  C113    1.430   1_556 S
C1088  O1124   1.387   .     S
C1088  N1120   1.372   .     A
C1089  N1121   1.157   .     T
C1090  N1122   1.158   .     T
C1091  O1132   1.419   .     S
C1091  C1093   1.522   .     S
C1091  H1116   1.111   .     S
C1091  H145    1.110   1_556 S
C1092  O1127   1.288   .     A
C1092  O1125   1.288   .     A
C1093  H1105   1.110   .     S
C1093  H996    1.111   1_655 S
C1093  H1010   1.111   1_655 S
C1094  H1107   1.114   .     S
C1094  H1106   1.103   .     S
C1094  O1124   1.417   .     S
C1094  C1095   1.522   .     S
C1095  H1109   1.111   .     S
C1095  H1110   1.111   .     S
C1096  C1098   1.402   .     S
C1096  O1130   1.285   .     A
C1096  O1128   1.283   .     A
C1097  O1131   1.286   .     A
C1097  C1099   1.400   .     S
C1097  O1129   1.281   .     A
C1099  C990    1.330   1_655 S
C1099  H1003   1.085   1_655 S
C1100  H1112   1.084   .     S
C1100  C1426   1.369   1_545 S
C1101  H1113   1.084   .     S
C1101  C1244   1.371   .     S
C1102  H1114   1.081   .     S
C1102  C1262   1.369   .     S
H1103  C990    1.088   1_655 S
H1108  C123    1.109   1_556 S
N1119  Zn1133  2.022   .     S
N1120  Zn1134  2.022   .     S
O1123  Zn1133  1.997   .     S
O1125  Zn1134  1.997   .     S
O1126  Zn1134  1.997   .     S
O1127  Zn1133  1.997   .     S
O1128  Zn1133  1.966   .     S
O1129  Zn1134  1.966   .     S
O1130  Zn1134  1.977   .     S
O1131  Zn1133  1.977   .     S
C1135  C1138   1.418   .     S
C1135  O1180   1.289   .     A
C1135  O1177   1.287   .     A
C1136  H1169   1.083   .     S
C1136  C1138   1.397   .     A
C1137  C1155   1.397   .     A
C1137  C1156   1.396   .     A
C1137  C1146   1.418   .     S
C1138  C1154   1.396   .     A
C1139  C1143   1.441   .     S
C1139  N1174   1.367   .     A
C1140  C1144   1.440   .     S
C1140  N1173   1.371   .     A
C1140  C170    1.434   1_556 S
C1141  O1186   1.385   .     S
C1141  N1173   1.373   .     A
C1141  C167    1.430   1_556 S
C1142  O1178   1.387   .     S
C1142  N1174   1.372   .     A
C1143  N1175   1.157   .     T
C1144  N1176   1.158   .     T
C1145  O1186   1.419   .     S
C1145  C1147   1.522   .     S
C1145  H1170   1.111   .     S
C1145  H199    1.110   1_556 S
C1146  O1181   1.288   .     A
C1146  O1179   1.288   .     A
C1147  H1159   1.110   .     S
C1147  H1212   1.111   .     S
C1147  H1226   1.111   .     S
C1148  H1161   1.114   .     S
C1148  H1160   1.103   .     S
C1148  O1178   1.417   .     S
C1148  C1149   1.522   .     S
C1149  H1163   1.111   .     S
C1149  H1164   1.111   .     S
C1150  C1152   1.402   .     S
C1150  O1184   1.285   .     A
C1150  O1182   1.283   .     A
C1151  O1185   1.286   .     A
C1151  C1153   1.400   .     S
C1151  O1183   1.281   .     A
C1152  C1261   1.330   1_455 S
C1152  H1265   1.088   1_455 S
C1153  C1206   1.330   .     S
C1153  H1219   1.085   .     S
C1154  H1166   1.084   .     S
C1155  H1167   1.084   .     S
C1155  C1298   1.371   .     S
C1156  H1168   1.081   .     S
C1156  C1316   1.369   .     S
H1157  C1206   1.088   .     S
H1158  C1255   1.111   1_455 S
H1162  C177    1.109   1_556 S
H1165  C1261   1.085   1_455 S
H1172  C1255   1.111   1_455 S
N1173  Zn1187  2.022   .     S
N1174  Zn1188  2.022   .     S
O1177  Zn1187  1.997   .     S
O1179  Zn1188  1.997   .     S
O1180  Zn1188  1.997   .     S
O1181  Zn1187  1.997   .     S
O1182  Zn1187  1.966   .     S
O1183  Zn1188  1.966   .     S
O1184  Zn1188  1.977   .     S
O1185  Zn1187  1.977   .     S
C1189  C1192   1.418   .     S
C1189  O1234   1.289   .     A
C1189  O1231   1.287   .     A
C1190  H1223   1.083   .     S
C1190  C1192   1.397   .     A
C1191  C1209   1.397   .     A
C1191  C1210   1.396   .     A
C1191  C1200   1.418   .     S
C1192  C1208   1.396   .     A
C1193  C1197   1.441   .     S
C1193  N1228   1.367   .     A
C1194  C1198   1.440   .     S
C1194  N1227   1.371   .     A
C1194  C224    1.434   1_556 S
C1195  O1240   1.385   .     S
C1195  N1227   1.373   .     A
C1195  C221    1.430   1_556 S
C1196  O1232   1.387   .     S
C1196  N1228   1.372   .     A
C1197  N1229   1.157   .     T
C1198  N1230   1.158   .     T
C1199  O1240   1.419   .     S
C1199  C1201   1.522   .     S
C1199  H1224   1.111   .     S
C1199  H253    1.110   1_556 S
C1200  O1235   1.288   .     A
C1200  O1233   1.288   .     A
C1201  H1213   1.110   .     S
C1201  H1266   1.111   .     S
C1201  H1280   1.111   .     S
C1202  H1215   1.114   .     S
C1202  H1214   1.103   .     S
C1202  O1232   1.417   .     S
C1202  C1203   1.522   .     S
C1203  H1217   1.111   .     S
C1203  H1218   1.111   .     S
C1204  C1206   1.402   .     S
C1204  O1238   1.285   .     A
C1204  O1236   1.283   .     A
C1205  O1239   1.286   .     A
C1205  C1207   1.400   .     S
C1205  O1237   1.281   .     A
C1207  C1260   1.330   .     S
C1207  H1273   1.085   .     S
C1208  H1220   1.084   .     S
C1209  H1221   1.084   .     S
C1209  C1352   1.371   .     S
C1210  H1222   1.081   .     S
C1210  C1370   1.369   .     S
H1211  C1260   1.088   .     S
H1216  C231    1.109   1_556 S
N1227  Zn1241  2.022   .     S
N1228  Zn1242  2.022   .     S
O1231  Zn1241  1.997   .     S
O1233  Zn1242  1.997   .     S
O1234  Zn1242  1.997   .     S
O1235  Zn1241  1.997   .     S
O1236  Zn1241  1.966   .     S
O1237  Zn1242  1.966   .     S
O1238  Zn1242  1.977   .     S
O1239  Zn1241  1.977   .     S
C1243  C1246   1.418   .     S
C1243  O1288   1.289   .     A
C1243  O1285   1.287   .     A
C1244  H1277   1.083   .     S
C1244  C1246   1.397   .     A
C1245  C1263   1.397   .     A
C1245  C1264   1.396   .     A
C1245  C1254   1.418   .     S
C1246  C1262   1.396   .     A
C1247  C1251   1.441   .     S
C1247  N1282   1.367   .     A
C1248  C1252   1.440   .     S
C1248  N1281   1.371   .     A
C1248  C278    1.434   1_556 S
C1249  O1294   1.385   .     S
C1249  N1281   1.373   .     A
C1249  C275    1.430   1_556 S
C1250  O1286   1.387   .     S
C1250  N1282   1.372   .     A
C1251  N1283   1.157   .     T
C1252  N1284   1.158   .     T
C1253  O1294   1.419   .     S
C1253  C1255   1.522   .     S
C1253  H1278   1.111   .     S
C1253  H307    1.110   1_556 S
C1254  O1289   1.288   .     A
C1254  O1287   1.288   .     A
C1255  H1267   1.110   .     S
C1255  H1158   1.111   1_655 S
C1255  H1172   1.111   1_655 S
C1256  H1269   1.114   .     S
C1256  H1268   1.103   .     S
C1256  O1286   1.417   .     S
C1256  C1257   1.522   .     S
C1257  H1271   1.111   .     S
C1257  H1272   1.111   .     S
C1258  C1260   1.402   .     S
C1258  O1292   1.285   .     A
C1258  O1290   1.283   .     A
C1259  O1293   1.286   .     A
C1259  C1261   1.400   .     S
C1259  O1291   1.281   .     A
C1261  C1152   1.330   1_655 S
C1261  H1165   1.085   1_655 S
C1262  H1274   1.084   .     S
C1263  H1275   1.084   .     S
C1263  C1406   1.371   .     S
C1264  H1276   1.081   .     S
C1264  C1424   1.369   .     S
H1265  C1152   1.088   1_655 S
H1270  C285    1.109   1_556 S
N1281  Zn1295  2.022   .     S
N1282  Zn1296  2.022   .     S
O1285  Zn1295  1.997   .     S
O1287  Zn1296  1.997   .     S
O1288  Zn1296  1.997   .     S
O1289  Zn1295  1.997   .     S
O1290  Zn1295  1.966   .     S
O1291  Zn1296  1.966   .     S
O1292  Zn1296  1.977   .     S
O1293  Zn1295  1.977   .     S
C1297  C1300   1.418   .     S
C1297  O1342   1.289   .     A
C1297  O1339   1.287   .     A
C1298  H1331   1.083   .     S
C1298  C1300   1.397   .     A
C1299  C1317   1.397   .     A
C1299  C1318   1.396   .     A
C1299  C1308   1.418   .     S
C1300  C1316   1.396   .     A
C1301  C1305   1.441   .     S
C1301  N1336   1.367   .     A
C1302  C1306   1.440   .     S
C1302  N1335   1.371   .     A
C1302  C332    1.434   1_556 S
C1303  O1348   1.385   .     S
C1303  N1335   1.373   .     A
C1303  C329    1.430   1_556 S
C1304  O1340   1.387   .     S
C1304  N1336   1.372   .     A
C1305  N1337   1.157   .     T
C1306  N1338   1.158   .     T
C1307  O1348   1.419   .     S
C1307  C1309   1.522   .     S
C1307  H1332   1.111   .     S
C1307  H361    1.110   1_556 S
C1308  O1343   1.288   .     A
C1308  O1341   1.288   .     A
C1309  H1321   1.110   .     S
C1309  H1374   1.111   .     S
C1309  H1388   1.111   .     S
C1310  H1323   1.114   .     S
C1310  H1322   1.103   .     S
C1310  O1340   1.417   .     S
C1310  C1311   1.522   .     S
C1311  H1325   1.111   .     S
C1311  H1326   1.111   .     S
C1312  C1314   1.402   .     S
C1312  O1346   1.285   .     A
C1312  O1344   1.283   .     A
C1313  O1347   1.286   .     A
C1313  C1315   1.400   .     S
C1313  O1345   1.281   .     A
C1314  C1423   1.330   1_455 S
C1314  H1427   1.088   1_455 S
C1315  C1368   1.330   .     S
C1315  H1381   1.085   .     S
C1316  H1328   1.084   .     S
C1317  H1329   1.084   .     S
C1317  C974    1.371   1_565 S
C1318  H1330   1.081   .     S
C1318  C992    1.369   1_565 S
H1319  C1368   1.088   .     S
H1320  C1417   1.111   1_455 S
H1324  C339    1.109   1_556 S
H1327  C1423   1.085   1_455 S
H1334  C1417   1.111   1_455 S
N1335  Zn1349  2.022   .     S
N1336  Zn1350  2.022   .     S
O1339  Zn1349  1.997   .     S
O1341  Zn1350  1.997   .     S
O1342  Zn1350  1.997   .     S
O1343  Zn1349  1.997   .     S
O1344  Zn1349  1.966   .     S
O1345  Zn1350  1.966   .     S
O1346  Zn1350  1.977   .     S
O1347  Zn1349  1.977   .     S
C1351  C1354   1.418   .     S
C1351  O1396   1.289   .     A
C1351  O1393   1.287   .     A
C1352  H1385   1.083   .     S
C1352  C1354   1.397   .     A
C1353  C1371   1.397   .     A
C1353  C1372   1.396   .     A
C1353  C1362   1.418   .     S
C1354  C1370   1.396   .     A
C1355  C1359   1.441   .     S
C1355  N1390   1.367   .     A
C1356  C1360   1.440   .     S
C1356  N1389   1.371   .     A
C1356  C386    1.434   1_556 S
C1357  O1402   1.385   .     S
C1357  N1389   1.373   .     A
C1357  C383    1.430   1_556 S
C1358  O1394   1.387   .     S
C1358  N1390   1.372   .     A
C1359  N1391   1.157   .     T
C1360  N1392   1.158   .     T
C1361  O1402   1.419   .     S
C1361  C1363   1.522   .     S
C1361  H1386   1.111   .     S
C1361  H415    1.110   1_556 S
C1362  O1397   1.288   .     A
C1362  O1395   1.288   .     A
C1363  H1375   1.110   .     S
C1363  H1428   1.111   .     S
C1363  H1442   1.111   .     S
C1364  H1377   1.114   .     S
C1364  H1376   1.103   .     S
C1364  O1394   1.417   .     S
C1364  C1365   1.522   .     S
C1365  H1379   1.111   .     S
C1365  H1380   1.111   .     S
C1366  C1368   1.402   .     S
C1366  O1400   1.285   .     A
C1366  O1398   1.283   .     A
C1367  O1401   1.286   .     A
C1367  C1369   1.400   .     S
C1367  O1399   1.281   .     A
C1369  C1422   1.330   .     S
C1369  H1435   1.085   .     S
C1370  H1382   1.084   .     S
C1371  H1383   1.084   .     S
C1371  C1028   1.371   1_565 S
C1372  H1384   1.081   .     S
C1372  C1046   1.369   1_565 S
H1373  C1422   1.088   .     S
H1378  C393    1.109   1_556 S
N1389  Zn1403  2.022   .     S
N1390  Zn1404  2.022   .     S
O1393  Zn1403  1.997   .     S
O1395  Zn1404  1.997   .     S
O1396  Zn1404  1.997   .     S
O1397  Zn1403  1.997   .     S
O1398  Zn1403  1.966   .     S
O1399  Zn1404  1.966   .     S
O1400  Zn1404  1.977   .     S
O1401  Zn1403  1.977   .     S
C1405  C1408   1.418   .     S
C1405  O1450   1.289   .     A
C1405  O1447   1.287   .     A
C1406  H1439   1.083   .     S
C1406  C1408   1.397   .     A
C1407  C1425   1.397   .     A
C1407  C1426   1.396   .     A
C1407  C1416   1.418   .     S
C1408  C1424   1.396   .     A
C1409  C1413   1.441   .     S
C1409  N1444   1.367   .     A
C1410  C1414   1.440   .     S
C1410  N1443   1.371   .     A
C1410  C440    1.434   1_556 S
C1411  O1456   1.385   .     S
C1411  N1443   1.373   .     A
C1411  C437    1.430   1_556 S
C1412  O1448   1.387   .     S
C1412  N1444   1.372   .     A
C1413  N1445   1.157   .     T
C1414  N1446   1.158   .     T
C1415  O1456   1.419   .     S
C1415  C1417   1.522   .     S
C1415  H1440   1.111   .     S
C1415  H469    1.110   1_556 S
C1416  O1451   1.288   .     A
C1416  O1449   1.288   .     A
C1417  H1429   1.110   .     S
C1417  H1320   1.111   1_655 S
C1417  H1334   1.111   1_655 S
C1418  H1431   1.114   .     S
C1418  H1430   1.103   .     S
C1418  O1448   1.417   .     S
C1418  C1419   1.522   .     S
C1419  H1433   1.111   .     S
C1419  H1434   1.111   .     S
C1420  C1422   1.402   .     S
C1420  O1454   1.285   .     A
C1420  O1452   1.283   .     A
C1421  O1455   1.286   .     A
C1421  C1423   1.400   .     S
C1421  O1453   1.281   .     A
C1423  C1314   1.330   1_655 S
C1423  H1327   1.085   1_655 S
C1424  H1436   1.084   .     S
C1425  H1437   1.084   .     S
C1425  C1082   1.371   1_565 S
C1426  H1438   1.081   .     S
C1426  C1100   1.369   1_565 S
H1427  C1314   1.088   1_655 S
H1432  C447    1.109   1_556 S
N1443  Zn1457  2.022   .     S
N1444  Zn1458  2.022   .     S
O1447  Zn1457  1.997   .     S
O1449  Zn1458  1.997   .     S
O1450  Zn1458  1.997   .     S
O1451  Zn1457  1.997   .     S
O1452  Zn1457  1.966   .     S
O1453  Zn1458  1.966   .     S
O1454  Zn1458  1.977   .     S
O1455  Zn1457  1.977   .     S
