data_str_m2_o10_o16_pcu_sym.141
_audit_creation_date              2020-01-03
_audit_creation_method            'Materials Studio'
_symmetry_space_group_name_H-M    'P1'
_symmetry_Int_Tables_number       1
_symmetry_cell_setting            triclinic
loop_
_symmetry_equiv_pos_as_xyz
  x,y,z
_cell_length_a                    22.2443
_cell_length_b                    26.0855
_cell_length_c                    26.6750
_cell_angle_alpha                 94.1604
_cell_angle_beta                  77.0007
_cell_angle_gamma                 102.9491
loop_
_atom_site_label
_atom_site_type_symbol
_atom_site_fract_x
_atom_site_fract_y
_atom_site_fract_z
_atom_site_U_iso_or_equiv
_atom_site_adp_type
_atom_site_occupancy
C1     C     0.18326   0.26645   0.24726   0.00000  Uiso   1.00
C2     C     0.14922   0.14828   0.48132   0.00000  Uiso   1.00
C3     C     0.15423   0.17673   0.43641   0.00000  Uiso   1.00
C4     C     0.19322   0.16709   0.01317   0.00000  Uiso   1.00
C5     C     0.24875   0.20511   0.49457   0.00000  Uiso   1.00
C6     C     0.25357   0.23202   0.45015   0.00000  Uiso   1.00
C7     C     0.20389   0.22185   0.42456   0.00000  Uiso   1.00
C8     C     0.17915   0.15534   0.06548   0.00000  Uiso   1.00
C9     C     0.28195   0.20491   0.07511   0.00000  Uiso   1.00
C10    C     0.11019   0.15879   0.40432   0.00000  Uiso   1.00
C11    C     0.19503   0.32143   0.23653   0.00000  Uiso   1.00
C12    C     0.13236   0.16447   0.34766   0.00000  Uiso   1.00
C13    C     0.14505   0.01083   0.24731   0.00000  Uiso   1.00
C14    C     0.15246   0.06667   0.24694   0.00000  Uiso   1.00
C15    C     0.20079   0.16969   0.15268   0.00000  Uiso   1.00
C16    C     0.29474   0.22083   0.02429   0.00000  Uiso   1.00
C17    C     0.22230   0.17493   0.09677   0.00000  Uiso   1.00
C18    C     0.05369   0.12196   0.42407   0.00000  Uiso   1.00
C19    C     0.05123   0.09251   0.46631   0.00000  Uiso   1.00
C20    C     0.10055   0.10227   0.49215   0.00000  Uiso   1.00
Cu21   Cu    0.10710   0.16105   0.24436   0.00000  Uiso   1.00
Cu22   Cu    0.22623   0.17228   0.25565   0.00000  Uiso   1.00
H23    H     0.31611   0.22020   0.09865   0.00000  Uiso   1.00
H24    H     0.09748   0.32171   0.26187   0.00000  Uiso   1.00
H25    H     0.00333   0.20559   0.29008   0.00000  Uiso   1.00
H26    H     0.33029   0.12830   0.20949   0.00000  Uiso   1.00
H27    H     0.29249   0.26527   0.43895   0.00000  Uiso   1.00
H28    H     0.00514   0.24845   0.00955   0.00000  Uiso   1.00
H29    H     0.13209   0.13529   0.08344   0.00000  Uiso   1.00
H30    H     0.01187   0.05964   0.47767   0.00000  Uiso   1.00
N31    N     0.31574   0.18074   0.26416   0.00000  Uiso   1.00
N32    N     0.01759   0.15259   0.23584   0.00000  Uiso   1.00
O33    O     0.12797   0.23807   0.24633   0.00000  Uiso   1.00
O34    O     0.22858   0.24755   0.25587   0.00000  Uiso   1.00
O35    O     0.09181   0.15960   0.31840   0.00000  Uiso   1.00
O36    O     0.19242   0.16908   0.32793   0.00000  Uiso   1.00
O37    O     0.10476   0.08578   0.24414   0.00000  Uiso   1.00
O38    O     0.20536   0.09526   0.25367   0.00000  Uiso   1.00
O39    O     0.14092   0.16425   0.17207   0.00000  Uiso   1.00
O40    O     0.24152   0.17373   0.18161   0.00000  Uiso   1.00
C41    C     0.33115   0.10982   0.40030   0.00000  Uiso   1.00
H42    H     0.30133   0.07056   0.40292   0.00000  Uiso   1.00
O43    O     0.31526   0.14416   0.38085   0.00000  Uiso   1.00
I44    I     0.10262   0.03784   0.03650   0.00000  Uiso   1.00
I45    I     0.19993   0.28497   0.37993   0.00000  Uiso   1.00
C46    C     0.25922   0.01483   0.20843   0.00000  Uiso   1.00
H47    H     0.26475   0.04818   0.18451   0.00000  Uiso   1.00
O48    O     0.30628   0.33239   0.21053   0.00000  Uiso   1.00
C49    C     0.51660   0.26645   0.24726   0.00000  Uiso   1.00
C50    C     0.48256   0.14828   0.48132   0.00000  Uiso   1.00
C51    C     0.48756   0.17673   0.43641   0.00000  Uiso   1.00
C52    C     0.52656   0.16709   0.01317   0.00000  Uiso   1.00
C53    C     0.58208   0.20511   0.49457   0.00000  Uiso   1.00
C54    C     0.58691   0.23202   0.45015   0.00000  Uiso   1.00
C55    C     0.53722   0.22185   0.42456   0.00000  Uiso   1.00
C56    C     0.51249   0.15534   0.06548   0.00000  Uiso   1.00
C57    C     0.61528   0.20491   0.07511   0.00000  Uiso   1.00
C58    C     0.44352   0.15879   0.40432   0.00000  Uiso   1.00
C59    C     0.52836   0.32143   0.23653   0.00000  Uiso   1.00
C60    C     0.46569   0.16447   0.34766   0.00000  Uiso   1.00
C61    C     0.47839   0.01083   0.24731   0.00000  Uiso   1.00
C62    C     0.48579   0.06667   0.24694   0.00000  Uiso   1.00
C63    C     0.53413   0.16969   0.15268   0.00000  Uiso   1.00
C64    C     0.62808   0.22083   0.02429   0.00000  Uiso   1.00
C65    C     0.55563   0.17493   0.09677   0.00000  Uiso   1.00
C66    C     0.38702   0.12196   0.42407   0.00000  Uiso   1.00
C67    C     0.38456   0.09251   0.46631   0.00000  Uiso   1.00
C68    C     0.43388   0.10227   0.49215   0.00000  Uiso   1.00
Cu69   Cu    0.44043   0.16105   0.24436   0.00000  Uiso   1.00
Cu70   Cu    0.55957   0.17228   0.25565   0.00000  Uiso   1.00
H71    H     0.64944   0.22020   0.09865   0.00000  Uiso   1.00
H72    H     0.43082   0.32171   0.26187   0.00000  Uiso   1.00
H73    H     0.33666   0.20559   0.29008   0.00000  Uiso   1.00
H74    H     0.66363   0.12830   0.20949   0.00000  Uiso   1.00
H75    H     0.62582   0.26527   0.43895   0.00000  Uiso   1.00
H76    H     0.33847   0.24845   0.00955   0.00000  Uiso   1.00
H77    H     0.46542   0.13529   0.08344   0.00000  Uiso   1.00
H78    H     0.34520   0.05964   0.47767   0.00000  Uiso   1.00
N79    N     0.64908   0.18074   0.26416   0.00000  Uiso   1.00
N80    N     0.35092   0.15259   0.23584   0.00000  Uiso   1.00
O81    O     0.46131   0.23807   0.24633   0.00000  Uiso   1.00
O82    O     0.56191   0.24755   0.25587   0.00000  Uiso   1.00
O83    O     0.42515   0.15960   0.31840   0.00000  Uiso   1.00
O84    O     0.52575   0.16908   0.32793   0.00000  Uiso   1.00
O85    O     0.43809   0.08578   0.24414   0.00000  Uiso   1.00
O86    O     0.53869   0.09526   0.25367   0.00000  Uiso   1.00
O87    O     0.47425   0.16425   0.17207   0.00000  Uiso   1.00
O88    O     0.57485   0.17373   0.18161   0.00000  Uiso   1.00
C89    C     0.66448   0.10982   0.40030   0.00000  Uiso   1.00
H90    H     0.63467   0.07056   0.40292   0.00000  Uiso   1.00
O91    O     0.64859   0.14416   0.38085   0.00000  Uiso   1.00
I92    I     0.43596   0.03784   0.03650   0.00000  Uiso   1.00
I93    I     0.53327   0.28497   0.37993   0.00000  Uiso   1.00
C94    C     0.59255   0.01483   0.20843   0.00000  Uiso   1.00
H95    H     0.59809   0.04818   0.18451   0.00000  Uiso   1.00
O96    O     0.63961   0.33239   0.21053   0.00000  Uiso   1.00
C97    C     0.84993   0.26645   0.24726   0.00000  Uiso   1.00
C98    C     0.81589   0.14828   0.48132   0.00000  Uiso   1.00
C99    C     0.82089   0.17673   0.43641   0.00000  Uiso   1.00
C100   C     0.85989   0.16709   0.01317   0.00000  Uiso   1.00
C101   C     0.91542   0.20511   0.49457   0.00000  Uiso   1.00
C102   C     0.92024   0.23202   0.45015   0.00000  Uiso   1.00
C103   C     0.87056   0.22185   0.42456   0.00000  Uiso   1.00
C104   C     0.84582   0.15534   0.06548   0.00000  Uiso   1.00
C105   C     0.94862   0.20491   0.07511   0.00000  Uiso   1.00
C106   C     0.77686   0.15879   0.40432   0.00000  Uiso   1.00
C107   C     0.86170   0.32143   0.23653   0.00000  Uiso   1.00
C108   C     0.79902   0.16447   0.34766   0.00000  Uiso   1.00
C109   C     0.81172   0.01083   0.24731   0.00000  Uiso   1.00
C110   C     0.81913   0.06667   0.24694   0.00000  Uiso   1.00
C111   C     0.86746   0.16969   0.15268   0.00000  Uiso   1.00
C112   C     0.96141   0.22083   0.02429   0.00000  Uiso   1.00
C113   C     0.88896   0.17493   0.09677   0.00000  Uiso   1.00
C114   C     0.72035   0.12196   0.42407   0.00000  Uiso   1.00
C115   C     0.71789   0.09251   0.46631   0.00000  Uiso   1.00
C116   C     0.76722   0.10227   0.49215   0.00000  Uiso   1.00
Cu117  Cu    0.77377   0.16105   0.24436   0.00000  Uiso   1.00
Cu118  Cu    0.89290   0.17228   0.25565   0.00000  Uiso   1.00
H119   H     0.98277   0.22020   0.09865   0.00000  Uiso   1.00
H120   H     0.76415   0.32171   0.26187   0.00000  Uiso   1.00
H121   H     0.67000   0.20559   0.29008   0.00000  Uiso   1.00
H122   H     0.99696   0.12830   0.20949   0.00000  Uiso   1.00
H123   H     0.95915   0.26527   0.43895   0.00000  Uiso   1.00
H124   H     0.67180   0.24845   0.00955   0.00000  Uiso   1.00
H125   H     0.79875   0.13529   0.08344   0.00000  Uiso   1.00
H126   H     0.67853   0.05964   0.47767   0.00000  Uiso   1.00
N127   N     0.98241   0.18074   0.26416   0.00000  Uiso   1.00
N128   N     0.68426   0.15259   0.23584   0.00000  Uiso   1.00
O129   O     0.79464   0.23807   0.24633   0.00000  Uiso   1.00
O130   O     0.89524   0.24755   0.25587   0.00000  Uiso   1.00
O131   O     0.75848   0.15960   0.31840   0.00000  Uiso   1.00
O132   O     0.85908   0.16908   0.32793   0.00000  Uiso   1.00
O133   O     0.77142   0.08578   0.24414   0.00000  Uiso   1.00
O134   O     0.87203   0.09526   0.25367   0.00000  Uiso   1.00
O135   O     0.80758   0.16425   0.17207   0.00000  Uiso   1.00
O136   O     0.90819   0.17373   0.18161   0.00000  Uiso   1.00
C137   C     0.99781   0.10982   0.40030   0.00000  Uiso   1.00
H138   H     0.96800   0.07056   0.40292   0.00000  Uiso   1.00
O139   O     0.98192   0.14416   0.38085   0.00000  Uiso   1.00
I140   I     0.76929   0.03784   0.03650   0.00000  Uiso   1.00
I141   I     0.86660   0.28497   0.37993   0.00000  Uiso   1.00
C142   C     0.92589   0.01483   0.20843   0.00000  Uiso   1.00
H143   H     0.93142   0.04818   0.18451   0.00000  Uiso   1.00
O144   O     0.97295   0.33239   0.21053   0.00000  Uiso   1.00
C145   C     0.18326   0.59978   0.24726   0.00000  Uiso   1.00
C146   C     0.14922   0.48161   0.48132   0.00000  Uiso   1.00
C147   C     0.15423   0.51006   0.43641   0.00000  Uiso   1.00
C148   C     0.19322   0.50042   0.01317   0.00000  Uiso   1.00
C149   C     0.24875   0.53844   0.49457   0.00000  Uiso   1.00
C150   C     0.25357   0.56535   0.45015   0.00000  Uiso   1.00
C151   C     0.20389   0.55519   0.42456   0.00000  Uiso   1.00
C152   C     0.17915   0.48867   0.06548   0.00000  Uiso   1.00
C153   C     0.28195   0.53824   0.07511   0.00000  Uiso   1.00
C154   C     0.11019   0.49212   0.40432   0.00000  Uiso   1.00
C155   C     0.19503   0.65476   0.23653   0.00000  Uiso   1.00
C156   C     0.13236   0.49781   0.34766   0.00000  Uiso   1.00
C157   C     0.14505   0.34417   0.24731   0.00000  Uiso   1.00
C158   C     0.15246   0.40001   0.24694   0.00000  Uiso   1.00
C159   C     0.20079   0.50302   0.15268   0.00000  Uiso   1.00
C160   C     0.29474   0.55416   0.02429   0.00000  Uiso   1.00
C161   C     0.22230   0.50826   0.09677   0.00000  Uiso   1.00
C162   C     0.05369   0.45529   0.42407   0.00000  Uiso   1.00
C163   C     0.05123   0.42584   0.46631   0.00000  Uiso   1.00
C164   C     0.10055   0.43560   0.49215   0.00000  Uiso   1.00
Cu165  Cu    0.10710   0.49439   0.24436   0.00000  Uiso   1.00
Cu166  Cu    0.22623   0.50561   0.25565   0.00000  Uiso   1.00
H167   H     0.31611   0.55353   0.09865   0.00000  Uiso   1.00
H168   H     0.09748   0.65505   0.26187   0.00000  Uiso   1.00
H169   H     0.00333   0.53892   0.29008   0.00000  Uiso   1.00
H170   H     0.33029   0.46163   0.20949   0.00000  Uiso   1.00
H171   H     0.29249   0.59860   0.43895   0.00000  Uiso   1.00
H172   H     0.00514   0.58178   0.00955   0.00000  Uiso   1.00
H173   H     0.13209   0.46863   0.08344   0.00000  Uiso   1.00
H174   H     0.01187   0.39297   0.47767   0.00000  Uiso   1.00
N175   N     0.31574   0.51407   0.26416   0.00000  Uiso   1.00
N176   N     0.01759   0.48593   0.23584   0.00000  Uiso   1.00
O177   O     0.12797   0.57141   0.24633   0.00000  Uiso   1.00
O178   O     0.22858   0.58089   0.25587   0.00000  Uiso   1.00
O179   O     0.09181   0.49293   0.31840   0.00000  Uiso   1.00
O180   O     0.19242   0.50241   0.32793   0.00000  Uiso   1.00
O181   O     0.10476   0.41911   0.24414   0.00000  Uiso   1.00
O182   O     0.20536   0.42859   0.25367   0.00000  Uiso   1.00
O183   O     0.14092   0.49759   0.17207   0.00000  Uiso   1.00
O184   O     0.24152   0.50707   0.18161   0.00000  Uiso   1.00
C185   C     0.33115   0.44315   0.40030   0.00000  Uiso   1.00
H186   H     0.30133   0.40389   0.40292   0.00000  Uiso   1.00
O187   O     0.31526   0.47750   0.38085   0.00000  Uiso   1.00
I188   I     0.10262   0.37117   0.03650   0.00000  Uiso   1.00
I189   I     0.19993   0.61830   0.37993   0.00000  Uiso   1.00
C190   C     0.25922   0.34817   0.20843   0.00000  Uiso   1.00
H191   H     0.26475   0.38151   0.18451   0.00000  Uiso   1.00
O192   O     0.30628   0.66572   0.21053   0.00000  Uiso   1.00
C193   C     0.51660   0.59978   0.24726   0.00000  Uiso   1.00
C194   C     0.48256   0.48161   0.48132   0.00000  Uiso   1.00
C195   C     0.48756   0.51006   0.43641   0.00000  Uiso   1.00
C196   C     0.52656   0.50042   0.01317   0.00000  Uiso   1.00
C197   C     0.58208   0.53844   0.49457   0.00000  Uiso   1.00
C198   C     0.58691   0.56535   0.45015   0.00000  Uiso   1.00
C199   C     0.53722   0.55519   0.42456   0.00000  Uiso   1.00
C200   C     0.51249   0.48867   0.06548   0.00000  Uiso   1.00
C201   C     0.61528   0.53824   0.07511   0.00000  Uiso   1.00
C202   C     0.44352   0.49212   0.40432   0.00000  Uiso   1.00
C203   C     0.52836   0.65476   0.23653   0.00000  Uiso   1.00
C204   C     0.46569   0.49781   0.34766   0.00000  Uiso   1.00
C205   C     0.47839   0.34417   0.24731   0.00000  Uiso   1.00
C206   C     0.48579   0.40001   0.24694   0.00000  Uiso   1.00
C207   C     0.53413   0.50302   0.15268   0.00000  Uiso   1.00
C208   C     0.62808   0.55416   0.02429   0.00000  Uiso   1.00
C209   C     0.55563   0.50826   0.09677   0.00000  Uiso   1.00
C210   C     0.38702   0.45529   0.42407   0.00000  Uiso   1.00
C211   C     0.38456   0.42584   0.46631   0.00000  Uiso   1.00
C212   C     0.43388   0.43560   0.49215   0.00000  Uiso   1.00
Cu213  Cu    0.44043   0.49439   0.24436   0.00000  Uiso   1.00
Cu214  Cu    0.55957   0.50561   0.25565   0.00000  Uiso   1.00
H215   H     0.64944   0.55353   0.09865   0.00000  Uiso   1.00
H216   H     0.43082   0.65505   0.26187   0.00000  Uiso   1.00
H217   H     0.33666   0.53892   0.29008   0.00000  Uiso   1.00
H218   H     0.66363   0.46163   0.20949   0.00000  Uiso   1.00
H219   H     0.62582   0.59860   0.43895   0.00000  Uiso   1.00
H220   H     0.33847   0.58178   0.00955   0.00000  Uiso   1.00
H221   H     0.46542   0.46863   0.08344   0.00000  Uiso   1.00
H222   H     0.34520   0.39297   0.47767   0.00000  Uiso   1.00
N223   N     0.64908   0.51407   0.26416   0.00000  Uiso   1.00
N224   N     0.35092   0.48593   0.23584   0.00000  Uiso   1.00
O225   O     0.46131   0.57141   0.24633   0.00000  Uiso   1.00
O226   O     0.56191   0.58089   0.25587   0.00000  Uiso   1.00
O227   O     0.42515   0.49293   0.31840   0.00000  Uiso   1.00
O228   O     0.52575   0.50241   0.32793   0.00000  Uiso   1.00
O229   O     0.43809   0.41911   0.24414   0.00000  Uiso   1.00
O230   O     0.53869   0.42859   0.25367   0.00000  Uiso   1.00
O231   O     0.47425   0.49759   0.17207   0.00000  Uiso   1.00
O232   O     0.57485   0.50707   0.18161   0.00000  Uiso   1.00
C233   C     0.66448   0.44315   0.40030   0.00000  Uiso   1.00
H234   H     0.63467   0.40389   0.40292   0.00000  Uiso   1.00
O235   O     0.64859   0.47750   0.38085   0.00000  Uiso   1.00
I236   I     0.43596   0.37117   0.03650   0.00000  Uiso   1.00
I237   I     0.53327   0.61830   0.37993   0.00000  Uiso   1.00
C238   C     0.59255   0.34817   0.20843   0.00000  Uiso   1.00
H239   H     0.59809   0.38151   0.18451   0.00000  Uiso   1.00
O240   O     0.63961   0.66572   0.21053   0.00000  Uiso   1.00
C241   C     0.84993   0.59978   0.24726   0.00000  Uiso   1.00
C242   C     0.81589   0.48161   0.48132   0.00000  Uiso   1.00
C243   C     0.82089   0.51006   0.43641   0.00000  Uiso   1.00
C244   C     0.85989   0.50042   0.01317   0.00000  Uiso   1.00
C245   C     0.91542   0.53844   0.49457   0.00000  Uiso   1.00
C246   C     0.92024   0.56535   0.45015   0.00000  Uiso   1.00
C247   C     0.87056   0.55519   0.42456   0.00000  Uiso   1.00
C248   C     0.84582   0.48867   0.06548   0.00000  Uiso   1.00
C249   C     0.94862   0.53824   0.07511   0.00000  Uiso   1.00
C250   C     0.77686   0.49212   0.40432   0.00000  Uiso   1.00
C251   C     0.86170   0.65476   0.23653   0.00000  Uiso   1.00
C252   C     0.79902   0.49781   0.34766   0.00000  Uiso   1.00
C253   C     0.81172   0.34417   0.24731   0.00000  Uiso   1.00
C254   C     0.81913   0.40001   0.24694   0.00000  Uiso   1.00
C255   C     0.86746   0.50302   0.15268   0.00000  Uiso   1.00
C256   C     0.96141   0.55416   0.02429   0.00000  Uiso   1.00
C257   C     0.88896   0.50826   0.09677   0.00000  Uiso   1.00
C258   C     0.72035   0.45529   0.42407   0.00000  Uiso   1.00
C259   C     0.71789   0.42584   0.46631   0.00000  Uiso   1.00
C260   C     0.76722   0.43560   0.49215   0.00000  Uiso   1.00
Cu261  Cu    0.77377   0.49439   0.24436   0.00000  Uiso   1.00
Cu262  Cu    0.89290   0.50561   0.25565   0.00000  Uiso   1.00
H263   H     0.98277   0.55353   0.09865   0.00000  Uiso   1.00
H264   H     0.76415   0.65505   0.26187   0.00000  Uiso   1.00
H265   H     0.67000   0.53892   0.29008   0.00000  Uiso   1.00
H266   H     0.99696   0.46163   0.20949   0.00000  Uiso   1.00
H267   H     0.95915   0.59860   0.43895   0.00000  Uiso   1.00
H268   H     0.67180   0.58178   0.00955   0.00000  Uiso   1.00
H269   H     0.79875   0.46863   0.08344   0.00000  Uiso   1.00
H270   H     0.67853   0.39297   0.47767   0.00000  Uiso   1.00
N271   N     0.98241   0.51407   0.26416   0.00000  Uiso   1.00
N272   N     0.68426   0.48593   0.23584   0.00000  Uiso   1.00
O273   O     0.79464   0.57141   0.24633   0.00000  Uiso   1.00
O274   O     0.89524   0.58089   0.25587   0.00000  Uiso   1.00
O275   O     0.75848   0.49293   0.31840   0.00000  Uiso   1.00
O276   O     0.85908   0.50241   0.32793   0.00000  Uiso   1.00
O277   O     0.77142   0.41911   0.24414   0.00000  Uiso   1.00
O278   O     0.87203   0.42859   0.25367   0.00000  Uiso   1.00
O279   O     0.80758   0.49759   0.17207   0.00000  Uiso   1.00
O280   O     0.90819   0.50707   0.18161   0.00000  Uiso   1.00
C281   C     0.99781   0.44315   0.40030   0.00000  Uiso   1.00
H282   H     0.96800   0.40389   0.40292   0.00000  Uiso   1.00
O283   O     0.98192   0.47750   0.38085   0.00000  Uiso   1.00
I284   I     0.76929   0.37117   0.03650   0.00000  Uiso   1.00
I285   I     0.86660   0.61830   0.37993   0.00000  Uiso   1.00
C286   C     0.92589   0.34817   0.20843   0.00000  Uiso   1.00
H287   H     0.93142   0.38151   0.18451   0.00000  Uiso   1.00
O288   O     0.97295   0.66572   0.21053   0.00000  Uiso   1.00
C289   C     0.18326   0.93311   0.24726   0.00000  Uiso   1.00
C290   C     0.14922   0.81495   0.48132   0.00000  Uiso   1.00
C291   C     0.15423   0.84340   0.43641   0.00000  Uiso   1.00
C292   C     0.19322   0.83376   0.01317   0.00000  Uiso   1.00
C293   C     0.24875   0.87178   0.49457   0.00000  Uiso   1.00
C294   C     0.25357   0.89869   0.45015   0.00000  Uiso   1.00
C295   C     0.20389   0.88852   0.42456   0.00000  Uiso   1.00
C296   C     0.17915   0.82201   0.06548   0.00000  Uiso   1.00
C297   C     0.28195   0.87157   0.07511   0.00000  Uiso   1.00
C298   C     0.11019   0.82545   0.40432   0.00000  Uiso   1.00
C299   C     0.19503   0.98809   0.23653   0.00000  Uiso   1.00
C300   C     0.13236   0.83114   0.34766   0.00000  Uiso   1.00
C301   C     0.14505   0.67750   0.24731   0.00000  Uiso   1.00
C302   C     0.15246   0.73334   0.24694   0.00000  Uiso   1.00
C303   C     0.20079   0.83635   0.15268   0.00000  Uiso   1.00
C304   C     0.29474   0.88749   0.02429   0.00000  Uiso   1.00
C305   C     0.22230   0.84160   0.09677   0.00000  Uiso   1.00
C306   C     0.05369   0.78862   0.42407   0.00000  Uiso   1.00
C307   C     0.05123   0.75917   0.46631   0.00000  Uiso   1.00
C308   C     0.10055   0.76894   0.49215   0.00000  Uiso   1.00
Cu309  Cu    0.10710   0.82772   0.24436   0.00000  Uiso   1.00
Cu310  Cu    0.22623   0.83895   0.25565   0.00000  Uiso   1.00
H311   H     0.31611   0.88687   0.09865   0.00000  Uiso   1.00
H312   H     0.09748   0.98838   0.26187   0.00000  Uiso   1.00
H313   H     0.00333   0.87225   0.29008   0.00000  Uiso   1.00
H314   H     0.33029   0.79496   0.20949   0.00000  Uiso   1.00
H315   H     0.29249   0.93194   0.43895   0.00000  Uiso   1.00
H316   H     0.00514   0.91512   0.00955   0.00000  Uiso   1.00
H317   H     0.13209   0.80196   0.08344   0.00000  Uiso   1.00
H318   H     0.01187   0.72630   0.47767   0.00000  Uiso   1.00
N319   N     0.31574   0.84741   0.26416   0.00000  Uiso   1.00
N320   N     0.01759   0.81926   0.23584   0.00000  Uiso   1.00
O321   O     0.12797   0.90474   0.24633   0.00000  Uiso   1.00
O322   O     0.22858   0.91422   0.25587   0.00000  Uiso   1.00
O323   O     0.09181   0.82627   0.31840   0.00000  Uiso   1.00
O324   O     0.19242   0.83575   0.32793   0.00000  Uiso   1.00
O325   O     0.10476   0.75245   0.24414   0.00000  Uiso   1.00
O326   O     0.20536   0.76193   0.25367   0.00000  Uiso   1.00
O327   O     0.14092   0.83092   0.17207   0.00000  Uiso   1.00
O328   O     0.24152   0.84040   0.18161   0.00000  Uiso   1.00
C329   C     0.33115   0.77648   0.40030   0.00000  Uiso   1.00
H330   H     0.30133   0.73722   0.40292   0.00000  Uiso   1.00
O331   O     0.31526   0.81083   0.38085   0.00000  Uiso   1.00
I332   I     0.10262   0.70451   0.03650   0.00000  Uiso   1.00
I333   I     0.19993   0.95163   0.37993   0.00000  Uiso   1.00
C334   C     0.25922   0.68150   0.20843   0.00000  Uiso   1.00
H335   H     0.26475   0.71484   0.18451   0.00000  Uiso   1.00
O336   O     0.30628   0.99906   0.21053   0.00000  Uiso   1.00
C337   C     0.51660   0.93311   0.24726   0.00000  Uiso   1.00
C338   C     0.48256   0.81495   0.48132   0.00000  Uiso   1.00
C339   C     0.48756   0.84340   0.43641   0.00000  Uiso   1.00
C340   C     0.52656   0.83376   0.01317   0.00000  Uiso   1.00
C341   C     0.58208   0.87178   0.49457   0.00000  Uiso   1.00
C342   C     0.58691   0.89869   0.45015   0.00000  Uiso   1.00
C343   C     0.53722   0.88852   0.42456   0.00000  Uiso   1.00
C344   C     0.51249   0.82201   0.06548   0.00000  Uiso   1.00
C345   C     0.61528   0.87157   0.07511   0.00000  Uiso   1.00
C346   C     0.44352   0.82545   0.40432   0.00000  Uiso   1.00
C347   C     0.52836   0.98809   0.23653   0.00000  Uiso   1.00
C348   C     0.46569   0.83114   0.34766   0.00000  Uiso   1.00
C349   C     0.47839   0.67750   0.24731   0.00000  Uiso   1.00
C350   C     0.48579   0.73334   0.24694   0.00000  Uiso   1.00
C351   C     0.53413   0.83635   0.15268   0.00000  Uiso   1.00
C352   C     0.62808   0.88749   0.02429   0.00000  Uiso   1.00
C353   C     0.55563   0.84160   0.09677   0.00000  Uiso   1.00
C354   C     0.38702   0.78862   0.42407   0.00000  Uiso   1.00
C355   C     0.38456   0.75917   0.46631   0.00000  Uiso   1.00
C356   C     0.43388   0.76894   0.49215   0.00000  Uiso   1.00
Cu357  Cu    0.44043   0.82772   0.24436   0.00000  Uiso   1.00
Cu358  Cu    0.55957   0.83895   0.25565   0.00000  Uiso   1.00
H359   H     0.64944   0.88687   0.09865   0.00000  Uiso   1.00
H360   H     0.43082   0.98838   0.26187   0.00000  Uiso   1.00
H361   H     0.33666   0.87225   0.29008   0.00000  Uiso   1.00
H362   H     0.66363   0.79496   0.20949   0.00000  Uiso   1.00
H363   H     0.62582   0.93194   0.43895   0.00000  Uiso   1.00
H364   H     0.33847   0.91512   0.00955   0.00000  Uiso   1.00
H365   H     0.46542   0.80196   0.08344   0.00000  Uiso   1.00
H366   H     0.34520   0.72630   0.47767   0.00000  Uiso   1.00
N367   N     0.64908   0.84741   0.26416   0.00000  Uiso   1.00
N368   N     0.35092   0.81926   0.23584   0.00000  Uiso   1.00
O369   O     0.46131   0.90474   0.24633   0.00000  Uiso   1.00
O370   O     0.56191   0.91422   0.25587   0.00000  Uiso   1.00
O371   O     0.42515   0.82627   0.31840   0.00000  Uiso   1.00
O372   O     0.52575   0.83575   0.32793   0.00000  Uiso   1.00
O373   O     0.43809   0.75245   0.24414   0.00000  Uiso   1.00
O374   O     0.53869   0.76193   0.25367   0.00000  Uiso   1.00
O375   O     0.47425   0.83092   0.17207   0.00000  Uiso   1.00
O376   O     0.57485   0.84040   0.18161   0.00000  Uiso   1.00
C377   C     0.66448   0.77648   0.40030   0.00000  Uiso   1.00
H378   H     0.63467   0.73722   0.40292   0.00000  Uiso   1.00
O379   O     0.64859   0.81083   0.38085   0.00000  Uiso   1.00
I380   I     0.43596   0.70451   0.03650   0.00000  Uiso   1.00
I381   I     0.53327   0.95163   0.37993   0.00000  Uiso   1.00
C382   C     0.59255   0.68150   0.20843   0.00000  Uiso   1.00
H383   H     0.59809   0.71484   0.18451   0.00000  Uiso   1.00
O384   O     0.63961   0.99906   0.21053   0.00000  Uiso   1.00
C385   C     0.84993   0.93311   0.24726   0.00000  Uiso   1.00
C386   C     0.81589   0.81495   0.48132   0.00000  Uiso   1.00
C387   C     0.82089   0.84340   0.43641   0.00000  Uiso   1.00
C388   C     0.85989   0.83376   0.01317   0.00000  Uiso   1.00
C389   C     0.91542   0.87178   0.49457   0.00000  Uiso   1.00
C390   C     0.92024   0.89869   0.45015   0.00000  Uiso   1.00
C391   C     0.87056   0.88852   0.42456   0.00000  Uiso   1.00
C392   C     0.84582   0.82201   0.06548   0.00000  Uiso   1.00
C393   C     0.94862   0.87157   0.07511   0.00000  Uiso   1.00
C394   C     0.77686   0.82545   0.40432   0.00000  Uiso   1.00
C395   C     0.86170   0.98809   0.23653   0.00000  Uiso   1.00
C396   C     0.79902   0.83114   0.34766   0.00000  Uiso   1.00
C397   C     0.81172   0.67750   0.24731   0.00000  Uiso   1.00
C398   C     0.81913   0.73334   0.24694   0.00000  Uiso   1.00
C399   C     0.86746   0.83635   0.15268   0.00000  Uiso   1.00
C400   C     0.96141   0.88749   0.02429   0.00000  Uiso   1.00
C401   C     0.88896   0.84160   0.09677   0.00000  Uiso   1.00
C402   C     0.72035   0.78862   0.42407   0.00000  Uiso   1.00
C403   C     0.71789   0.75917   0.46631   0.00000  Uiso   1.00
C404   C     0.76722   0.76894   0.49215   0.00000  Uiso   1.00
Cu405  Cu    0.77377   0.82772   0.24436   0.00000  Uiso   1.00
Cu406  Cu    0.89290   0.83895   0.25565   0.00000  Uiso   1.00
H407   H     0.98277   0.88687   0.09865   0.00000  Uiso   1.00
H408   H     0.76415   0.98838   0.26187   0.00000  Uiso   1.00
H409   H     0.67000   0.87225   0.29008   0.00000  Uiso   1.00
H410   H     0.99696   0.79496   0.20949   0.00000  Uiso   1.00
H411   H     0.95915   0.93194   0.43895   0.00000  Uiso   1.00
H412   H     0.67180   0.91512   0.00955   0.00000  Uiso   1.00
H413   H     0.79875   0.80196   0.08344   0.00000  Uiso   1.00
H414   H     0.67853   0.72630   0.47767   0.00000  Uiso   1.00
N415   N     0.98241   0.84741   0.26416   0.00000  Uiso   1.00
N416   N     0.68426   0.81926   0.23584   0.00000  Uiso   1.00
O417   O     0.79464   0.90474   0.24633   0.00000  Uiso   1.00
O418   O     0.89524   0.91422   0.25587   0.00000  Uiso   1.00
O419   O     0.75848   0.82627   0.31840   0.00000  Uiso   1.00
O420   O     0.85908   0.83575   0.32793   0.00000  Uiso   1.00
O421   O     0.77142   0.75245   0.24414   0.00000  Uiso   1.00
O422   O     0.87203   0.76193   0.25367   0.00000  Uiso   1.00
O423   O     0.80758   0.83092   0.17207   0.00000  Uiso   1.00
O424   O     0.90819   0.84040   0.18161   0.00000  Uiso   1.00
C425   C     0.99781   0.77648   0.40030   0.00000  Uiso   1.00
H426   H     0.96800   0.73722   0.40292   0.00000  Uiso   1.00
O427   O     0.98192   0.81083   0.38085   0.00000  Uiso   1.00
I428   I     0.76929   0.70451   0.03650   0.00000  Uiso   1.00
I429   I     0.86660   0.95163   0.37993   0.00000  Uiso   1.00
C430   C     0.92589   0.68150   0.20843   0.00000  Uiso   1.00
H431   H     0.93142   0.71484   0.18451   0.00000  Uiso   1.00
O432   O     0.97295   0.99906   0.21053   0.00000  Uiso   1.00
C433   C     0.18326   0.26645   0.74726   0.00000  Uiso   1.00
C434   C     0.14922   0.14828   0.98132   0.00000  Uiso   1.00
C435   C     0.15423   0.17673   0.93641   0.00000  Uiso   1.00
C436   C     0.19322   0.16709   0.51317   0.00000  Uiso   1.00
C437   C     0.24875   0.20511   0.99457   0.00000  Uiso   1.00
C438   C     0.25357   0.23202   0.95015   0.00000  Uiso   1.00
C439   C     0.20389   0.22185   0.92456   0.00000  Uiso   1.00
C440   C     0.17915   0.15534   0.56548   0.00000  Uiso   1.00
C441   C     0.28195   0.20491   0.57511   0.00000  Uiso   1.00
C442   C     0.11019   0.15879   0.90432   0.00000  Uiso   1.00
C443   C     0.19503   0.32143   0.73653   0.00000  Uiso   1.00
C444   C     0.13236   0.16447   0.84766   0.00000  Uiso   1.00
C445   C     0.14505   0.01083   0.74731   0.00000  Uiso   1.00
C446   C     0.15246   0.06667   0.74694   0.00000  Uiso   1.00
C447   C     0.20079   0.16969   0.65268   0.00000  Uiso   1.00
C448   C     0.29474   0.22083   0.52429   0.00000  Uiso   1.00
C449   C     0.22230   0.17493   0.59677   0.00000  Uiso   1.00
C450   C     0.05369   0.12196   0.92407   0.00000  Uiso   1.00
C451   C     0.05123   0.09251   0.96631   0.00000  Uiso   1.00
C452   C     0.10055   0.10227   0.99215   0.00000  Uiso   1.00
Cu453  Cu    0.10710   0.16105   0.74436   0.00000  Uiso   1.00
Cu454  Cu    0.22623   0.17228   0.75565   0.00000  Uiso   1.00
H455   H     0.31611   0.22020   0.59865   0.00000  Uiso   1.00
H456   H     0.09748   0.32171   0.76187   0.00000  Uiso   1.00
H457   H     0.00333   0.20559   0.79008   0.00000  Uiso   1.00
H458   H     0.33029   0.12830   0.70949   0.00000  Uiso   1.00
H459   H     0.29249   0.26527   0.93895   0.00000  Uiso   1.00
H460   H     0.00514   0.24845   0.50955   0.00000  Uiso   1.00
H461   H     0.13209   0.13529   0.58344   0.00000  Uiso   1.00
H462   H     0.01187   0.05964   0.97767   0.00000  Uiso   1.00
N463   N     0.31574   0.18074   0.76416   0.00000  Uiso   1.00
N464   N     0.01759   0.15259   0.73584   0.00000  Uiso   1.00
O465   O     0.12797   0.23807   0.74633   0.00000  Uiso   1.00
O466   O     0.22858   0.24755   0.75587   0.00000  Uiso   1.00
O467   O     0.09181   0.15960   0.81840   0.00000  Uiso   1.00
O468   O     0.19242   0.16908   0.82793   0.00000  Uiso   1.00
O469   O     0.10476   0.08578   0.74414   0.00000  Uiso   1.00
O470   O     0.20536   0.09526   0.75367   0.00000  Uiso   1.00
O471   O     0.14092   0.16425   0.67207   0.00000  Uiso   1.00
O472   O     0.24152   0.17373   0.68161   0.00000  Uiso   1.00
C473   C     0.33115   0.10982   0.90030   0.00000  Uiso   1.00
H474   H     0.30133   0.07056   0.90292   0.00000  Uiso   1.00
O475   O     0.31526   0.14416   0.88085   0.00000  Uiso   1.00
I476   I     0.10262   0.03784   0.53650   0.00000  Uiso   1.00
I477   I     0.19993   0.28497   0.87993   0.00000  Uiso   1.00
C478   C     0.25922   0.01483   0.70843   0.00000  Uiso   1.00
H479   H     0.26475   0.04818   0.68451   0.00000  Uiso   1.00
O480   O     0.30628   0.33239   0.71053   0.00000  Uiso   1.00
C481   C     0.51660   0.26645   0.74726   0.00000  Uiso   1.00
C482   C     0.48256   0.14828   0.98132   0.00000  Uiso   1.00
C483   C     0.48756   0.17673   0.93641   0.00000  Uiso   1.00
C484   C     0.52656   0.16709   0.51317   0.00000  Uiso   1.00
C485   C     0.58208   0.20511   0.99457   0.00000  Uiso   1.00
C486   C     0.58691   0.23202   0.95015   0.00000  Uiso   1.00
C487   C     0.53722   0.22185   0.92456   0.00000  Uiso   1.00
C488   C     0.51249   0.15534   0.56548   0.00000  Uiso   1.00
C489   C     0.61528   0.20491   0.57511   0.00000  Uiso   1.00
C490   C     0.44352   0.15879   0.90432   0.00000  Uiso   1.00
C491   C     0.52836   0.32143   0.73653   0.00000  Uiso   1.00
C492   C     0.46569   0.16447   0.84766   0.00000  Uiso   1.00
C493   C     0.47839   0.01083   0.74731   0.00000  Uiso   1.00
C494   C     0.48579   0.06667   0.74694   0.00000  Uiso   1.00
C495   C     0.53413   0.16969   0.65268   0.00000  Uiso   1.00
C496   C     0.62808   0.22083   0.52429   0.00000  Uiso   1.00
C497   C     0.55563   0.17493   0.59677   0.00000  Uiso   1.00
C498   C     0.38702   0.12196   0.92407   0.00000  Uiso   1.00
C499   C     0.38456   0.09251   0.96631   0.00000  Uiso   1.00
C500   C     0.43388   0.10227   0.99215   0.00000  Uiso   1.00
Cu501  Cu    0.44043   0.16105   0.74436   0.00000  Uiso   1.00
Cu502  Cu    0.55957   0.17228   0.75565   0.00000  Uiso   1.00
H503   H     0.64944   0.22020   0.59865   0.00000  Uiso   1.00
H504   H     0.43082   0.32171   0.76187   0.00000  Uiso   1.00
H505   H     0.33666   0.20559   0.79008   0.00000  Uiso   1.00
H506   H     0.66363   0.12830   0.70949   0.00000  Uiso   1.00
H507   H     0.62582   0.26527   0.93895   0.00000  Uiso   1.00
H508   H     0.33847   0.24845   0.50955   0.00000  Uiso   1.00
H509   H     0.46542   0.13529   0.58344   0.00000  Uiso   1.00
H510   H     0.34520   0.05964   0.97767   0.00000  Uiso   1.00
N511   N     0.64908   0.18074   0.76416   0.00000  Uiso   1.00
N512   N     0.35092   0.15259   0.73584   0.00000  Uiso   1.00
O513   O     0.46131   0.23807   0.74633   0.00000  Uiso   1.00
O514   O     0.56191   0.24755   0.75587   0.00000  Uiso   1.00
O515   O     0.42515   0.15960   0.81840   0.00000  Uiso   1.00
O516   O     0.52575   0.16908   0.82793   0.00000  Uiso   1.00
O517   O     0.43809   0.08578   0.74414   0.00000  Uiso   1.00
O518   O     0.53869   0.09526   0.75367   0.00000  Uiso   1.00
O519   O     0.47425   0.16425   0.67207   0.00000  Uiso   1.00
O520   O     0.57485   0.17373   0.68161   0.00000  Uiso   1.00
C521   C     0.66448   0.10982   0.90030   0.00000  Uiso   1.00
H522   H     0.63467   0.07056   0.90292   0.00000  Uiso   1.00
O523   O     0.64859   0.14416   0.88085   0.00000  Uiso   1.00
I524   I     0.43596   0.03784   0.53650   0.00000  Uiso   1.00
I525   I     0.53327   0.28497   0.87993   0.00000  Uiso   1.00
C526   C     0.59255   0.01483   0.70843   0.00000  Uiso   1.00
H527   H     0.59809   0.04818   0.68451   0.00000  Uiso   1.00
O528   O     0.63961   0.33239   0.71053   0.00000  Uiso   1.00
C529   C     0.84993   0.26645   0.74726   0.00000  Uiso   1.00
C530   C     0.81589   0.14828   0.98132   0.00000  Uiso   1.00
C531   C     0.82089   0.17673   0.93641   0.00000  Uiso   1.00
C532   C     0.85989   0.16709   0.51317   0.00000  Uiso   1.00
C533   C     0.91542   0.20511   0.99457   0.00000  Uiso   1.00
C534   C     0.92024   0.23202   0.95015   0.00000  Uiso   1.00
C535   C     0.87056   0.22185   0.92456   0.00000  Uiso   1.00
C536   C     0.84582   0.15534   0.56548   0.00000  Uiso   1.00
C537   C     0.94862   0.20491   0.57511   0.00000  Uiso   1.00
C538   C     0.77686   0.15879   0.90432   0.00000  Uiso   1.00
C539   C     0.86170   0.32143   0.73653   0.00000  Uiso   1.00
C540   C     0.79902   0.16447   0.84766   0.00000  Uiso   1.00
C541   C     0.81172   0.01083   0.74731   0.00000  Uiso   1.00
C542   C     0.81913   0.06667   0.74694   0.00000  Uiso   1.00
C543   C     0.86746   0.16969   0.65268   0.00000  Uiso   1.00
C544   C     0.96141   0.22083   0.52429   0.00000  Uiso   1.00
C545   C     0.88896   0.17493   0.59677   0.00000  Uiso   1.00
C546   C     0.72035   0.12196   0.92407   0.00000  Uiso   1.00
C547   C     0.71789   0.09251   0.96631   0.00000  Uiso   1.00
C548   C     0.76722   0.10227   0.99215   0.00000  Uiso   1.00
Cu549  Cu    0.77377   0.16105   0.74436   0.00000  Uiso   1.00
Cu550  Cu    0.89290   0.17228   0.75565   0.00000  Uiso   1.00
H551   H     0.98277   0.22020   0.59865   0.00000  Uiso   1.00
H552   H     0.76415   0.32171   0.76187   0.00000  Uiso   1.00
H553   H     0.67000   0.20559   0.79008   0.00000  Uiso   1.00
H554   H     0.99696   0.12830   0.70949   0.00000  Uiso   1.00
H555   H     0.95915   0.26527   0.93895   0.00000  Uiso   1.00
H556   H     0.67180   0.24845   0.50955   0.00000  Uiso   1.00
H557   H     0.79875   0.13529   0.58344   0.00000  Uiso   1.00
H558   H     0.67853   0.05964   0.97767   0.00000  Uiso   1.00
N559   N     0.98241   0.18074   0.76416   0.00000  Uiso   1.00
N560   N     0.68426   0.15259   0.73584   0.00000  Uiso   1.00
O561   O     0.79464   0.23807   0.74633   0.00000  Uiso   1.00
O562   O     0.89524   0.24755   0.75587   0.00000  Uiso   1.00
O563   O     0.75848   0.15960   0.81840   0.00000  Uiso   1.00
O564   O     0.85908   0.16908   0.82793   0.00000  Uiso   1.00
O565   O     0.77142   0.08578   0.74414   0.00000  Uiso   1.00
O566   O     0.87203   0.09526   0.75367   0.00000  Uiso   1.00
O567   O     0.80758   0.16425   0.67207   0.00000  Uiso   1.00
O568   O     0.90819   0.17373   0.68161   0.00000  Uiso   1.00
C569   C     0.99781   0.10982   0.90030   0.00000  Uiso   1.00
H570   H     0.96800   0.07056   0.90292   0.00000  Uiso   1.00
O571   O     0.98192   0.14416   0.88085   0.00000  Uiso   1.00
I572   I     0.76929   0.03784   0.53650   0.00000  Uiso   1.00
I573   I     0.86660   0.28497   0.87993   0.00000  Uiso   1.00
C574   C     0.92589   0.01483   0.70843   0.00000  Uiso   1.00
H575   H     0.93142   0.04818   0.68451   0.00000  Uiso   1.00
O576   O     0.97295   0.33239   0.71053   0.00000  Uiso   1.00
C577   C     0.18326   0.59978   0.74726   0.00000  Uiso   1.00
C578   C     0.14922   0.48161   0.98132   0.00000  Uiso   1.00
C579   C     0.15423   0.51006   0.93641   0.00000  Uiso   1.00
C580   C     0.19322   0.50042   0.51317   0.00000  Uiso   1.00
C581   C     0.24875   0.53844   0.99457   0.00000  Uiso   1.00
C582   C     0.25357   0.56535   0.95015   0.00000  Uiso   1.00
C583   C     0.20389   0.55519   0.92456   0.00000  Uiso   1.00
C584   C     0.17915   0.48867   0.56548   0.00000  Uiso   1.00
C585   C     0.28195   0.53824   0.57511   0.00000  Uiso   1.00
C586   C     0.11019   0.49212   0.90432   0.00000  Uiso   1.00
C587   C     0.19503   0.65476   0.73653   0.00000  Uiso   1.00
C588   C     0.13236   0.49781   0.84766   0.00000  Uiso   1.00
C589   C     0.14505   0.34417   0.74731   0.00000  Uiso   1.00
C590   C     0.15246   0.40001   0.74694   0.00000  Uiso   1.00
C591   C     0.20079   0.50302   0.65268   0.00000  Uiso   1.00
C592   C     0.29474   0.55416   0.52429   0.00000  Uiso   1.00
C593   C     0.22230   0.50826   0.59677   0.00000  Uiso   1.00
C594   C     0.05369   0.45529   0.92407   0.00000  Uiso   1.00
C595   C     0.05123   0.42584   0.96631   0.00000  Uiso   1.00
C596   C     0.10055   0.43560   0.99215   0.00000  Uiso   1.00
Cu597  Cu    0.10710   0.49439   0.74436   0.00000  Uiso   1.00
Cu598  Cu    0.22623   0.50561   0.75565   0.00000  Uiso   1.00
H599   H     0.31611   0.55353   0.59865   0.00000  Uiso   1.00
H600   H     0.09748   0.65505   0.76187   0.00000  Uiso   1.00
H601   H     0.00333   0.53892   0.79008   0.00000  Uiso   1.00
H602   H     0.33029   0.46163   0.70949   0.00000  Uiso   1.00
H603   H     0.29249   0.59860   0.93895   0.00000  Uiso   1.00
H604   H     0.00514   0.58178   0.50955   0.00000  Uiso   1.00
H605   H     0.13209   0.46863   0.58344   0.00000  Uiso   1.00
H606   H     0.01187   0.39297   0.97767   0.00000  Uiso   1.00
N607   N     0.31574   0.51407   0.76416   0.00000  Uiso   1.00
N608   N     0.01759   0.48593   0.73584   0.00000  Uiso   1.00
O609   O     0.12797   0.57141   0.74633   0.00000  Uiso   1.00
O610   O     0.22858   0.58089   0.75587   0.00000  Uiso   1.00
O611   O     0.09181   0.49293   0.81840   0.00000  Uiso   1.00
O612   O     0.19242   0.50241   0.82793   0.00000  Uiso   1.00
O613   O     0.10476   0.41911   0.74414   0.00000  Uiso   1.00
O614   O     0.20536   0.42859   0.75367   0.00000  Uiso   1.00
O615   O     0.14092   0.49759   0.67207   0.00000  Uiso   1.00
O616   O     0.24152   0.50707   0.68161   0.00000  Uiso   1.00
C617   C     0.33115   0.44315   0.90030   0.00000  Uiso   1.00
H618   H     0.30133   0.40389   0.90292   0.00000  Uiso   1.00
O619   O     0.31526   0.47750   0.88085   0.00000  Uiso   1.00
I620   I     0.10262   0.37117   0.53650   0.00000  Uiso   1.00
I621   I     0.19993   0.61830   0.87993   0.00000  Uiso   1.00
C622   C     0.25922   0.34817   0.70843   0.00000  Uiso   1.00
H623   H     0.26475   0.38151   0.68451   0.00000  Uiso   1.00
O624   O     0.30628   0.66572   0.71053   0.00000  Uiso   1.00
C625   C     0.51660   0.59978   0.74726   0.00000  Uiso   1.00
C626   C     0.48256   0.48161   0.98132   0.00000  Uiso   1.00
C627   C     0.48756   0.51006   0.93641   0.00000  Uiso   1.00
C628   C     0.52656   0.50042   0.51317   0.00000  Uiso   1.00
C629   C     0.58208   0.53844   0.99457   0.00000  Uiso   1.00
C630   C     0.58691   0.56535   0.95015   0.00000  Uiso   1.00
C631   C     0.53722   0.55519   0.92456   0.00000  Uiso   1.00
C632   C     0.51249   0.48867   0.56548   0.00000  Uiso   1.00
C633   C     0.61528   0.53824   0.57511   0.00000  Uiso   1.00
C634   C     0.44352   0.49212   0.90432   0.00000  Uiso   1.00
C635   C     0.52836   0.65476   0.73653   0.00000  Uiso   1.00
C636   C     0.46569   0.49781   0.84766   0.00000  Uiso   1.00
C637   C     0.47839   0.34417   0.74731   0.00000  Uiso   1.00
C638   C     0.48579   0.40001   0.74694   0.00000  Uiso   1.00
C639   C     0.53413   0.50302   0.65268   0.00000  Uiso   1.00
C640   C     0.62808   0.55416   0.52429   0.00000  Uiso   1.00
C641   C     0.55563   0.50826   0.59677   0.00000  Uiso   1.00
C642   C     0.38702   0.45529   0.92407   0.00000  Uiso   1.00
C643   C     0.38456   0.42584   0.96631   0.00000  Uiso   1.00
C644   C     0.43388   0.43560   0.99215   0.00000  Uiso   1.00
Cu645  Cu    0.44043   0.49439   0.74436   0.00000  Uiso   1.00
Cu646  Cu    0.55957   0.50561   0.75565   0.00000  Uiso   1.00
H647   H     0.64944   0.55353   0.59865   0.00000  Uiso   1.00
H648   H     0.43082   0.65505   0.76187   0.00000  Uiso   1.00
H649   H     0.33666   0.53892   0.79008   0.00000  Uiso   1.00
H650   H     0.66363   0.46163   0.70949   0.00000  Uiso   1.00
H651   H     0.62582   0.59860   0.93895   0.00000  Uiso   1.00
H652   H     0.33847   0.58178   0.50955   0.00000  Uiso   1.00
H653   H     0.46542   0.46863   0.58344   0.00000  Uiso   1.00
H654   H     0.34520   0.39297   0.97767   0.00000  Uiso   1.00
N655   N     0.64908   0.51407   0.76416   0.00000  Uiso   1.00
N656   N     0.35092   0.48593   0.73584   0.00000  Uiso   1.00
O657   O     0.46131   0.57141   0.74633   0.00000  Uiso   1.00
O658   O     0.56191   0.58089   0.75587   0.00000  Uiso   1.00
O659   O     0.42515   0.49293   0.81840   0.00000  Uiso   1.00
O660   O     0.52575   0.50241   0.82793   0.00000  Uiso   1.00
O661   O     0.43809   0.41911   0.74414   0.00000  Uiso   1.00
O662   O     0.53869   0.42859   0.75367   0.00000  Uiso   1.00
O663   O     0.47425   0.49759   0.67207   0.00000  Uiso   1.00
O664   O     0.57485   0.50707   0.68161   0.00000  Uiso   1.00
C665   C     0.66448   0.44315   0.90030   0.00000  Uiso   1.00
H666   H     0.63467   0.40389   0.90292   0.00000  Uiso   1.00
O667   O     0.64859   0.47750   0.88085   0.00000  Uiso   1.00
I668   I     0.43596   0.37117   0.53650   0.00000  Uiso   1.00
I669   I     0.53327   0.61830   0.87993   0.00000  Uiso   1.00
C670   C     0.59255   0.34817   0.70843   0.00000  Uiso   1.00
H671   H     0.59809   0.38151   0.68451   0.00000  Uiso   1.00
O672   O     0.63961   0.66572   0.71053   0.00000  Uiso   1.00
C673   C     0.84993   0.59978   0.74726   0.00000  Uiso   1.00
C674   C     0.81589   0.48161   0.98132   0.00000  Uiso   1.00
C675   C     0.82089   0.51006   0.93641   0.00000  Uiso   1.00
C676   C     0.85989   0.50042   0.51317   0.00000  Uiso   1.00
C677   C     0.91542   0.53844   0.99457   0.00000  Uiso   1.00
C678   C     0.92024   0.56535   0.95015   0.00000  Uiso   1.00
C679   C     0.87056   0.55519   0.92456   0.00000  Uiso   1.00
C680   C     0.84582   0.48867   0.56548   0.00000  Uiso   1.00
C681   C     0.94862   0.53824   0.57511   0.00000  Uiso   1.00
C682   C     0.77686   0.49212   0.90432   0.00000  Uiso   1.00
C683   C     0.86170   0.65476   0.73653   0.00000  Uiso   1.00
C684   C     0.79902   0.49781   0.84766   0.00000  Uiso   1.00
C685   C     0.81172   0.34417   0.74731   0.00000  Uiso   1.00
C686   C     0.81913   0.40001   0.74694   0.00000  Uiso   1.00
C687   C     0.86746   0.50302   0.65268   0.00000  Uiso   1.00
C688   C     0.96141   0.55416   0.52429   0.00000  Uiso   1.00
C689   C     0.88896   0.50826   0.59677   0.00000  Uiso   1.00
C690   C     0.72035   0.45529   0.92407   0.00000  Uiso   1.00
C691   C     0.71789   0.42584   0.96631   0.00000  Uiso   1.00
C692   C     0.76722   0.43560   0.99215   0.00000  Uiso   1.00
Cu693  Cu    0.77377   0.49439   0.74436   0.00000  Uiso   1.00
Cu694  Cu    0.89290   0.50561   0.75565   0.00000  Uiso   1.00
H695   H     0.98277   0.55353   0.59865   0.00000  Uiso   1.00
H696   H     0.76415   0.65505   0.76187   0.00000  Uiso   1.00
H697   H     0.67000   0.53892   0.79008   0.00000  Uiso   1.00
H698   H     0.99696   0.46163   0.70949   0.00000  Uiso   1.00
H699   H     0.95915   0.59860   0.93895   0.00000  Uiso   1.00
H700   H     0.67180   0.58178   0.50955   0.00000  Uiso   1.00
H701   H     0.79875   0.46863   0.58344   0.00000  Uiso   1.00
H702   H     0.67853   0.39297   0.97767   0.00000  Uiso   1.00
N703   N     0.98241   0.51407   0.76416   0.00000  Uiso   1.00
N704   N     0.68426   0.48593   0.73584   0.00000  Uiso   1.00
O705   O     0.79464   0.57141   0.74633   0.00000  Uiso   1.00
O706   O     0.89524   0.58089   0.75587   0.00000  Uiso   1.00
O707   O     0.75848   0.49293   0.81840   0.00000  Uiso   1.00
O708   O     0.85908   0.50241   0.82793   0.00000  Uiso   1.00
O709   O     0.77142   0.41911   0.74414   0.00000  Uiso   1.00
O710   O     0.87203   0.42859   0.75367   0.00000  Uiso   1.00
O711   O     0.80758   0.49759   0.67207   0.00000  Uiso   1.00
O712   O     0.90819   0.50707   0.68161   0.00000  Uiso   1.00
C713   C     0.99781   0.44315   0.90030   0.00000  Uiso   1.00
H714   H     0.96800   0.40389   0.90292   0.00000  Uiso   1.00
O715   O     0.98192   0.47750   0.88085   0.00000  Uiso   1.00
I716   I     0.76929   0.37117   0.53650   0.00000  Uiso   1.00
I717   I     0.86660   0.61830   0.87993   0.00000  Uiso   1.00
C718   C     0.92589   0.34817   0.70843   0.00000  Uiso   1.00
H719   H     0.93142   0.38151   0.68451   0.00000  Uiso   1.00
O720   O     0.97295   0.66572   0.71053   0.00000  Uiso   1.00
C721   C     0.18326   0.93311   0.74726   0.00000  Uiso   1.00
C722   C     0.14922   0.81495   0.98132   0.00000  Uiso   1.00
C723   C     0.15423   0.84340   0.93641   0.00000  Uiso   1.00
C724   C     0.19322   0.83376   0.51317   0.00000  Uiso   1.00
C725   C     0.24875   0.87178   0.99457   0.00000  Uiso   1.00
C726   C     0.25357   0.89869   0.95015   0.00000  Uiso   1.00
C727   C     0.20389   0.88852   0.92456   0.00000  Uiso   1.00
C728   C     0.17915   0.82201   0.56548   0.00000  Uiso   1.00
C729   C     0.28195   0.87157   0.57511   0.00000  Uiso   1.00
C730   C     0.11019   0.82545   0.90432   0.00000  Uiso   1.00
C731   C     0.19503   0.98809   0.73653   0.00000  Uiso   1.00
C732   C     0.13236   0.83114   0.84766   0.00000  Uiso   1.00
C733   C     0.14505   0.67750   0.74731   0.00000  Uiso   1.00
C734   C     0.15246   0.73334   0.74694   0.00000  Uiso   1.00
C735   C     0.20079   0.83635   0.65268   0.00000  Uiso   1.00
C736   C     0.29474   0.88749   0.52429   0.00000  Uiso   1.00
C737   C     0.22230   0.84160   0.59677   0.00000  Uiso   1.00
C738   C     0.05369   0.78862   0.92407   0.00000  Uiso   1.00
C739   C     0.05123   0.75917   0.96631   0.00000  Uiso   1.00
C740   C     0.10055   0.76894   0.99215   0.00000  Uiso   1.00
Cu741  Cu    0.10710   0.82772   0.74436   0.00000  Uiso   1.00
Cu742  Cu    0.22623   0.83895   0.75565   0.00000  Uiso   1.00
H743   H     0.31611   0.88687   0.59865   0.00000  Uiso   1.00
H744   H     0.09748   0.98838   0.76187   0.00000  Uiso   1.00
H745   H     0.00333   0.87225   0.79008   0.00000  Uiso   1.00
H746   H     0.33029   0.79496   0.70949   0.00000  Uiso   1.00
H747   H     0.29249   0.93194   0.93895   0.00000  Uiso   1.00
H748   H     0.00514   0.91512   0.50955   0.00000  Uiso   1.00
H749   H     0.13209   0.80196   0.58344   0.00000  Uiso   1.00
H750   H     0.01187   0.72630   0.97767   0.00000  Uiso   1.00
N751   N     0.31574   0.84741   0.76416   0.00000  Uiso   1.00
N752   N     0.01759   0.81926   0.73584   0.00000  Uiso   1.00
O753   O     0.12797   0.90474   0.74633   0.00000  Uiso   1.00
O754   O     0.22858   0.91422   0.75587   0.00000  Uiso   1.00
O755   O     0.09181   0.82627   0.81840   0.00000  Uiso   1.00
O756   O     0.19242   0.83575   0.82793   0.00000  Uiso   1.00
O757   O     0.10476   0.75245   0.74414   0.00000  Uiso   1.00
O758   O     0.20536   0.76193   0.75367   0.00000  Uiso   1.00
O759   O     0.14092   0.83092   0.67207   0.00000  Uiso   1.00
O760   O     0.24152   0.84040   0.68161   0.00000  Uiso   1.00
C761   C     0.33115   0.77648   0.90030   0.00000  Uiso   1.00
H762   H     0.30133   0.73722   0.90292   0.00000  Uiso   1.00
O763   O     0.31526   0.81083   0.88085   0.00000  Uiso   1.00
I764   I     0.10262   0.70451   0.53650   0.00000  Uiso   1.00
I765   I     0.19993   0.95163   0.87993   0.00000  Uiso   1.00
C766   C     0.25922   0.68150   0.70843   0.00000  Uiso   1.00
H767   H     0.26475   0.71484   0.68451   0.00000  Uiso   1.00
O768   O     0.30628   0.99906   0.71053   0.00000  Uiso   1.00
C769   C     0.51660   0.93311   0.74726   0.00000  Uiso   1.00
C770   C     0.48256   0.81495   0.98132   0.00000  Uiso   1.00
C771   C     0.48756   0.84340   0.93641   0.00000  Uiso   1.00
C772   C     0.52656   0.83376   0.51317   0.00000  Uiso   1.00
C773   C     0.58208   0.87178   0.99457   0.00000  Uiso   1.00
C774   C     0.58691   0.89869   0.95015   0.00000  Uiso   1.00
C775   C     0.53722   0.88852   0.92456   0.00000  Uiso   1.00
C776   C     0.51249   0.82201   0.56548   0.00000  Uiso   1.00
C777   C     0.61528   0.87157   0.57511   0.00000  Uiso   1.00
C778   C     0.44352   0.82545   0.90432   0.00000  Uiso   1.00
C779   C     0.52836   0.98809   0.73653   0.00000  Uiso   1.00
C780   C     0.46569   0.83114   0.84766   0.00000  Uiso   1.00
C781   C     0.47839   0.67750   0.74731   0.00000  Uiso   1.00
C782   C     0.48579   0.73334   0.74694   0.00000  Uiso   1.00
C783   C     0.53413   0.83635   0.65268   0.00000  Uiso   1.00
C784   C     0.62808   0.88749   0.52429   0.00000  Uiso   1.00
C785   C     0.55563   0.84160   0.59677   0.00000  Uiso   1.00
C786   C     0.38702   0.78862   0.92407   0.00000  Uiso   1.00
C787   C     0.38456   0.75917   0.96631   0.00000  Uiso   1.00
C788   C     0.43388   0.76894   0.99215   0.00000  Uiso   1.00
Cu789  Cu    0.44043   0.82772   0.74436   0.00000  Uiso   1.00
Cu790  Cu    0.55957   0.83895   0.75565   0.00000  Uiso   1.00
H791   H     0.64944   0.88687   0.59865   0.00000  Uiso   1.00
H792   H     0.43082   0.98838   0.76187   0.00000  Uiso   1.00
H793   H     0.33666   0.87225   0.79008   0.00000  Uiso   1.00
H794   H     0.66363   0.79496   0.70949   0.00000  Uiso   1.00
H795   H     0.62582   0.93194   0.93895   0.00000  Uiso   1.00
H796   H     0.33847   0.91512   0.50955   0.00000  Uiso   1.00
H797   H     0.46542   0.80196   0.58344   0.00000  Uiso   1.00
H798   H     0.34520   0.72630   0.97767   0.00000  Uiso   1.00
N799   N     0.64908   0.84741   0.76416   0.00000  Uiso   1.00
N800   N     0.35092   0.81926   0.73584   0.00000  Uiso   1.00
O801   O     0.46131   0.90474   0.74633   0.00000  Uiso   1.00
O802   O     0.56191   0.91422   0.75587   0.00000  Uiso   1.00
O803   O     0.42515   0.82627   0.81840   0.00000  Uiso   1.00
O804   O     0.52575   0.83575   0.82793   0.00000  Uiso   1.00
O805   O     0.43809   0.75245   0.74414   0.00000  Uiso   1.00
O806   O     0.53869   0.76193   0.75367   0.00000  Uiso   1.00
O807   O     0.47425   0.83092   0.67207   0.00000  Uiso   1.00
O808   O     0.57485   0.84040   0.68161   0.00000  Uiso   1.00
C809   C     0.66448   0.77648   0.90030   0.00000  Uiso   1.00
H810   H     0.63467   0.73722   0.90292   0.00000  Uiso   1.00
O811   O     0.64859   0.81083   0.88085   0.00000  Uiso   1.00
I812   I     0.43596   0.70451   0.53650   0.00000  Uiso   1.00
I813   I     0.53327   0.95163   0.87993   0.00000  Uiso   1.00
C814   C     0.59255   0.68150   0.70843   0.00000  Uiso   1.00
H815   H     0.59809   0.71484   0.68451   0.00000  Uiso   1.00
O816   O     0.63961   0.99906   0.71053   0.00000  Uiso   1.00
C817   C     0.84993   0.93311   0.74726   0.00000  Uiso   1.00
C818   C     0.81589   0.81495   0.98132   0.00000  Uiso   1.00
C819   C     0.82089   0.84340   0.93641   0.00000  Uiso   1.00
C820   C     0.85989   0.83376   0.51317   0.00000  Uiso   1.00
C821   C     0.91542   0.87178   0.99457   0.00000  Uiso   1.00
C822   C     0.92024   0.89869   0.95015   0.00000  Uiso   1.00
C823   C     0.87056   0.88852   0.92456   0.00000  Uiso   1.00
C824   C     0.84582   0.82201   0.56548   0.00000  Uiso   1.00
C825   C     0.94862   0.87157   0.57511   0.00000  Uiso   1.00
C826   C     0.77686   0.82545   0.90432   0.00000  Uiso   1.00
C827   C     0.86170   0.98809   0.73653   0.00000  Uiso   1.00
C828   C     0.79902   0.83114   0.84766   0.00000  Uiso   1.00
C829   C     0.81172   0.67750   0.74731   0.00000  Uiso   1.00
C830   C     0.81913   0.73334   0.74694   0.00000  Uiso   1.00
C831   C     0.86746   0.83635   0.65268   0.00000  Uiso   1.00
C832   C     0.96141   0.88749   0.52429   0.00000  Uiso   1.00
C833   C     0.88896   0.84160   0.59677   0.00000  Uiso   1.00
C834   C     0.72035   0.78862   0.92407   0.00000  Uiso   1.00
C835   C     0.71789   0.75917   0.96631   0.00000  Uiso   1.00
C836   C     0.76722   0.76894   0.99215   0.00000  Uiso   1.00
Cu837  Cu    0.77377   0.82772   0.74436   0.00000  Uiso   1.00
Cu838  Cu    0.89290   0.83895   0.75565   0.00000  Uiso   1.00
H839   H     0.98277   0.88687   0.59865   0.00000  Uiso   1.00
H840   H     0.76415   0.98838   0.76187   0.00000  Uiso   1.00
H841   H     0.67000   0.87225   0.79008   0.00000  Uiso   1.00
H842   H     0.99696   0.79496   0.70949   0.00000  Uiso   1.00
H843   H     0.95915   0.93194   0.93895   0.00000  Uiso   1.00
H844   H     0.67180   0.91512   0.50955   0.00000  Uiso   1.00
H845   H     0.79875   0.80196   0.58344   0.00000  Uiso   1.00
H846   H     0.67853   0.72630   0.97767   0.00000  Uiso   1.00
N847   N     0.98241   0.84741   0.76416   0.00000  Uiso   1.00
N848   N     0.68426   0.81926   0.73584   0.00000  Uiso   1.00
O849   O     0.79464   0.90474   0.74633   0.00000  Uiso   1.00
O850   O     0.89524   0.91422   0.75587   0.00000  Uiso   1.00
O851   O     0.75848   0.82627   0.81840   0.00000  Uiso   1.00
O852   O     0.85908   0.83575   0.82793   0.00000  Uiso   1.00
O853   O     0.77142   0.75245   0.74414   0.00000  Uiso   1.00
O854   O     0.87203   0.76193   0.75367   0.00000  Uiso   1.00
O855   O     0.80758   0.83092   0.67207   0.00000  Uiso   1.00
O856   O     0.90819   0.84040   0.68161   0.00000  Uiso   1.00
C857   C     0.99781   0.77648   0.90030   0.00000  Uiso   1.00
H858   H     0.96800   0.73722   0.90292   0.00000  Uiso   1.00
O859   O     0.98192   0.81083   0.88085   0.00000  Uiso   1.00
I860   I     0.76929   0.70451   0.53650   0.00000  Uiso   1.00
I861   I     0.86660   0.95163   0.87993   0.00000  Uiso   1.00
C862   C     0.92589   0.68150   0.70843   0.00000  Uiso   1.00
H863   H     0.93142   0.71484   0.68451   0.00000  Uiso   1.00
O864   O     0.97295   0.99906   0.71053   0.00000  Uiso   1.00
loop_
_geom_bond_atom_site_label_1
_geom_bond_atom_site_label_2
_geom_bond_distance
_geom_bond_site_symmetry_2
_ccdc_geom_bond_type
C1     O33     1.290   .     A
C1     O34     1.286   .     A
C1     C11     1.437   .     S
C2     C3      1.425   .     A
C2     C20     1.422   .     A
C2     C436    1.421   .     S
C3     C10     1.423   .     A
C3     C7      1.421   .     A
C4     C8      1.401   .     A
C4     C434    1.421   1_554 S
C4     C437    1.415   1_554 S
C5     C6      1.392   .     A
C5     C436    1.415   .     S
C5     C448    1.405   .     S
C6     C7      1.393   .     A
C6     H27     1.084   .     S
C7     I45     2.129   .     S
C8     C17     1.399   .     A
C8     H29     1.079   .     S
C9     C17     1.401   .     A
C9     C16     1.395   .     A
C9     H23     1.083   .     S
C10    C12     1.488   .     S
C10    C18     1.419   .     A
C11    C157    1.341   .     S
C11    C190    1.495   .     S
C12    O36     1.303   .     A
C12    O35     1.300   .     A
C13    C14     1.429   .     S
C13    C299    1.341   1_545 S
C13    H312    1.088   1_545 S
C14    O37     1.288   .     A
C14    O38     1.287   .     A
C15    O39     1.295   .     A
C15    O40     1.299   .     A
C15    C17     1.467   .     S
C16    C437    1.405   1_554 S
C16    H76     1.084   .     S
C18    C19     1.393   .     A
C18    C137    1.482   1_455 S
C19    C20     1.391   .     A
C19    H30     1.084   .     S
C20    I476    2.139   .     S
Cu21   O35     1.929   .     S
Cu21   O39     1.906   .     S
Cu21   N32     2.016   .     S
Cu21   O33     1.958   .     S
Cu21   O37     1.952   .     S
Cu21   Cu22    2.683   .     S
Cu22   O40     1.929   .     S
Cu22   O34     1.952   .     S
Cu22   N31     2.016   .     S
Cu22   O38     1.958   .     S
Cu22   O36     1.906   .     S
H24    C157    1.088   .     S
H25    N127    1.029   1_455 S
H26    N80     1.028   .     S
H28    C112    1.084   1_455 S
N31    H73     1.029   .     S
N31    N80     1.278   .     S
N32    H122    1.028   1_455 S
N32    N127    1.278   1_455 S
C41    O43     1.220   .     D
C41    H42     1.086   .     S
C41    C66     1.482   .     S
I44    C452    2.139   1_554 S
C46    H47     1.084   .     S
C46    C299    1.495   1_545 S
C46    O336    1.221   1_545 S
O48    C190    1.221   .     S
C49    O81     1.290   .     A
C49    O82     1.286   .     A
C49    C59     1.437   .     S
C50    C51     1.425   .     A
C50    C68     1.422   .     A
C50    C484    1.421   .     S
C51    C58     1.423   .     A
C51    C55     1.421   .     A
C52    C56     1.401   .     A
C52    C482    1.421   1_554 S
C52    C485    1.415   1_554 S
C53    C54     1.392   .     A
C53    C484    1.415   .     S
C53    C496    1.405   .     S
C54    C55     1.393   .     A
C54    H75     1.084   .     S
C55    I93     2.129   .     S
C56    C65     1.399   .     A
C56    H77     1.079   .     S
C57    C65     1.401   .     A
C57    C64     1.395   .     A
C57    H71     1.083   .     S
C58    C60     1.488   .     S
C58    C66     1.419   .     A
C59    C205    1.341   .     S
C59    C238    1.495   .     S
C60    O84     1.303   .     A
C60    O83     1.300   .     A
C61    C62     1.429   .     S
C61    C347    1.341   1_545 S
C61    H360    1.088   1_545 S
C62    O85     1.288   .     A
C62    O86     1.287   .     A
C63    O87     1.295   .     A
C63    O88     1.299   .     A
C63    C65     1.467   .     S
C64    C485    1.405   1_554 S
C64    H124    1.084   .     S
C66    C67     1.393   .     A
C67    C68     1.391   .     A
C67    H78     1.084   .     S
C68    I524    2.139   .     S
Cu69   O83     1.929   .     S
Cu69   O87     1.906   .     S
Cu69   N80     2.016   .     S
Cu69   O81     1.958   .     S
Cu69   O85     1.952   .     S
Cu69   Cu70    2.683   .     S
Cu70   O88     1.929   .     S
Cu70   O82     1.952   .     S
Cu70   N79     2.016   .     S
Cu70   O86     1.958   .     S
Cu70   O84     1.906   .     S
H72    C205    1.088   .     S
H74    N128    1.028   .     S
N79    H121    1.029   .     S
N79    N128    1.278   .     S
C89    O91     1.220   .     D
C89    H90     1.086   .     S
C89    C114    1.482   .     S
I92    C500    2.139   1_554 S
C94    H95     1.084   .     S
C94    C347    1.495   1_545 S
C94    O384    1.221   1_545 S
O96    C238    1.221   .     S
C97    O129    1.290   .     A
C97    O130    1.286   .     A
C97    C107    1.437   .     S
C98    C99     1.425   .     A
C98    C116    1.422   .     A
C98    C532    1.421   .     S
C99    C106    1.423   .     A
C99    C103    1.421   .     A
C100   C104    1.401   .     A
C100   C530    1.421   1_554 S
C100   C533    1.415   1_554 S
C101   C102    1.392   .     A
C101   C532    1.415   .     S
C101   C544    1.405   .     S
C102   C103    1.393   .     A
C102   H123    1.084   .     S
C103   I141    2.129   .     S
C104   C113    1.399   .     A
C104   H125    1.079   .     S
C105   C113    1.401   .     A
C105   C112    1.395   .     A
C105   H119    1.083   .     S
C106   C108    1.488   .     S
C106   C114    1.419   .     A
C107   C253    1.341   .     S
C107   C286    1.495   .     S
C108   O132    1.303   .     A
C108   O131    1.300   .     A
C109   C110    1.429   .     S
C109   C395    1.341   1_545 S
C109   H408    1.088   1_545 S
C110   O133    1.288   .     A
C110   O134    1.287   .     A
C111   O135    1.295   .     A
C111   O136    1.299   .     A
C111   C113    1.467   .     S
C112   C533    1.405   1_554 S
C112   H28     1.084   1_655 S
C114   C115    1.393   .     A
C115   C116    1.391   .     A
C115   H126    1.084   .     S
C116   I572    2.139   .     S
Cu117  O131    1.929   .     S
Cu117  O135    1.906   .     S
Cu117  N128    2.016   .     S
Cu117  O129    1.958   .     S
Cu117  O133    1.952   .     S
Cu117  Cu118   2.683   .     S
Cu118  O136    1.929   .     S
Cu118  O130    1.952   .     S
Cu118  N127    2.016   .     S
Cu118  O134    1.958   .     S
Cu118  O132    1.906   .     S
H120   C253    1.088   .     S
H122   N32     1.028   1_655 S
N127   H25     1.029   1_655 S
N127   N32     1.278   1_655 S
C137   O139    1.220   .     D
C137   H138    1.086   .     S
C137   C18     1.482   1_655 S
I140   C548    2.139   1_554 S
C142   H143    1.084   .     S
C142   C395    1.495   1_545 S
C142   O432    1.221   1_545 S
O144   C286    1.221   .     S
C145   O177    1.290   .     A
C145   O178    1.286   .     A
C145   C155    1.437   .     S
C146   C147    1.425   .     A
C146   C164    1.422   .     A
C146   C580    1.421   .     S
C147   C154    1.423   .     A
C147   C151    1.421   .     A
C148   C152    1.401   .     A
C148   C578    1.421   1_554 S
C148   C581    1.415   1_554 S
C149   C150    1.392   .     A
C149   C580    1.415   .     S
C149   C592    1.405   .     S
C150   C151    1.393   .     A
C150   H171    1.084   .     S
C151   I189    2.129   .     S
C152   C161    1.399   .     A
C152   H173    1.079   .     S
C153   C161    1.401   .     A
C153   C160    1.395   .     A
C153   H167    1.083   .     S
C154   C156    1.488   .     S
C154   C162    1.419   .     A
C155   C301    1.341   .     S
C155   C334    1.495   .     S
C156   O180    1.303   .     A
C156   O179    1.300   .     A
C157   C158    1.429   .     S
C158   O181    1.288   .     A
C158   O182    1.287   .     A
C159   O183    1.295   .     A
C159   O184    1.299   .     A
C159   C161    1.467   .     S
C160   C581    1.405   1_554 S
C160   H220    1.084   .     S
C162   C163    1.393   .     A
C162   C281    1.482   1_455 S
C163   C164    1.391   .     A
C163   H174    1.084   .     S
C164   I620    2.139   .     S
Cu165  O179    1.929   .     S
Cu165  O183    1.906   .     S
Cu165  N176    2.016   .     S
Cu165  O177    1.958   .     S
Cu165  O181    1.952   .     S
Cu165  Cu166   2.683   .     S
Cu166  O184    1.929   .     S
Cu166  O178    1.952   .     S
Cu166  N175    2.016   .     S
Cu166  O182    1.958   .     S
Cu166  O180    1.906   .     S
H168   C301    1.088   .     S
H169   N271    1.029   1_455 S
H170   N224    1.028   .     S
H172   C256    1.084   1_455 S
N175   H217    1.029   .     S
N175   N224    1.278   .     S
N176   H266    1.028   1_455 S
N176   N271    1.278   1_455 S
C185   O187    1.220   .     D
C185   H186    1.086   .     S
C185   C210    1.482   .     S
I188   C596    2.139   1_554 S
C190   H191    1.084   .     S
O192   C334    1.221   .     S
C193   O225    1.290   .     A
C193   O226    1.286   .     A
C193   C203    1.437   .     S
C194   C195    1.425   .     A
C194   C212    1.422   .     A
C194   C628    1.421   .     S
C195   C202    1.423   .     A
C195   C199    1.421   .     A
C196   C200    1.401   .     A
C196   C626    1.421   1_554 S
C196   C629    1.415   1_554 S
C197   C198    1.392   .     A
C197   C628    1.415   .     S
C197   C640    1.405   .     S
C198   C199    1.393   .     A
C198   H219    1.084   .     S
C199   I237    2.129   .     S
C200   C209    1.399   .     A
C200   H221    1.079   .     S
C201   C209    1.401   .     A
C201   C208    1.395   .     A
C201   H215    1.083   .     S
C202   C204    1.488   .     S
C202   C210    1.419   .     A
C203   C349    1.341   .     S
C203   C382    1.495   .     S
C204   O228    1.303   .     A
C204   O227    1.300   .     A
C205   C206    1.429   .     S
C206   O229    1.288   .     A
C206   O230    1.287   .     A
C207   O231    1.295   .     A
C207   O232    1.299   .     A
C207   C209    1.467   .     S
C208   C629    1.405   1_554 S
C208   H268    1.084   .     S
C210   C211    1.393   .     A
C211   C212    1.391   .     A
C211   H222    1.084   .     S
C212   I668    2.139   .     S
Cu213  O227    1.929   .     S
Cu213  O231    1.906   .     S
Cu213  N224    2.016   .     S
Cu213  O225    1.958   .     S
Cu213  O229    1.952   .     S
Cu213  Cu214   2.683   .     S
Cu214  O232    1.929   .     S
Cu214  O226    1.952   .     S
Cu214  N223    2.016   .     S
Cu214  O230    1.958   .     S
Cu214  O228    1.906   .     S
H216   C349    1.088   .     S
H218   N272    1.028   .     S
N223   H265    1.029   .     S
N223   N272    1.278   .     S
C233   O235    1.220   .     D
C233   H234    1.086   .     S
C233   C258    1.482   .     S
I236   C644    2.139   1_554 S
C238   H239    1.084   .     S
O240   C382    1.221   .     S
C241   O273    1.290   .     A
C241   O274    1.286   .     A
C241   C251    1.437   .     S
C242   C243    1.425   .     A
C242   C260    1.422   .     A
C242   C676    1.421   .     S
C243   C250    1.423   .     A
C243   C247    1.421   .     A
C244   C248    1.401   .     A
C244   C674    1.421   1_554 S
C244   C677    1.415   1_554 S
C245   C246    1.392   .     A
C245   C676    1.415   .     S
C245   C688    1.405   .     S
C246   C247    1.393   .     A
C246   H267    1.084   .     S
C247   I285    2.129   .     S
C248   C257    1.399   .     A
C248   H269    1.079   .     S
C249   C257    1.401   .     A
C249   C256    1.395   .     A
C249   H263    1.083   .     S
C250   C252    1.488   .     S
C250   C258    1.419   .     A
C251   C397    1.341   .     S
C251   C430    1.495   .     S
C252   O276    1.303   .     A
C252   O275    1.300   .     A
C253   C254    1.429   .     S
C254   O277    1.288   .     A
C254   O278    1.287   .     A
C255   O279    1.295   .     A
C255   O280    1.299   .     A
C255   C257    1.467   .     S
C256   C677    1.405   1_554 S
C256   H172    1.084   1_655 S
C258   C259    1.393   .     A
C259   C260    1.391   .     A
C259   H270    1.084   .     S
C260   I716    2.139   .     S
Cu261  O275    1.929   .     S
Cu261  O279    1.906   .     S
Cu261  N272    2.016   .     S
Cu261  O273    1.958   .     S
Cu261  O277    1.952   .     S
Cu261  Cu262   2.683   .     S
Cu262  O280    1.929   .     S
Cu262  O274    1.952   .     S
Cu262  N271    2.016   .     S
Cu262  O278    1.958   .     S
Cu262  O276    1.906   .     S
H264   C397    1.088   .     S
H266   N176    1.028   1_655 S
N271   H169    1.029   1_655 S
N271   N176    1.278   1_655 S
C281   O283    1.220   .     D
C281   H282    1.086   .     S
C281   C162    1.482   1_655 S
I284   C692    2.139   1_554 S
C286   H287    1.084   .     S
O288   C430    1.221   .     S
C289   O321    1.290   .     A
C289   O322    1.286   .     A
C289   C299    1.437   .     S
C290   C291    1.425   .     A
C290   C308    1.422   .     A
C290   C724    1.421   .     S
C291   C298    1.423   .     A
C291   C295    1.421   .     A
C292   C296    1.401   .     A
C292   C722    1.421   1_554 S
C292   C725    1.415   1_554 S
C293   C294    1.392   .     A
C293   C724    1.415   .     S
C293   C736    1.405   .     S
C294   C295    1.393   .     A
C294   H315    1.084   .     S
C295   I333    2.129   .     S
C296   C305    1.399   .     A
C296   H317    1.079   .     S
C297   C305    1.401   .     A
C297   C304    1.395   .     A
C297   H311    1.083   .     S
C298   C300    1.488   .     S
C298   C306    1.419   .     A
C299   C13     1.341   1_565 S
C299   C46     1.495   1_565 S
C300   O324    1.303   .     A
C300   O323    1.300   .     A
C301   C302    1.429   .     S
C302   O325    1.288   .     A
C302   O326    1.287   .     A
C303   O327    1.295   .     A
C303   O328    1.299   .     A
C303   C305    1.467   .     S
C304   C725    1.405   1_554 S
C304   H364    1.084   .     S
C306   C307    1.393   .     A
C306   C425    1.482   1_455 S
C307   C308    1.391   .     A
C307   H318    1.084   .     S
C308   I764    2.139   .     S
Cu309  O323    1.929   .     S
Cu309  O327    1.906   .     S
Cu309  N320    2.016   .     S
Cu309  O321    1.958   .     S
Cu309  O325    1.952   .     S
Cu309  Cu310   2.683   .     S
Cu310  O328    1.929   .     S
Cu310  O322    1.952   .     S
Cu310  N319    2.016   .     S
Cu310  O326    1.958   .     S
Cu310  O324    1.906   .     S
H312   C13     1.088   1_565 S
H313   N415    1.029   1_455 S
H314   N368    1.028   .     S
H316   C400    1.084   1_455 S
N319   H361    1.029   .     S
N319   N368    1.278   .     S
N320   H410    1.028   1_455 S
N320   N415    1.278   1_455 S
C329   O331    1.220   .     D
C329   H330    1.086   .     S
C329   C354    1.482   .     S
I332   C740    2.139   1_554 S
C334   H335    1.084   .     S
O336   C46     1.221   1_565 S
C337   O369    1.290   .     A
C337   O370    1.286   .     A
C337   C347    1.437   .     S
C338   C339    1.425   .     A
C338   C356    1.422   .     A
C338   C772    1.421   .     S
C339   C346    1.423   .     A
C339   C343    1.421   .     A
C340   C344    1.401   .     A
C340   C770    1.421   1_554 S
C340   C773    1.415   1_554 S
C341   C342    1.392   .     A
C341   C772    1.415   .     S
C341   C784    1.405   .     S
C342   C343    1.393   .     A
C342   H363    1.084   .     S
C343   I381    2.129   .     S
C344   C353    1.399   .     A
C344   H365    1.079   .     S
C345   C353    1.401   .     A
C345   C352    1.395   .     A
C345   H359    1.083   .     S
C346   C348    1.488   .     S
C346   C354    1.419   .     A
C347   C61     1.341   1_565 S
C347   C94     1.495   1_565 S
C348   O372    1.303   .     A
C348   O371    1.300   .     A
C349   C350    1.429   .     S
C350   O373    1.288   .     A
C350   O374    1.287   .     A
C351   O375    1.295   .     A
C351   O376    1.299   .     A
C351   C353    1.467   .     S
C352   C773    1.405   1_554 S
C352   H412    1.084   .     S
C354   C355    1.393   .     A
C355   C356    1.391   .     A
C355   H366    1.084   .     S
C356   I812    2.139   .     S
Cu357  O371    1.929   .     S
Cu357  O375    1.906   .     S
Cu357  N368    2.016   .     S
Cu357  O369    1.958   .     S
Cu357  O373    1.952   .     S
Cu357  Cu358   2.683   .     S
Cu358  O376    1.929   .     S
Cu358  O370    1.952   .     S
Cu358  N367    2.016   .     S
Cu358  O374    1.958   .     S
Cu358  O372    1.906   .     S
H360   C61     1.088   1_565 S
H362   N416    1.028   .     S
N367   H409    1.029   .     S
N367   N416    1.278   .     S
C377   O379    1.220   .     D
C377   H378    1.086   .     S
C377   C402    1.482   .     S
I380   C788    2.139   1_554 S
C382   H383    1.084   .     S
O384   C94     1.221   1_565 S
C385   O417    1.290   .     A
C385   O418    1.286   .     A
C385   C395    1.437   .     S
C386   C387    1.425   .     A
C386   C404    1.422   .     A
C386   C820    1.421   .     S
C387   C394    1.423   .     A
C387   C391    1.421   .     A
C388   C392    1.401   .     A
C388   C818    1.421   1_554 S
C388   C821    1.415   1_554 S
C389   C390    1.392   .     A
C389   C820    1.415   .     S
C389   C832    1.405   .     S
C390   C391    1.393   .     A
C390   H411    1.084   .     S
C391   I429    2.129   .     S
C392   C401    1.399   .     A
C392   H413    1.079   .     S
C393   C401    1.401   .     A
C393   C400    1.395   .     A
C393   H407    1.083   .     S
C394   C396    1.488   .     S
C394   C402    1.419   .     A
C395   C109    1.341   1_565 S
C395   C142    1.495   1_565 S
C396   O420    1.303   .     A
C396   O419    1.300   .     A
C397   C398    1.429   .     S
C398   O421    1.288   .     A
C398   O422    1.287   .     A
C399   O423    1.295   .     A
C399   O424    1.299   .     A
C399   C401    1.467   .     S
C400   C821    1.405   1_554 S
C400   H316    1.084   1_655 S
C402   C403    1.393   .     A
C403   C404    1.391   .     A
C403   H414    1.084   .     S
C404   I860    2.139   .     S
Cu405  O419    1.929   .     S
Cu405  O423    1.906   .     S
Cu405  N416    2.016   .     S
Cu405  O417    1.958   .     S
Cu405  O421    1.952   .     S
Cu405  Cu406   2.683   .     S
Cu406  O424    1.929   .     S
Cu406  O418    1.952   .     S
Cu406  N415    2.016   .     S
Cu406  O422    1.958   .     S
Cu406  O420    1.906   .     S
H408   C109    1.088   1_565 S
H410   N320    1.028   1_655 S
N415   H313    1.029   1_655 S
N415   N320    1.278   1_655 S
C425   O427    1.220   .     D
C425   H426    1.086   .     S
C425   C306    1.482   1_655 S
I428   C836    2.139   1_554 S
C430   H431    1.084   .     S
O432   C142    1.221   1_565 S
C433   O465    1.290   .     A
C433   O466    1.286   .     A
C433   C443    1.437   .     S
C434   C435    1.425   .     A
C434   C452    1.422   .     A
C434   C4      1.421   1_556 S
C435   C442    1.423   .     A
C435   C439    1.421   .     A
C436   C440    1.401   .     A
C437   C438    1.392   .     A
C437   C4      1.415   1_556 S
C437   C16     1.405   1_556 S
C438   C439    1.393   .     A
C438   H459    1.084   .     S
C439   I477    2.129   .     S
C440   C449    1.399   .     A
C440   H461    1.079   .     S
C441   C449    1.401   .     A
C441   C448    1.395   .     A
C441   H455    1.083   .     S
C442   C444    1.488   .     S
C442   C450    1.419   .     A
C443   C589    1.341   .     S
C443   C622    1.495   .     S
C444   O468    1.303   .     A
C444   O467    1.300   .     A
C445   C446    1.429   .     S
C445   C731    1.341   1_545 S
C445   H744    1.088   1_545 S
C446   O469    1.288   .     A
C446   O470    1.287   .     A
C447   O471    1.295   .     A
C447   O472    1.299   .     A
C447   C449    1.467   .     S
C448   H508    1.084   .     S
C450   C451    1.393   .     A
C450   C569    1.482   1_455 S
C451   C452    1.391   .     A
C451   H462    1.084   .     S
C452   I44     2.139   1_556 S
Cu453  O467    1.929   .     S
Cu453  O471    1.906   .     S
Cu453  N464    2.016   .     S
Cu453  O465    1.958   .     S
Cu453  O469    1.952   .     S
Cu453  Cu454   2.683   .     S
Cu454  O472    1.929   .     S
Cu454  O466    1.952   .     S
Cu454  N463    2.016   .     S
Cu454  O470    1.958   .     S
Cu454  O468    1.906   .     S
H456   C589    1.088   .     S
H457   N559    1.029   1_455 S
H458   N512    1.028   .     S
H460   C544    1.084   1_455 S
N463   H505    1.029   .     S
N463   N512    1.278   .     S
N464   H554    1.028   1_455 S
N464   N559    1.278   1_455 S
C473   O475    1.220   .     D
C473   H474    1.086   .     S
C473   C498    1.482   .     S
C478   H479    1.084   .     S
C478   C731    1.495   1_545 S
C478   O768    1.221   1_545 S
O480   C622    1.221   .     S
C481   O513    1.290   .     A
C481   O514    1.286   .     A
C481   C491    1.437   .     S
C482   C483    1.425   .     A
C482   C500    1.422   .     A
C482   C52     1.421   1_556 S
C483   C490    1.423   .     A
C483   C487    1.421   .     A
C484   C488    1.401   .     A
C485   C486    1.392   .     A
C485   C52     1.415   1_556 S
C485   C64     1.405   1_556 S
C486   C487    1.393   .     A
C486   H507    1.084   .     S
C487   I525    2.129   .     S
C488   C497    1.399   .     A
C488   H509    1.079   .     S
C489   C497    1.401   .     A
C489   C496    1.395   .     A
C489   H503    1.083   .     S
C490   C492    1.488   .     S
C490   C498    1.419   .     A
C491   C637    1.341   .     S
C491   C670    1.495   .     S
C492   O516    1.303   .     A
C492   O515    1.300   .     A
C493   C494    1.429   .     S
C493   C779    1.341   1_545 S
C493   H792    1.088   1_545 S
C494   O517    1.288   .     A
C494   O518    1.287   .     A
C495   O519    1.295   .     A
C495   O520    1.299   .     A
C495   C497    1.467   .     S
C496   H556    1.084   .     S
C498   C499    1.393   .     A
C499   C500    1.391   .     A
C499   H510    1.084   .     S
C500   I92     2.139   1_556 S
Cu501  O515    1.929   .     S
Cu501  O519    1.906   .     S
Cu501  N512    2.016   .     S
Cu501  O513    1.958   .     S
Cu501  O517    1.952   .     S
Cu501  Cu502   2.683   .     S
Cu502  O520    1.929   .     S
Cu502  O514    1.952   .     S
Cu502  N511    2.016   .     S
Cu502  O518    1.958   .     S
Cu502  O516    1.906   .     S
H504   C637    1.088   .     S
H506   N560    1.028   .     S
N511   H553    1.029   .     S
N511   N560    1.278   .     S
C521   O523    1.220   .     D
C521   H522    1.086   .     S
C521   C546    1.482   .     S
C526   H527    1.084   .     S
C526   C779    1.495   1_545 S
C526   O816    1.221   1_545 S
O528   C670    1.221   .     S
C529   O561    1.290   .     A
C529   O562    1.286   .     A
C529   C539    1.437   .     S
C530   C531    1.425   .     A
C530   C548    1.422   .     A
C530   C100    1.421   1_556 S
C531   C538    1.423   .     A
C531   C535    1.421   .     A
C532   C536    1.401   .     A
C533   C534    1.392   .     A
C533   C100    1.415   1_556 S
C533   C112    1.405   1_556 S
C534   C535    1.393   .     A
C534   H555    1.084   .     S
C535   I573    2.129   .     S
C536   C545    1.399   .     A
C536   H557    1.079   .     S
C537   C545    1.401   .     A
C537   C544    1.395   .     A
C537   H551    1.083   .     S
C538   C540    1.488   .     S
C538   C546    1.419   .     A
C539   C685    1.341   .     S
C539   C718    1.495   .     S
C540   O564    1.303   .     A
C540   O563    1.300   .     A
C541   C542    1.429   .     S
C541   C827    1.341   1_545 S
C541   H840    1.088   1_545 S
C542   O565    1.288   .     A
C542   O566    1.287   .     A
C543   O567    1.295   .     A
C543   O568    1.299   .     A
C543   C545    1.467   .     S
C544   H460    1.084   1_655 S
C546   C547    1.393   .     A
C547   C548    1.391   .     A
C547   H558    1.084   .     S
C548   I140    2.139   1_556 S
Cu549  O563    1.929   .     S
Cu549  O567    1.906   .     S
Cu549  N560    2.016   .     S
Cu549  O561    1.958   .     S
Cu549  O565    1.952   .     S
Cu549  Cu550   2.683   .     S
Cu550  O568    1.929   .     S
Cu550  O562    1.952   .     S
Cu550  N559    2.016   .     S
Cu550  O566    1.958   .     S
Cu550  O564    1.906   .     S
H552   C685    1.088   .     S
H554   N464    1.028   1_655 S
N559   H457    1.029   1_655 S
N559   N464    1.278   1_655 S
C569   O571    1.220   .     D
C569   H570    1.086   .     S
C569   C450    1.482   1_655 S
C574   H575    1.084   .     S
C574   C827    1.495   1_545 S
C574   O864    1.221   1_545 S
O576   C718    1.221   .     S
C577   O609    1.290   .     A
C577   O610    1.286   .     A
C577   C587    1.437   .     S
C578   C579    1.425   .     A
C578   C596    1.422   .     A
C578   C148    1.421   1_556 S
C579   C586    1.423   .     A
C579   C583    1.421   .     A
C580   C584    1.401   .     A
C581   C582    1.392   .     A
C581   C148    1.415   1_556 S
C581   C160    1.405   1_556 S
C582   C583    1.393   .     A
C582   H603    1.084   .     S
C583   I621    2.129   .     S
C584   C593    1.399   .     A
C584   H605    1.079   .     S
C585   C593    1.401   .     A
C585   C592    1.395   .     A
C585   H599    1.083   .     S
C586   C588    1.488   .     S
C586   C594    1.419   .     A
C587   C733    1.341   .     S
C587   C766    1.495   .     S
C588   O612    1.303   .     A
C588   O611    1.300   .     A
C589   C590    1.429   .     S
C590   O613    1.288   .     A
C590   O614    1.287   .     A
C591   O615    1.295   .     A
C591   O616    1.299   .     A
C591   C593    1.467   .     S
C592   H652    1.084   .     S
C594   C595    1.393   .     A
C594   C713    1.482   1_455 S
C595   C596    1.391   .     A
C595   H606    1.084   .     S
C596   I188    2.139   1_556 S
Cu597  O611    1.929   .     S
Cu597  O615    1.906   .     S
Cu597  N608    2.016   .     S
Cu597  O609    1.958   .     S
Cu597  O613    1.952   .     S
Cu597  Cu598   2.683   .     S
Cu598  O616    1.929   .     S
Cu598  O610    1.952   .     S
Cu598  N607    2.016   .     S
Cu598  O614    1.958   .     S
Cu598  O612    1.906   .     S
H600   C733    1.088   .     S
H601   N703    1.029   1_455 S
H602   N656    1.028   .     S
H604   C688    1.084   1_455 S
N607   H649    1.029   .     S
N607   N656    1.278   .     S
N608   H698    1.028   1_455 S
N608   N703    1.278   1_455 S
C617   O619    1.220   .     D
C617   H618    1.086   .     S
C617   C642    1.482   .     S
C622   H623    1.084   .     S
O624   C766    1.221   .     S
C625   O657    1.290   .     A
C625   O658    1.286   .     A
C625   C635    1.437   .     S
C626   C627    1.425   .     A
C626   C644    1.422   .     A
C626   C196    1.421   1_556 S
C627   C634    1.423   .     A
C627   C631    1.421   .     A
C628   C632    1.401   .     A
C629   C630    1.392   .     A
C629   C196    1.415   1_556 S
C629   C208    1.405   1_556 S
C630   C631    1.393   .     A
C630   H651    1.084   .     S
C631   I669    2.129   .     S
C632   C641    1.399   .     A
C632   H653    1.079   .     S
C633   C641    1.401   .     A
C633   C640    1.395   .     A
C633   H647    1.083   .     S
C634   C636    1.488   .     S
C634   C642    1.419   .     A
C635   C781    1.341   .     S
C635   C814    1.495   .     S
C636   O660    1.303   .     A
C636   O659    1.300   .     A
C637   C638    1.429   .     S
C638   O661    1.288   .     A
C638   O662    1.287   .     A
C639   O663    1.295   .     A
C639   O664    1.299   .     A
C639   C641    1.467   .     S
C640   H700    1.084   .     S
C642   C643    1.393   .     A
C643   C644    1.391   .     A
C643   H654    1.084   .     S
C644   I236    2.139   1_556 S
Cu645  O659    1.929   .     S
Cu645  O663    1.906   .     S
Cu645  N656    2.016   .     S
Cu645  O657    1.958   .     S
Cu645  O661    1.952   .     S
Cu645  Cu646   2.683   .     S
Cu646  O664    1.929   .     S
Cu646  O658    1.952   .     S
Cu646  N655    2.016   .     S
Cu646  O662    1.958   .     S
Cu646  O660    1.906   .     S
H648   C781    1.088   .     S
H650   N704    1.028   .     S
N655   H697    1.029   .     S
N655   N704    1.278   .     S
C665   O667    1.220   .     D
C665   H666    1.086   .     S
C665   C690    1.482   .     S
C670   H671    1.084   .     S
O672   C814    1.221   .     S
C673   O705    1.290   .     A
C673   O706    1.286   .     A
C673   C683    1.437   .     S
C674   C675    1.425   .     A
C674   C692    1.422   .     A
C674   C244    1.421   1_556 S
C675   C682    1.423   .     A
C675   C679    1.421   .     A
C676   C680    1.401   .     A
C677   C678    1.392   .     A
C677   C244    1.415   1_556 S
C677   C256    1.405   1_556 S
C678   C679    1.393   .     A
C678   H699    1.084   .     S
C679   I717    2.129   .     S
C680   C689    1.399   .     A
C680   H701    1.079   .     S
C681   C689    1.401   .     A
C681   C688    1.395   .     A
C681   H695    1.083   .     S
C682   C684    1.488   .     S
C682   C690    1.419   .     A
C683   C829    1.341   .     S
C683   C862    1.495   .     S
C684   O708    1.303   .     A
C684   O707    1.300   .     A
C685   C686    1.429   .     S
C686   O709    1.288   .     A
C686   O710    1.287   .     A
C687   O711    1.295   .     A
C687   O712    1.299   .     A
C687   C689    1.467   .     S
C688   H604    1.084   1_655 S
C690   C691    1.393   .     A
C691   C692    1.391   .     A
C691   H702    1.084   .     S
C692   I284    2.139   1_556 S
Cu693  O707    1.929   .     S
Cu693  O711    1.906   .     S
Cu693  N704    2.016   .     S
Cu693  O705    1.958   .     S
Cu693  O709    1.952   .     S
Cu693  Cu694   2.683   .     S
Cu694  O712    1.929   .     S
Cu694  O706    1.952   .     S
Cu694  N703    2.016   .     S
Cu694  O710    1.958   .     S
Cu694  O708    1.906   .     S
H696   C829    1.088   .     S
H698   N608    1.028   1_655 S
N703   H601    1.029   1_655 S
N703   N608    1.278   1_655 S
C713   O715    1.220   .     D
C713   H714    1.086   .     S
C713   C594    1.482   1_655 S
C718   H719    1.084   .     S
O720   C862    1.221   .     S
C721   O753    1.290   .     A
C721   O754    1.286   .     A
C721   C731    1.437   .     S
C722   C723    1.425   .     A
C722   C740    1.422   .     A
C722   C292    1.421   1_556 S
C723   C730    1.423   .     A
C723   C727    1.421   .     A
C724   C728    1.401   .     A
C725   C726    1.392   .     A
C725   C292    1.415   1_556 S
C725   C304    1.405   1_556 S
C726   C727    1.393   .     A
C726   H747    1.084   .     S
C727   I765    2.129   .     S
C728   C737    1.399   .     A
C728   H749    1.079   .     S
C729   C737    1.401   .     A
C729   C736    1.395   .     A
C729   H743    1.083   .     S
C730   C732    1.488   .     S
C730   C738    1.419   .     A
C731   C445    1.341   1_565 S
C731   C478    1.495   1_565 S
C732   O756    1.303   .     A
C732   O755    1.300   .     A
C733   C734    1.429   .     S
C734   O757    1.288   .     A
C734   O758    1.287   .     A
C735   O759    1.295   .     A
C735   O760    1.299   .     A
C735   C737    1.467   .     S
C736   H796    1.084   .     S
C738   C739    1.393   .     A
C738   C857    1.482   1_455 S
C739   C740    1.391   .     A
C739   H750    1.084   .     S
C740   I332    2.139   1_556 S
Cu741  O755    1.929   .     S
Cu741  O759    1.906   .     S
Cu741  N752    2.016   .     S
Cu741  O753    1.958   .     S
Cu741  O757    1.952   .     S
Cu741  Cu742   2.683   .     S
Cu742  O760    1.929   .     S
Cu742  O754    1.952   .     S
Cu742  N751    2.016   .     S
Cu742  O758    1.958   .     S
Cu742  O756    1.906   .     S
H744   C445    1.088   1_565 S
H745   N847    1.029   1_455 S
H746   N800    1.028   .     S
H748   C832    1.084   1_455 S
N751   H793    1.029   .     S
N751   N800    1.278   .     S
N752   H842    1.028   1_455 S
N752   N847    1.278   1_455 S
C761   O763    1.220   .     D
C761   H762    1.086   .     S
C761   C786    1.482   .     S
C766   H767    1.084   .     S
O768   C478    1.221   1_565 S
C769   O801    1.290   .     A
C769   O802    1.286   .     A
C769   C779    1.437   .     S
C770   C771    1.425   .     A
C770   C788    1.422   .     A
C770   C340    1.421   1_556 S
C771   C778    1.423   .     A
C771   C775    1.421   .     A
C772   C776    1.401   .     A
C773   C774    1.392   .     A
C773   C340    1.415   1_556 S
C773   C352    1.405   1_556 S
C774   C775    1.393   .     A
C774   H795    1.084   .     S
C775   I813    2.129   .     S
C776   C785    1.399   .     A
C776   H797    1.079   .     S
C777   C785    1.401   .     A
C777   C784    1.395   .     A
C777   H791    1.083   .     S
C778   C780    1.488   .     S
C778   C786    1.419   .     A
C779   C493    1.341   1_565 S
C779   C526    1.495   1_565 S
C780   O804    1.303   .     A
C780   O803    1.300   .     A
C781   C782    1.429   .     S
C782   O805    1.288   .     A
C782   O806    1.287   .     A
C783   O807    1.295   .     A
C783   O808    1.299   .     A
C783   C785    1.467   .     S
C784   H844    1.084   .     S
C786   C787    1.393   .     A
C787   C788    1.391   .     A
C787   H798    1.084   .     S
C788   I380    2.139   1_556 S
Cu789  O803    1.929   .     S
Cu789  O807    1.906   .     S
Cu789  N800    2.016   .     S
Cu789  O801    1.958   .     S
Cu789  O805    1.952   .     S
Cu789  Cu790   2.683   .     S
Cu790  O808    1.929   .     S
Cu790  O802    1.952   .     S
Cu790  N799    2.016   .     S
Cu790  O806    1.958   .     S
Cu790  O804    1.906   .     S
H792   C493    1.088   1_565 S
H794   N848    1.028   .     S
N799   H841    1.029   .     S
N799   N848    1.278   .     S
C809   O811    1.220   .     D
C809   H810    1.086   .     S
C809   C834    1.482   .     S
C814   H815    1.084   .     S
O816   C526    1.221   1_565 S
C817   O849    1.290   .     A
C817   O850    1.286   .     A
C817   C827    1.437   .     S
C818   C819    1.425   .     A
C818   C836    1.422   .     A
C818   C388    1.421   1_556 S
C819   C826    1.423   .     A
C819   C823    1.421   .     A
C820   C824    1.401   .     A
C821   C822    1.392   .     A
C821   C388    1.415   1_556 S
C821   C400    1.405   1_556 S
C822   C823    1.393   .     A
C822   H843    1.084   .     S
C823   I861    2.129   .     S
C824   C833    1.399   .     A
C824   H845    1.079   .     S
C825   C833    1.401   .     A
C825   C832    1.395   .     A
C825   H839    1.083   .     S
C826   C828    1.488   .     S
C826   C834    1.419   .     A
C827   C541    1.341   1_565 S
C827   C574    1.495   1_565 S
C828   O852    1.303   .     A
C828   O851    1.300   .     A
C829   C830    1.429   .     S
C830   O853    1.288   .     A
C830   O854    1.287   .     A
C831   O855    1.295   .     A
C831   O856    1.299   .     A
C831   C833    1.467   .     S
C832   H748    1.084   1_655 S
C834   C835    1.393   .     A
C835   C836    1.391   .     A
C835   H846    1.084   .     S
C836   I428    2.139   1_556 S
Cu837  O851    1.929   .     S
Cu837  O855    1.906   .     S
Cu837  N848    2.016   .     S
Cu837  O849    1.958   .     S
Cu837  O853    1.952   .     S
Cu837  Cu838   2.683   .     S
Cu838  O856    1.929   .     S
Cu838  O850    1.952   .     S
Cu838  N847    2.016   .     S
Cu838  O854    1.958   .     S
Cu838  O852    1.906   .     S
H840   C541    1.088   1_565 S
H842   N752    1.028   1_655 S
N847   H745    1.029   1_655 S
N847   N752    1.278   1_655 S
C857   O859    1.220   .     D
C857   H858    1.086   .     S
C857   C738    1.482   1_655 S
C862   H863    1.084   .     S
O864   C574    1.221   1_565 S
