data_str_m3_o1_o17_pcu_sym.56
_audit_creation_date              2020-01-03
_audit_creation_method            'Materials Studio'
_symmetry_space_group_name_H-M    'P1'
_symmetry_Int_Tables_number       1
_symmetry_cell_setting            triclinic
loop_
_symmetry_equiv_pos_as_xyz
  x,y,z
_cell_length_a                    32.1798
_cell_length_b                    29.8877
_cell_length_c                    29.9246
_cell_angle_alpha                 91.2441
_cell_angle_beta                  91.6015
_cell_angle_gamma                 92.0458
loop_
_atom_site_label
_atom_site_type_symbol
_atom_site_fract_x
_atom_site_fract_y
_atom_site_fract_z
_atom_site_U_iso_or_equiv
_atom_site_adp_type
_atom_site_occupancy
O1     O     0.10559   0.20487   0.24999   0.00000  Uiso   1.00
O2     O     0.22774   0.12846   0.25001   0.00000  Uiso   1.00
O3     O     0.22774   0.20487   0.25000   0.00000  Uiso   1.00
O4     O     0.10559   0.12846   0.25000   0.00000  Uiso   1.00
C5     C     0.08682   0.16598   0.25057   0.00000  Uiso   1.00
C6     C     0.24650   0.16737   0.24930   0.00000  Uiso   1.00
O7     O     0.16666   0.20489   0.18392   0.00000  Uiso   1.00
O8     O     0.16667   0.12844   0.31608   0.00000  Uiso   1.00
O9     O     0.16667   0.20489   0.31607   0.00000  Uiso   1.00
O10    O     0.16666   0.12844   0.18392   0.00000  Uiso   1.00
C11    C     0.16818   0.16634   0.16374   0.00000  Uiso   1.00
C12    C     0.16517   0.16698   0.33629   0.00000  Uiso   1.00
Zn13   Zn    0.16667   0.21771   0.25000   0.00000  Uiso   1.00
Zn14   Zn    0.16667   0.11563   0.25000   0.00000  Uiso   1.00
C15    C     0.19316   0.19329   0.40740   0.00000  Uiso   1.00
C16    C     0.14052   0.14010   0.09259   0.00000  Uiso   1.00
C17    C     0.16266   0.16792   0.38404   0.00000  Uiso   1.00
C18    C     0.17099   0.16537   0.11604   0.00000  Uiso   1.00
C19    C     0.13248   0.14215   0.40597   0.00000  Uiso   1.00
C20    C     0.20140   0.19105   0.09428   0.00000  Uiso   1.00
C21    C     0.13106   0.14597   0.45303   0.00000  Uiso   1.00
C22    C     0.20271   0.18764   0.04714   0.00000  Uiso   1.00
C23    C     0.16538   0.16778   0.47674   0.00000  Uiso   1.00
C24    C     0.16832   0.16597   0.02339   0.00000  Uiso   1.00
C25    C     0.19672   0.19147   0.45365   0.00000  Uiso   1.00
C26    C     0.13697   0.14218   0.04641   0.00000  Uiso   1.00
C27    C     0.09703   0.12803   0.47706   0.00000  Uiso   1.00
C28    C     0.23670   0.20566   0.02308   0.00000  Uiso   1.00
C29    C     0.10142   0.12327   0.02345   0.00000  Uiso   1.00
C30    C     0.23228   0.21045   0.47662   0.00000  Uiso   1.00
H31    H     0.21622   0.21139   0.38848   0.00000  Uiso   1.00
H32    H     0.11744   0.12185   0.11137   0.00000  Uiso   1.00
C33    C     0.01945   0.13266   0.22603   0.00000  Uiso   1.00
C34    C     0.31386   0.20083   0.27367   0.00000  Uiso   1.00
C35    C     0.31001   0.13502   0.22294   0.00000  Uiso   1.00
C36    C     0.02330   0.19850   0.27674   0.00000  Uiso   1.00
C37    C     0.29074   0.16868   0.24753   0.00000  Uiso   1.00
C38    C     0.04257   0.16476   0.25222   0.00000  Uiso   1.00
C39    C     0.18098   0.02533   0.28657   0.00000  Uiso   1.00
C40    C     0.15242   0.30801   0.21340   0.00000  Uiso   1.00
C41    C     0.15396   0.02233   0.21282   0.00000  Uiso   1.00
C42    C     0.17943   0.31100   0.28718   0.00000  Uiso   1.00
N43    N     0.16667   0.28573   0.25000   0.00000  Uiso   1.00
N44    N     0.16667   0.04760   0.25000   0.00000  Uiso   1.00
C45    C     0.10598   0.10822   0.38014   0.00000  Uiso   1.00
O46    O     0.10525   0.06910   0.39137   0.00000  Uiso   1.00
O47    O     0.08160   0.12103   0.34362   0.00000  Uiso   1.00
H48    H     0.06478   0.09497   0.32919   0.00000  Uiso   1.00
C49    C     0.22819   0.22458   0.12037   0.00000  Uiso   1.00
O50    O     0.24867   0.21323   0.15294   0.00000  Uiso   1.00
O51    O     0.23001   0.26920   0.10719   0.00000  Uiso   1.00
H52    H     0.24909   0.28886   0.12745   0.00000  Uiso   1.00
C53    C     0.05533   0.11885   0.45516   0.00000  Uiso   1.00
O54    O     0.03950   0.14758   0.43246   0.00000  Uiso   1.00
O55    O     0.03440   0.07756   0.46038   0.00000  Uiso   1.00
H56    H     0.00646   0.07555   0.44381   0.00000  Uiso   1.00
C57    C     0.27839   0.21459   0.04514   0.00000  Uiso   1.00
O58    O     0.29716   0.25042   0.04042   0.00000  Uiso   1.00
O59    O     0.29583   0.18177   0.07165   0.00000  Uiso   1.00
H60    H     0.32377   0.19187   0.08561   0.00000  Uiso   1.00
C61    C     0.06767   0.10039   0.04807   0.00000  Uiso   1.00
O62    O     0.03488   0.11887   0.05365   0.00000  Uiso   1.00
O63    O     0.07355   0.05753   0.06429   0.00000  Uiso   1.00
H64    H     0.04823   0.04504   0.07988   0.00000  Uiso   1.00
C65    C     0.26628   0.23286   0.45191   0.00000  Uiso   1.00
O66    O     0.26103   0.26959   0.43587   0.00000  Uiso   1.00
O67    O     0.30427   0.21213   0.44774   0.00000  Uiso   1.00
H68    H     0.32520   0.23098   0.43094   0.00000  Uiso   1.00
N69    N     0.03935   0.09920   0.20031   0.00000  Uiso   1.00
O70    O     0.04710   0.06108   0.21840   0.00000  Uiso   1.00
O71    O     0.04075   0.10283   0.15715   0.00000  Uiso   1.00
N72    N     0.29396   0.23437   0.29931   0.00000  Uiso   1.00
O73    O     0.28616   0.27243   0.28113   0.00000  Uiso   1.00
O74    O     0.29242   0.23078   0.34246   0.00000  Uiso   1.00
N75    N     0.28641   0.10377   0.19409   0.00000  Uiso   1.00
O76    O     0.26206   0.11816   0.16251   0.00000  Uiso   1.00
O77    O     0.28986   0.06086   0.19870   0.00000  Uiso   1.00
N78    N     0.04688   0.22993   0.30541   0.00000  Uiso   1.00
O79    O     0.07110   0.21577   0.33721   0.00000  Uiso   1.00
O80    O     0.04349   0.27279   0.30043   0.00000  Uiso   1.00
N81    N     0.20041   0.04985   0.32356   0.00000  Uiso   1.00
O82    O     0.18654   0.04522   0.36367   0.00000  Uiso   1.00
O83    O     0.23626   0.07029   0.31854   0.00000  Uiso   1.00
N84    N     0.13312   0.28349   0.17635   0.00000  Uiso   1.00
O85    O     0.14729   0.28793   0.13634   0.00000  Uiso   1.00
O86    O     0.09722   0.26311   0.18118   0.00000  Uiso   1.00
N87    N     0.14475   0.04345   0.17166   0.00000  Uiso   1.00
O88    O     0.10659   0.04238   0.15627   0.00000  Uiso   1.00
O89    O     0.17463   0.04909   0.14368   0.00000  Uiso   1.00
N90    N     0.18866   0.28989   0.32835   0.00000  Uiso   1.00
O91    O     0.22680   0.29113   0.34384   0.00000  Uiso   1.00
O92    O     0.15874   0.28414   0.35626   0.00000  Uiso   1.00
O93    O     0.43892   0.20487   0.24999   0.00000  Uiso   1.00
O94    O     0.56108   0.12846   0.25001   0.00000  Uiso   1.00
O95    O     0.56108   0.20487   0.25000   0.00000  Uiso   1.00
O96    O     0.43892   0.12846   0.25000   0.00000  Uiso   1.00
C97    C     0.42015   0.16598   0.25057   0.00000  Uiso   1.00
C98    C     0.57984   0.16737   0.24930   0.00000  Uiso   1.00
O99    O     0.49999   0.20489   0.18392   0.00000  Uiso   1.00
O100   O     0.50001   0.12844   0.31608   0.00000  Uiso   1.00
O101   O     0.50001   0.20489   0.31607   0.00000  Uiso   1.00
O102   O     0.49999   0.12844   0.18392   0.00000  Uiso   1.00
C103   C     0.50151   0.16634   0.16374   0.00000  Uiso   1.00
C104   C     0.49851   0.16698   0.33629   0.00000  Uiso   1.00
Zn105  Zn    0.50000   0.21771   0.25000   0.00000  Uiso   1.00
Zn106  Zn    0.50000   0.11563   0.25000   0.00000  Uiso   1.00
C107   C     0.52649   0.19329   0.40740   0.00000  Uiso   1.00
C108   C     0.47386   0.14010   0.09259   0.00000  Uiso   1.00
C109   C     0.49599   0.16792   0.38404   0.00000  Uiso   1.00
C110   C     0.50432   0.16537   0.11604   0.00000  Uiso   1.00
C111   C     0.46581   0.14215   0.40597   0.00000  Uiso   1.00
C112   C     0.53474   0.19105   0.09428   0.00000  Uiso   1.00
C113   C     0.46439   0.14597   0.45303   0.00000  Uiso   1.00
C114   C     0.53605   0.18764   0.04714   0.00000  Uiso   1.00
C115   C     0.49871   0.16778   0.47674   0.00000  Uiso   1.00
C116   C     0.50166   0.16597   0.02339   0.00000  Uiso   1.00
C117   C     0.53006   0.19147   0.45365   0.00000  Uiso   1.00
C118   C     0.47030   0.14218   0.04641   0.00000  Uiso   1.00
C119   C     0.43036   0.12803   0.47706   0.00000  Uiso   1.00
C120   C     0.57004   0.20566   0.02308   0.00000  Uiso   1.00
C121   C     0.43475   0.12327   0.02345   0.00000  Uiso   1.00
C122   C     0.56562   0.21045   0.47662   0.00000  Uiso   1.00
H123   H     0.54955   0.21139   0.38848   0.00000  Uiso   1.00
H124   H     0.45077   0.12185   0.11137   0.00000  Uiso   1.00
C125   C     0.35278   0.13266   0.22603   0.00000  Uiso   1.00
C126   C     0.64719   0.20083   0.27367   0.00000  Uiso   1.00
C127   C     0.64334   0.13502   0.22294   0.00000  Uiso   1.00
C128   C     0.35663   0.19850   0.27674   0.00000  Uiso   1.00
C129   C     0.62407   0.16868   0.24753   0.00000  Uiso   1.00
C130   C     0.37590   0.16476   0.25222   0.00000  Uiso   1.00
C131   C     0.51431   0.02533   0.28657   0.00000  Uiso   1.00
C132   C     0.48576   0.30801   0.21340   0.00000  Uiso   1.00
C133   C     0.48730   0.02233   0.21282   0.00000  Uiso   1.00
C134   C     0.51276   0.31100   0.28718   0.00000  Uiso   1.00
N135   N     0.50000   0.28573   0.25000   0.00000  Uiso   1.00
N136   N     0.50000   0.04760   0.25000   0.00000  Uiso   1.00
C137   C     0.43932   0.10822   0.38014   0.00000  Uiso   1.00
O138   O     0.43858   0.06910   0.39137   0.00000  Uiso   1.00
O139   O     0.41493   0.12103   0.34362   0.00000  Uiso   1.00
H140   H     0.39811   0.09497   0.32919   0.00000  Uiso   1.00
C141   C     0.56152   0.22458   0.12037   0.00000  Uiso   1.00
O142   O     0.58200   0.21323   0.15294   0.00000  Uiso   1.00
O143   O     0.56335   0.26920   0.10719   0.00000  Uiso   1.00
H144   H     0.58243   0.28886   0.12745   0.00000  Uiso   1.00
C145   C     0.38867   0.11885   0.45516   0.00000  Uiso   1.00
O146   O     0.37284   0.14758   0.43246   0.00000  Uiso   1.00
O147   O     0.36773   0.07756   0.46038   0.00000  Uiso   1.00
H148   H     0.33979   0.07555   0.44381   0.00000  Uiso   1.00
C149   C     0.61172   0.21459   0.04514   0.00000  Uiso   1.00
O150   O     0.63050   0.25042   0.04042   0.00000  Uiso   1.00
O151   O     0.62917   0.18177   0.07165   0.00000  Uiso   1.00
H152   H     0.65711   0.19187   0.08561   0.00000  Uiso   1.00
C153   C     0.40101   0.10039   0.04807   0.00000  Uiso   1.00
O154   O     0.36821   0.11887   0.05365   0.00000  Uiso   1.00
O155   O     0.40689   0.05753   0.06429   0.00000  Uiso   1.00
H156   H     0.38157   0.04504   0.07988   0.00000  Uiso   1.00
C157   C     0.59961   0.23286   0.45191   0.00000  Uiso   1.00
O158   O     0.59436   0.26959   0.43587   0.00000  Uiso   1.00
O159   O     0.63760   0.21213   0.44774   0.00000  Uiso   1.00
H160   H     0.65854   0.23098   0.43094   0.00000  Uiso   1.00
N161   N     0.37268   0.09920   0.20031   0.00000  Uiso   1.00
O162   O     0.38043   0.06108   0.21840   0.00000  Uiso   1.00
O163   O     0.37408   0.10283   0.15715   0.00000  Uiso   1.00
N164   N     0.62729   0.23437   0.29931   0.00000  Uiso   1.00
O165   O     0.61950   0.27243   0.28113   0.00000  Uiso   1.00
O166   O     0.62576   0.23078   0.34246   0.00000  Uiso   1.00
N167   N     0.61974   0.10377   0.19409   0.00000  Uiso   1.00
O168   O     0.59540   0.11816   0.16251   0.00000  Uiso   1.00
O169   O     0.62319   0.06086   0.19870   0.00000  Uiso   1.00
N170   N     0.38021   0.22993   0.30541   0.00000  Uiso   1.00
O171   O     0.40444   0.21577   0.33721   0.00000  Uiso   1.00
O172   O     0.37682   0.27279   0.30043   0.00000  Uiso   1.00
N173   N     0.53374   0.04985   0.32356   0.00000  Uiso   1.00
O174   O     0.51988   0.04522   0.36367   0.00000  Uiso   1.00
O175   O     0.56960   0.07029   0.31854   0.00000  Uiso   1.00
N176   N     0.46646   0.28349   0.17635   0.00000  Uiso   1.00
O177   O     0.48063   0.28793   0.13634   0.00000  Uiso   1.00
O178   O     0.43055   0.26311   0.18118   0.00000  Uiso   1.00
N179   N     0.47809   0.04345   0.17166   0.00000  Uiso   1.00
O180   O     0.43992   0.04238   0.15627   0.00000  Uiso   1.00
O181   O     0.50797   0.04909   0.14368   0.00000  Uiso   1.00
N182   N     0.52199   0.28989   0.32835   0.00000  Uiso   1.00
O183   O     0.56013   0.29113   0.34384   0.00000  Uiso   1.00
O184   O     0.49208   0.28414   0.35626   0.00000  Uiso   1.00
O185   O     0.77226   0.20487   0.24999   0.00000  Uiso   1.00
O186   O     0.89441   0.12846   0.25001   0.00000  Uiso   1.00
O187   O     0.89441   0.20487   0.25000   0.00000  Uiso   1.00
O188   O     0.77226   0.12846   0.25000   0.00000  Uiso   1.00
C189   C     0.75349   0.16598   0.25057   0.00000  Uiso   1.00
C190   C     0.91317   0.16737   0.24930   0.00000  Uiso   1.00
O191   O     0.83333   0.20489   0.18392   0.00000  Uiso   1.00
O192   O     0.83334   0.12844   0.31608   0.00000  Uiso   1.00
O193   O     0.83334   0.20489   0.31607   0.00000  Uiso   1.00
O194   O     0.83333   0.12844   0.18392   0.00000  Uiso   1.00
C195   C     0.83485   0.16634   0.16374   0.00000  Uiso   1.00
C196   C     0.83184   0.16698   0.33629   0.00000  Uiso   1.00
Zn197  Zn    0.83333   0.21771   0.25000   0.00000  Uiso   1.00
Zn198  Zn    0.83333   0.11563   0.25000   0.00000  Uiso   1.00
C199   C     0.85983   0.19329   0.40740   0.00000  Uiso   1.00
C200   C     0.80719   0.14010   0.09259   0.00000  Uiso   1.00
C201   C     0.82933   0.16792   0.38404   0.00000  Uiso   1.00
C202   C     0.83765   0.16537   0.11604   0.00000  Uiso   1.00
C203   C     0.79915   0.14215   0.40597   0.00000  Uiso   1.00
C204   C     0.86807   0.19105   0.09428   0.00000  Uiso   1.00
C205   C     0.79772   0.14597   0.45303   0.00000  Uiso   1.00
C206   C     0.86938   0.18764   0.04714   0.00000  Uiso   1.00
C207   C     0.83204   0.16778   0.47674   0.00000  Uiso   1.00
C208   C     0.83499   0.16597   0.02339   0.00000  Uiso   1.00
C209   C     0.86339   0.19147   0.45365   0.00000  Uiso   1.00
C210   C     0.80364   0.14218   0.04641   0.00000  Uiso   1.00
C211   C     0.76370   0.12803   0.47706   0.00000  Uiso   1.00
C212   C     0.90337   0.20566   0.02308   0.00000  Uiso   1.00
C213   C     0.76808   0.12327   0.02345   0.00000  Uiso   1.00
C214   C     0.89895   0.21045   0.47662   0.00000  Uiso   1.00
H215   H     0.88289   0.21139   0.38848   0.00000  Uiso   1.00
H216   H     0.78410   0.12185   0.11137   0.00000  Uiso   1.00
C217   C     0.68612   0.13266   0.22603   0.00000  Uiso   1.00
C218   C     0.98052   0.20083   0.27367   0.00000  Uiso   1.00
C219   C     0.97667   0.13502   0.22294   0.00000  Uiso   1.00
C220   C     0.68996   0.19850   0.27674   0.00000  Uiso   1.00
C221   C     0.95741   0.16868   0.24753   0.00000  Uiso   1.00
C222   C     0.70924   0.16476   0.25222   0.00000  Uiso   1.00
C223   C     0.84764   0.02533   0.28657   0.00000  Uiso   1.00
C224   C     0.81909   0.30801   0.21340   0.00000  Uiso   1.00
C225   C     0.82063   0.02233   0.21282   0.00000  Uiso   1.00
C226   C     0.84610   0.31100   0.28718   0.00000  Uiso   1.00
N227   N     0.83333   0.28573   0.25000   0.00000  Uiso   1.00
N228   N     0.83333   0.04760   0.25000   0.00000  Uiso   1.00
C229   C     0.77265   0.10822   0.38014   0.00000  Uiso   1.00
O230   O     0.77191   0.06910   0.39137   0.00000  Uiso   1.00
O231   O     0.74826   0.12103   0.34362   0.00000  Uiso   1.00
H232   H     0.73145   0.09497   0.32919   0.00000  Uiso   1.00
C233   C     0.89485   0.22458   0.12037   0.00000  Uiso   1.00
O234   O     0.91534   0.21323   0.15294   0.00000  Uiso   1.00
O235   O     0.89668   0.26920   0.10719   0.00000  Uiso   1.00
H236   H     0.91576   0.28886   0.12745   0.00000  Uiso   1.00
C237   C     0.72200   0.11885   0.45516   0.00000  Uiso   1.00
O238   O     0.70617   0.14758   0.43246   0.00000  Uiso   1.00
O239   O     0.70106   0.07756   0.46038   0.00000  Uiso   1.00
H240   H     0.67312   0.07555   0.44381   0.00000  Uiso   1.00
C241   C     0.94506   0.21459   0.04514   0.00000  Uiso   1.00
O242   O     0.96383   0.25042   0.04042   0.00000  Uiso   1.00
O243   O     0.96250   0.18177   0.07165   0.00000  Uiso   1.00
H244   H     0.99044   0.19187   0.08561   0.00000  Uiso   1.00
C245   C     0.73434   0.10039   0.04807   0.00000  Uiso   1.00
O246   O     0.70155   0.11887   0.05365   0.00000  Uiso   1.00
O247   O     0.74022   0.05753   0.06429   0.00000  Uiso   1.00
H248   H     0.71490   0.04504   0.07988   0.00000  Uiso   1.00
C249   C     0.93294   0.23286   0.45191   0.00000  Uiso   1.00
O250   O     0.92770   0.26959   0.43587   0.00000  Uiso   1.00
O251   O     0.97094   0.21213   0.44774   0.00000  Uiso   1.00
H252   H     0.99187   0.23098   0.43094   0.00000  Uiso   1.00
N253   N     0.70602   0.09920   0.20031   0.00000  Uiso   1.00
O254   O     0.71377   0.06108   0.21840   0.00000  Uiso   1.00
O255   O     0.70742   0.10283   0.15715   0.00000  Uiso   1.00
N256   N     0.96063   0.23437   0.29931   0.00000  Uiso   1.00
O257   O     0.95283   0.27243   0.28113   0.00000  Uiso   1.00
O258   O     0.95909   0.23078   0.34246   0.00000  Uiso   1.00
N259   N     0.95307   0.10377   0.19409   0.00000  Uiso   1.00
O260   O     0.92873   0.11816   0.16251   0.00000  Uiso   1.00
O261   O     0.95653   0.06086   0.19870   0.00000  Uiso   1.00
N262   N     0.71355   0.22993   0.30541   0.00000  Uiso   1.00
O263   O     0.73777   0.21577   0.33721   0.00000  Uiso   1.00
O264   O     0.71016   0.27279   0.30043   0.00000  Uiso   1.00
N265   N     0.86708   0.04985   0.32356   0.00000  Uiso   1.00
O266   O     0.85321   0.04522   0.36367   0.00000  Uiso   1.00
O267   O     0.90293   0.07029   0.31854   0.00000  Uiso   1.00
N268   N     0.79979   0.28349   0.17635   0.00000  Uiso   1.00
O269   O     0.81396   0.28793   0.13634   0.00000  Uiso   1.00
O270   O     0.76388   0.26311   0.18118   0.00000  Uiso   1.00
N271   N     0.81142   0.04345   0.17166   0.00000  Uiso   1.00
O272   O     0.77326   0.04238   0.15627   0.00000  Uiso   1.00
O273   O     0.84130   0.04909   0.14368   0.00000  Uiso   1.00
N274   N     0.85533   0.28989   0.32835   0.00000  Uiso   1.00
O275   O     0.89346   0.29113   0.34384   0.00000  Uiso   1.00
O276   O     0.82541   0.28414   0.35626   0.00000  Uiso   1.00
O277   O     0.10559   0.53821   0.24999   0.00000  Uiso   1.00
O278   O     0.22774   0.46179   0.25001   0.00000  Uiso   1.00
O279   O     0.22774   0.53821   0.25000   0.00000  Uiso   1.00
O280   O     0.10559   0.46179   0.25000   0.00000  Uiso   1.00
C281   C     0.08682   0.49931   0.25057   0.00000  Uiso   1.00
C282   C     0.24650   0.50071   0.24930   0.00000  Uiso   1.00
O283   O     0.16666   0.53823   0.18392   0.00000  Uiso   1.00
O284   O     0.16667   0.46177   0.31608   0.00000  Uiso   1.00
O285   O     0.16667   0.53823   0.31607   0.00000  Uiso   1.00
O286   O     0.16666   0.46177   0.18392   0.00000  Uiso   1.00
C287   C     0.16818   0.49967   0.16374   0.00000  Uiso   1.00
C288   C     0.16517   0.50031   0.33629   0.00000  Uiso   1.00
Zn289  Zn    0.16667   0.55104   0.25000   0.00000  Uiso   1.00
Zn290  Zn    0.16667   0.44896   0.25000   0.00000  Uiso   1.00
C291   C     0.19316   0.52662   0.40740   0.00000  Uiso   1.00
C292   C     0.14052   0.47343   0.09259   0.00000  Uiso   1.00
C293   C     0.16266   0.50126   0.38404   0.00000  Uiso   1.00
C294   C     0.17099   0.49871   0.11604   0.00000  Uiso   1.00
C295   C     0.13248   0.47549   0.40597   0.00000  Uiso   1.00
C296   C     0.20140   0.52439   0.09428   0.00000  Uiso   1.00
C297   C     0.13106   0.47931   0.45303   0.00000  Uiso   1.00
C298   C     0.20271   0.52097   0.04714   0.00000  Uiso   1.00
C299   C     0.16538   0.50112   0.47674   0.00000  Uiso   1.00
C300   C     0.16832   0.49931   0.02339   0.00000  Uiso   1.00
C301   C     0.19672   0.52481   0.45365   0.00000  Uiso   1.00
C302   C     0.13697   0.47551   0.04641   0.00000  Uiso   1.00
C303   C     0.09703   0.46136   0.47706   0.00000  Uiso   1.00
C304   C     0.23670   0.53899   0.02308   0.00000  Uiso   1.00
C305   C     0.10142   0.45660   0.02345   0.00000  Uiso   1.00
C306   C     0.23228   0.54378   0.47662   0.00000  Uiso   1.00
H307   H     0.21622   0.54472   0.38848   0.00000  Uiso   1.00
H308   H     0.11744   0.45519   0.11137   0.00000  Uiso   1.00
C309   C     0.01945   0.46600   0.22603   0.00000  Uiso   1.00
C310   C     0.31386   0.53416   0.27367   0.00000  Uiso   1.00
C311   C     0.31001   0.46835   0.22294   0.00000  Uiso   1.00
C312   C     0.02330   0.53183   0.27674   0.00000  Uiso   1.00
C313   C     0.29074   0.50202   0.24753   0.00000  Uiso   1.00
C314   C     0.04257   0.49809   0.25222   0.00000  Uiso   1.00
C315   C     0.18098   0.35866   0.28657   0.00000  Uiso   1.00
C316   C     0.15242   0.64134   0.21340   0.00000  Uiso   1.00
C317   C     0.15396   0.35567   0.21282   0.00000  Uiso   1.00
C318   C     0.17943   0.64433   0.28718   0.00000  Uiso   1.00
N319   N     0.16667   0.61907   0.25000   0.00000  Uiso   1.00
N320   N     0.16667   0.38093   0.25000   0.00000  Uiso   1.00
C321   C     0.10598   0.44155   0.38014   0.00000  Uiso   1.00
O322   O     0.10525   0.40243   0.39137   0.00000  Uiso   1.00
O323   O     0.08160   0.45436   0.34362   0.00000  Uiso   1.00
H324   H     0.06478   0.42830   0.32919   0.00000  Uiso   1.00
C325   C     0.22819   0.55792   0.12037   0.00000  Uiso   1.00
O326   O     0.24867   0.54657   0.15294   0.00000  Uiso   1.00
O327   O     0.23001   0.60253   0.10719   0.00000  Uiso   1.00
H328   H     0.24909   0.62219   0.12745   0.00000  Uiso   1.00
C329   C     0.05533   0.45218   0.45516   0.00000  Uiso   1.00
O330   O     0.03950   0.48091   0.43246   0.00000  Uiso   1.00
O331   O     0.03440   0.41089   0.46038   0.00000  Uiso   1.00
H332   H     0.00646   0.40889   0.44381   0.00000  Uiso   1.00
C333   C     0.27839   0.54792   0.04514   0.00000  Uiso   1.00
O334   O     0.29716   0.58375   0.04042   0.00000  Uiso   1.00
O335   O     0.29583   0.51510   0.07165   0.00000  Uiso   1.00
H336   H     0.32377   0.52520   0.08561   0.00000  Uiso   1.00
C337   C     0.06767   0.43372   0.04807   0.00000  Uiso   1.00
O338   O     0.03488   0.45220   0.05365   0.00000  Uiso   1.00
O339   O     0.07355   0.39087   0.06429   0.00000  Uiso   1.00
H340   H     0.04823   0.37838   0.07988   0.00000  Uiso   1.00
C341   C     0.26628   0.56619   0.45191   0.00000  Uiso   1.00
O342   O     0.26103   0.60292   0.43587   0.00000  Uiso   1.00
O343   O     0.30427   0.54546   0.44774   0.00000  Uiso   1.00
H344   H     0.32520   0.56431   0.43094   0.00000  Uiso   1.00
N345   N     0.03935   0.43253   0.20031   0.00000  Uiso   1.00
O346   O     0.04710   0.39441   0.21840   0.00000  Uiso   1.00
O347   O     0.04075   0.43617   0.15715   0.00000  Uiso   1.00
N348   N     0.29396   0.56770   0.29931   0.00000  Uiso   1.00
O349   O     0.28616   0.60576   0.28113   0.00000  Uiso   1.00
O350   O     0.29242   0.56411   0.34246   0.00000  Uiso   1.00
N351   N     0.28641   0.43710   0.19409   0.00000  Uiso   1.00
O352   O     0.26206   0.45149   0.16251   0.00000  Uiso   1.00
O353   O     0.28986   0.39420   0.19870   0.00000  Uiso   1.00
N354   N     0.04688   0.56326   0.30541   0.00000  Uiso   1.00
O355   O     0.07110   0.54910   0.33721   0.00000  Uiso   1.00
O356   O     0.04349   0.60613   0.30043   0.00000  Uiso   1.00
N357   N     0.20041   0.38319   0.32356   0.00000  Uiso   1.00
O358   O     0.18654   0.37855   0.36367   0.00000  Uiso   1.00
O359   O     0.23626   0.40362   0.31854   0.00000  Uiso   1.00
N360   N     0.13312   0.61683   0.17635   0.00000  Uiso   1.00
O361   O     0.14729   0.62126   0.13634   0.00000  Uiso   1.00
O362   O     0.09722   0.59644   0.18118   0.00000  Uiso   1.00
N363   N     0.14475   0.37678   0.17166   0.00000  Uiso   1.00
O364   O     0.10659   0.37571   0.15627   0.00000  Uiso   1.00
O365   O     0.17463   0.38243   0.14368   0.00000  Uiso   1.00
N366   N     0.18866   0.62322   0.32835   0.00000  Uiso   1.00
O367   O     0.22680   0.62446   0.34384   0.00000  Uiso   1.00
O368   O     0.15874   0.61747   0.35626   0.00000  Uiso   1.00
O369   O     0.43892   0.53821   0.24999   0.00000  Uiso   1.00
O370   O     0.56108   0.46179   0.25001   0.00000  Uiso   1.00
O371   O     0.56108   0.53821   0.25000   0.00000  Uiso   1.00
O372   O     0.43892   0.46179   0.25000   0.00000  Uiso   1.00
C373   C     0.42015   0.49931   0.25057   0.00000  Uiso   1.00
C374   C     0.57984   0.50071   0.24930   0.00000  Uiso   1.00
O375   O     0.49999   0.53823   0.18392   0.00000  Uiso   1.00
O376   O     0.50001   0.46177   0.31608   0.00000  Uiso   1.00
O377   O     0.50001   0.53823   0.31607   0.00000  Uiso   1.00
O378   O     0.49999   0.46177   0.18392   0.00000  Uiso   1.00
C379   C     0.50151   0.49967   0.16374   0.00000  Uiso   1.00
C380   C     0.49851   0.50031   0.33629   0.00000  Uiso   1.00
Zn381  Zn    0.50000   0.55104   0.25000   0.00000  Uiso   1.00
Zn382  Zn    0.50000   0.44896   0.25000   0.00000  Uiso   1.00
C383   C     0.52649   0.52662   0.40740   0.00000  Uiso   1.00
C384   C     0.47386   0.47343   0.09259   0.00000  Uiso   1.00
C385   C     0.49599   0.50126   0.38404   0.00000  Uiso   1.00
C386   C     0.50432   0.49871   0.11604   0.00000  Uiso   1.00
C387   C     0.46581   0.47549   0.40597   0.00000  Uiso   1.00
C388   C     0.53474   0.52439   0.09428   0.00000  Uiso   1.00
C389   C     0.46439   0.47931   0.45303   0.00000  Uiso   1.00
C390   C     0.53605   0.52097   0.04714   0.00000  Uiso   1.00
C391   C     0.49871   0.50112   0.47674   0.00000  Uiso   1.00
C392   C     0.50166   0.49931   0.02339   0.00000  Uiso   1.00
C393   C     0.53006   0.52481   0.45365   0.00000  Uiso   1.00
C394   C     0.47030   0.47551   0.04641   0.00000  Uiso   1.00
C395   C     0.43036   0.46136   0.47706   0.00000  Uiso   1.00
C396   C     0.57004   0.53899   0.02308   0.00000  Uiso   1.00
C397   C     0.43475   0.45660   0.02345   0.00000  Uiso   1.00
C398   C     0.56562   0.54378   0.47662   0.00000  Uiso   1.00
H399   H     0.54955   0.54472   0.38848   0.00000  Uiso   1.00
H400   H     0.45077   0.45519   0.11137   0.00000  Uiso   1.00
C401   C     0.35278   0.46600   0.22603   0.00000  Uiso   1.00
C402   C     0.64719   0.53416   0.27367   0.00000  Uiso   1.00
C403   C     0.64334   0.46835   0.22294   0.00000  Uiso   1.00
C404   C     0.35663   0.53183   0.27674   0.00000  Uiso   1.00
C405   C     0.62407   0.50202   0.24753   0.00000  Uiso   1.00
C406   C     0.37590   0.49809   0.25222   0.00000  Uiso   1.00
C407   C     0.51431   0.35866   0.28657   0.00000  Uiso   1.00
C408   C     0.48576   0.64134   0.21340   0.00000  Uiso   1.00
C409   C     0.48730   0.35567   0.21282   0.00000  Uiso   1.00
C410   C     0.51276   0.64433   0.28718   0.00000  Uiso   1.00
N411   N     0.50000   0.61907   0.25000   0.00000  Uiso   1.00
N412   N     0.50000   0.38093   0.25000   0.00000  Uiso   1.00
C413   C     0.43932   0.44155   0.38014   0.00000  Uiso   1.00
O414   O     0.43858   0.40243   0.39137   0.00000  Uiso   1.00
O415   O     0.41493   0.45436   0.34362   0.00000  Uiso   1.00
H416   H     0.39811   0.42830   0.32919   0.00000  Uiso   1.00
C417   C     0.56152   0.55792   0.12037   0.00000  Uiso   1.00
O418   O     0.58200   0.54657   0.15294   0.00000  Uiso   1.00
O419   O     0.56335   0.60253   0.10719   0.00000  Uiso   1.00
H420   H     0.58243   0.62219   0.12745   0.00000  Uiso   1.00
C421   C     0.38867   0.45218   0.45516   0.00000  Uiso   1.00
O422   O     0.37284   0.48091   0.43246   0.00000  Uiso   1.00
O423   O     0.36773   0.41089   0.46038   0.00000  Uiso   1.00
H424   H     0.33979   0.40889   0.44381   0.00000  Uiso   1.00
C425   C     0.61172   0.54792   0.04514   0.00000  Uiso   1.00
O426   O     0.63050   0.58375   0.04042   0.00000  Uiso   1.00
O427   O     0.62917   0.51510   0.07165   0.00000  Uiso   1.00
H428   H     0.65711   0.52520   0.08561   0.00000  Uiso   1.00
C429   C     0.40101   0.43372   0.04807   0.00000  Uiso   1.00
O430   O     0.36821   0.45220   0.05365   0.00000  Uiso   1.00
O431   O     0.40689   0.39087   0.06429   0.00000  Uiso   1.00
H432   H     0.38157   0.37838   0.07988   0.00000  Uiso   1.00
C433   C     0.59961   0.56619   0.45191   0.00000  Uiso   1.00
O434   O     0.59436   0.60292   0.43587   0.00000  Uiso   1.00
O435   O     0.63760   0.54546   0.44774   0.00000  Uiso   1.00
H436   H     0.65854   0.56431   0.43094   0.00000  Uiso   1.00
N437   N     0.37268   0.43253   0.20031   0.00000  Uiso   1.00
O438   O     0.38043   0.39441   0.21840   0.00000  Uiso   1.00
O439   O     0.37408   0.43617   0.15715   0.00000  Uiso   1.00
N440   N     0.62729   0.56770   0.29931   0.00000  Uiso   1.00
O441   O     0.61950   0.60576   0.28113   0.00000  Uiso   1.00
O442   O     0.62576   0.56411   0.34246   0.00000  Uiso   1.00
N443   N     0.61974   0.43710   0.19409   0.00000  Uiso   1.00
O444   O     0.59540   0.45149   0.16251   0.00000  Uiso   1.00
O445   O     0.62319   0.39420   0.19870   0.00000  Uiso   1.00
N446   N     0.38021   0.56326   0.30541   0.00000  Uiso   1.00
O447   O     0.40444   0.54910   0.33721   0.00000  Uiso   1.00
O448   O     0.37682   0.60613   0.30043   0.00000  Uiso   1.00
N449   N     0.53374   0.38319   0.32356   0.00000  Uiso   1.00
O450   O     0.51988   0.37855   0.36367   0.00000  Uiso   1.00
O451   O     0.56960   0.40362   0.31854   0.00000  Uiso   1.00
N452   N     0.46646   0.61683   0.17635   0.00000  Uiso   1.00
O453   O     0.48063   0.62126   0.13634   0.00000  Uiso   1.00
O454   O     0.43055   0.59644   0.18118   0.00000  Uiso   1.00
N455   N     0.47809   0.37678   0.17166   0.00000  Uiso   1.00
O456   O     0.43992   0.37571   0.15627   0.00000  Uiso   1.00
O457   O     0.50797   0.38243   0.14368   0.00000  Uiso   1.00
N458   N     0.52199   0.62322   0.32835   0.00000  Uiso   1.00
O459   O     0.56013   0.62446   0.34384   0.00000  Uiso   1.00
O460   O     0.49208   0.61747   0.35626   0.00000  Uiso   1.00
O461   O     0.77226   0.53821   0.24999   0.00000  Uiso   1.00
O462   O     0.89441   0.46179   0.25001   0.00000  Uiso   1.00
O463   O     0.89441   0.53821   0.25000   0.00000  Uiso   1.00
O464   O     0.77226   0.46179   0.25000   0.00000  Uiso   1.00
C465   C     0.75349   0.49931   0.25057   0.00000  Uiso   1.00
C466   C     0.91317   0.50071   0.24930   0.00000  Uiso   1.00
O467   O     0.83333   0.53823   0.18392   0.00000  Uiso   1.00
O468   O     0.83334   0.46177   0.31608   0.00000  Uiso   1.00
O469   O     0.83334   0.53823   0.31607   0.00000  Uiso   1.00
O470   O     0.83333   0.46177   0.18392   0.00000  Uiso   1.00
C471   C     0.83485   0.49967   0.16374   0.00000  Uiso   1.00
C472   C     0.83184   0.50031   0.33629   0.00000  Uiso   1.00
Zn473  Zn    0.83333   0.55104   0.25000   0.00000  Uiso   1.00
Zn474  Zn    0.83333   0.44896   0.25000   0.00000  Uiso   1.00
C475   C     0.85983   0.52662   0.40740   0.00000  Uiso   1.00
C476   C     0.80719   0.47343   0.09259   0.00000  Uiso   1.00
C477   C     0.82933   0.50126   0.38404   0.00000  Uiso   1.00
C478   C     0.83765   0.49871   0.11604   0.00000  Uiso   1.00
C479   C     0.79915   0.47549   0.40597   0.00000  Uiso   1.00
C480   C     0.86807   0.52439   0.09428   0.00000  Uiso   1.00
C481   C     0.79772   0.47931   0.45303   0.00000  Uiso   1.00
C482   C     0.86938   0.52097   0.04714   0.00000  Uiso   1.00
C483   C     0.83204   0.50112   0.47674   0.00000  Uiso   1.00
C484   C     0.83499   0.49931   0.02339   0.00000  Uiso   1.00
C485   C     0.86339   0.52481   0.45365   0.00000  Uiso   1.00
C486   C     0.80364   0.47551   0.04641   0.00000  Uiso   1.00
C487   C     0.76370   0.46136   0.47706   0.00000  Uiso   1.00
C488   C     0.90337   0.53899   0.02308   0.00000  Uiso   1.00
C489   C     0.76808   0.45660   0.02345   0.00000  Uiso   1.00
C490   C     0.89895   0.54378   0.47662   0.00000  Uiso   1.00
H491   H     0.88289   0.54472   0.38848   0.00000  Uiso   1.00
H492   H     0.78410   0.45519   0.11137   0.00000  Uiso   1.00
C493   C     0.68612   0.46600   0.22603   0.00000  Uiso   1.00
C494   C     0.98052   0.53416   0.27367   0.00000  Uiso   1.00
C495   C     0.97667   0.46835   0.22294   0.00000  Uiso   1.00
C496   C     0.68996   0.53183   0.27674   0.00000  Uiso   1.00
C497   C     0.95741   0.50202   0.24753   0.00000  Uiso   1.00
C498   C     0.70924   0.49809   0.25222   0.00000  Uiso   1.00
C499   C     0.84764   0.35866   0.28657   0.00000  Uiso   1.00
C500   C     0.81909   0.64134   0.21340   0.00000  Uiso   1.00
C501   C     0.82063   0.35567   0.21282   0.00000  Uiso   1.00
C502   C     0.84610   0.64433   0.28718   0.00000  Uiso   1.00
N503   N     0.83333   0.61907   0.25000   0.00000  Uiso   1.00
N504   N     0.83333   0.38093   0.25000   0.00000  Uiso   1.00
C505   C     0.77265   0.44155   0.38014   0.00000  Uiso   1.00
O506   O     0.77191   0.40243   0.39137   0.00000  Uiso   1.00
O507   O     0.74826   0.45436   0.34362   0.00000  Uiso   1.00
H508   H     0.73145   0.42830   0.32919   0.00000  Uiso   1.00
C509   C     0.89485   0.55792   0.12037   0.00000  Uiso   1.00
O510   O     0.91534   0.54657   0.15294   0.00000  Uiso   1.00
O511   O     0.89668   0.60253   0.10719   0.00000  Uiso   1.00
H512   H     0.91576   0.62219   0.12745   0.00000  Uiso   1.00
C513   C     0.72200   0.45218   0.45516   0.00000  Uiso   1.00
O514   O     0.70617   0.48091   0.43246   0.00000  Uiso   1.00
O515   O     0.70106   0.41089   0.46038   0.00000  Uiso   1.00
H516   H     0.67312   0.40889   0.44381   0.00000  Uiso   1.00
C517   C     0.94506   0.54792   0.04514   0.00000  Uiso   1.00
O518   O     0.96383   0.58375   0.04042   0.00000  Uiso   1.00
O519   O     0.96250   0.51510   0.07165   0.00000  Uiso   1.00
H520   H     0.99044   0.52520   0.08561   0.00000  Uiso   1.00
C521   C     0.73434   0.43372   0.04807   0.00000  Uiso   1.00
O522   O     0.70155   0.45220   0.05365   0.00000  Uiso   1.00
O523   O     0.74022   0.39087   0.06429   0.00000  Uiso   1.00
H524   H     0.71490   0.37838   0.07988   0.00000  Uiso   1.00
C525   C     0.93294   0.56619   0.45191   0.00000  Uiso   1.00
O526   O     0.92770   0.60292   0.43587   0.00000  Uiso   1.00
O527   O     0.97094   0.54546   0.44774   0.00000  Uiso   1.00
H528   H     0.99187   0.56431   0.43094   0.00000  Uiso   1.00
N529   N     0.70602   0.43253   0.20031   0.00000  Uiso   1.00
O530   O     0.71377   0.39441   0.21840   0.00000  Uiso   1.00
O531   O     0.70742   0.43617   0.15715   0.00000  Uiso   1.00
N532   N     0.96063   0.56770   0.29931   0.00000  Uiso   1.00
O533   O     0.95283   0.60576   0.28113   0.00000  Uiso   1.00
O534   O     0.95909   0.56411   0.34246   0.00000  Uiso   1.00
N535   N     0.95307   0.43710   0.19409   0.00000  Uiso   1.00
O536   O     0.92873   0.45149   0.16251   0.00000  Uiso   1.00
O537   O     0.95653   0.39420   0.19870   0.00000  Uiso   1.00
N538   N     0.71355   0.56326   0.30541   0.00000  Uiso   1.00
O539   O     0.73777   0.54910   0.33721   0.00000  Uiso   1.00
O540   O     0.71016   0.60613   0.30043   0.00000  Uiso   1.00
N541   N     0.86708   0.38319   0.32356   0.00000  Uiso   1.00
O542   O     0.85321   0.37855   0.36367   0.00000  Uiso   1.00
O543   O     0.90293   0.40362   0.31854   0.00000  Uiso   1.00
N544   N     0.79979   0.61683   0.17635   0.00000  Uiso   1.00
O545   O     0.81396   0.62126   0.13634   0.00000  Uiso   1.00
O546   O     0.76388   0.59644   0.18118   0.00000  Uiso   1.00
N547   N     0.81142   0.37678   0.17166   0.00000  Uiso   1.00
O548   O     0.77326   0.37571   0.15627   0.00000  Uiso   1.00
O549   O     0.84130   0.38243   0.14368   0.00000  Uiso   1.00
N550   N     0.85533   0.62322   0.32835   0.00000  Uiso   1.00
O551   O     0.89346   0.62446   0.34384   0.00000  Uiso   1.00
O552   O     0.82541   0.61747   0.35626   0.00000  Uiso   1.00
O553   O     0.10559   0.87154   0.24999   0.00000  Uiso   1.00
O554   O     0.22774   0.79513   0.25001   0.00000  Uiso   1.00
O555   O     0.22774   0.87154   0.25000   0.00000  Uiso   1.00
O556   O     0.10559   0.79513   0.25000   0.00000  Uiso   1.00
C557   C     0.08682   0.83264   0.25057   0.00000  Uiso   1.00
C558   C     0.24650   0.83404   0.24930   0.00000  Uiso   1.00
O559   O     0.16666   0.87156   0.18392   0.00000  Uiso   1.00
O560   O     0.16667   0.79511   0.31608   0.00000  Uiso   1.00
O561   O     0.16667   0.87156   0.31607   0.00000  Uiso   1.00
O562   O     0.16666   0.79511   0.18392   0.00000  Uiso   1.00
C563   C     0.16818   0.83301   0.16374   0.00000  Uiso   1.00
C564   C     0.16517   0.83365   0.33629   0.00000  Uiso   1.00
Zn565  Zn    0.16667   0.88437   0.25000   0.00000  Uiso   1.00
Zn566  Zn    0.16667   0.78229   0.25000   0.00000  Uiso   1.00
C567   C     0.19316   0.85996   0.40740   0.00000  Uiso   1.00
C568   C     0.14052   0.80676   0.09259   0.00000  Uiso   1.00
C569   C     0.16266   0.83459   0.38404   0.00000  Uiso   1.00
C570   C     0.17099   0.83204   0.11604   0.00000  Uiso   1.00
C571   C     0.13248   0.80882   0.40597   0.00000  Uiso   1.00
C572   C     0.20140   0.85772   0.09428   0.00000  Uiso   1.00
C573   C     0.13106   0.81264   0.45303   0.00000  Uiso   1.00
C574   C     0.20271   0.85431   0.04714   0.00000  Uiso   1.00
C575   C     0.16538   0.83445   0.47674   0.00000  Uiso   1.00
C576   C     0.16832   0.83264   0.02339   0.00000  Uiso   1.00
C577   C     0.19672   0.85814   0.45365   0.00000  Uiso   1.00
C578   C     0.13697   0.80885   0.04641   0.00000  Uiso   1.00
C579   C     0.09703   0.79470   0.47706   0.00000  Uiso   1.00
C580   C     0.23670   0.87232   0.02308   0.00000  Uiso   1.00
C581   C     0.10142   0.78993   0.02345   0.00000  Uiso   1.00
C582   C     0.23228   0.87712   0.47662   0.00000  Uiso   1.00
H583   H     0.21622   0.87805   0.38848   0.00000  Uiso   1.00
H584   H     0.11744   0.78852   0.11137   0.00000  Uiso   1.00
C585   C     0.01945   0.79933   0.22603   0.00000  Uiso   1.00
C586   C     0.31386   0.86750   0.27367   0.00000  Uiso   1.00
C587   C     0.31001   0.80168   0.22294   0.00000  Uiso   1.00
C588   C     0.02330   0.86516   0.27674   0.00000  Uiso   1.00
C589   C     0.29074   0.83535   0.24753   0.00000  Uiso   1.00
C590   C     0.04257   0.83143   0.25222   0.00000  Uiso   1.00
C591   C     0.18098   0.69200   0.28657   0.00000  Uiso   1.00
C592   C     0.15242   0.97468   0.21340   0.00000  Uiso   1.00
C593   C     0.15396   0.68900   0.21282   0.00000  Uiso   1.00
C594   C     0.17943   0.97767   0.28718   0.00000  Uiso   1.00
N595   N     0.16667   0.95240   0.25000   0.00000  Uiso   1.00
N596   N     0.16667   0.71427   0.25000   0.00000  Uiso   1.00
C597   C     0.10598   0.77488   0.38014   0.00000  Uiso   1.00
O598   O     0.10525   0.73577   0.39137   0.00000  Uiso   1.00
O599   O     0.08160   0.78769   0.34362   0.00000  Uiso   1.00
H600   H     0.06478   0.76163   0.32919   0.00000  Uiso   1.00
C601   C     0.22819   0.89125   0.12037   0.00000  Uiso   1.00
O602   O     0.24867   0.87990   0.15294   0.00000  Uiso   1.00
O603   O     0.23001   0.93586   0.10719   0.00000  Uiso   1.00
H604   H     0.24909   0.95552   0.12745   0.00000  Uiso   1.00
C605   C     0.05533   0.78551   0.45516   0.00000  Uiso   1.00
O606   O     0.03950   0.81425   0.43246   0.00000  Uiso   1.00
O607   O     0.03440   0.74423   0.46038   0.00000  Uiso   1.00
H608   H     0.00646   0.74222   0.44381   0.00000  Uiso   1.00
C609   C     0.27839   0.88126   0.04514   0.00000  Uiso   1.00
O610   O     0.29716   0.91708   0.04042   0.00000  Uiso   1.00
O611   O     0.29583   0.84843   0.07165   0.00000  Uiso   1.00
H612   H     0.32377   0.85854   0.08561   0.00000  Uiso   1.00
C613   C     0.06767   0.76706   0.04807   0.00000  Uiso   1.00
O614   O     0.03488   0.78553   0.05365   0.00000  Uiso   1.00
O615   O     0.07355   0.72420   0.06429   0.00000  Uiso   1.00
H616   H     0.04823   0.71171   0.07988   0.00000  Uiso   1.00
C617   C     0.26628   0.89953   0.45191   0.00000  Uiso   1.00
O618   O     0.26103   0.93625   0.43587   0.00000  Uiso   1.00
O619   O     0.30427   0.87879   0.44774   0.00000  Uiso   1.00
H620   H     0.32520   0.89764   0.43094   0.00000  Uiso   1.00
N621   N     0.03935   0.76586   0.20031   0.00000  Uiso   1.00
O622   O     0.04710   0.72775   0.21840   0.00000  Uiso   1.00
O623   O     0.04075   0.76950   0.15715   0.00000  Uiso   1.00
N624   N     0.29396   0.90103   0.29931   0.00000  Uiso   1.00
O625   O     0.28616   0.93910   0.28113   0.00000  Uiso   1.00
O626   O     0.29242   0.89744   0.34246   0.00000  Uiso   1.00
N627   N     0.28641   0.77044   0.19409   0.00000  Uiso   1.00
O628   O     0.26206   0.78483   0.16251   0.00000  Uiso   1.00
O629   O     0.28986   0.72753   0.19870   0.00000  Uiso   1.00
N630   N     0.04688   0.89659   0.30541   0.00000  Uiso   1.00
O631   O     0.07110   0.88244   0.33721   0.00000  Uiso   1.00
O632   O     0.04349   0.93946   0.30043   0.00000  Uiso   1.00
N633   N     0.20041   0.71652   0.32356   0.00000  Uiso   1.00
O634   O     0.18654   0.71189   0.36367   0.00000  Uiso   1.00
O635   O     0.23626   0.73695   0.31854   0.00000  Uiso   1.00
N636   N     0.13312   0.95016   0.17635   0.00000  Uiso   1.00
O637   O     0.14729   0.95459   0.13634   0.00000  Uiso   1.00
O638   O     0.09722   0.92978   0.18118   0.00000  Uiso   1.00
N639   N     0.14475   0.71011   0.17166   0.00000  Uiso   1.00
O640   O     0.10659   0.70904   0.15627   0.00000  Uiso   1.00
O641   O     0.17463   0.71576   0.14368   0.00000  Uiso   1.00
N642   N     0.18866   0.95655   0.32835   0.00000  Uiso   1.00
O643   O     0.22680   0.95779   0.34384   0.00000  Uiso   1.00
O644   O     0.15874   0.95080   0.35626   0.00000  Uiso   1.00
O645   O     0.43892   0.87154   0.24999   0.00000  Uiso   1.00
O646   O     0.56108   0.79513   0.25001   0.00000  Uiso   1.00
O647   O     0.56108   0.87154   0.25000   0.00000  Uiso   1.00
O648   O     0.43892   0.79513   0.25000   0.00000  Uiso   1.00
C649   C     0.42015   0.83264   0.25057   0.00000  Uiso   1.00
C650   C     0.57984   0.83404   0.24930   0.00000  Uiso   1.00
O651   O     0.49999   0.87156   0.18392   0.00000  Uiso   1.00
O652   O     0.50001   0.79511   0.31608   0.00000  Uiso   1.00
O653   O     0.50001   0.87156   0.31607   0.00000  Uiso   1.00
O654   O     0.49999   0.79511   0.18392   0.00000  Uiso   1.00
C655   C     0.50151   0.83301   0.16374   0.00000  Uiso   1.00
C656   C     0.49851   0.83365   0.33629   0.00000  Uiso   1.00
Zn657  Zn    0.50000   0.88437   0.25000   0.00000  Uiso   1.00
Zn658  Zn    0.50000   0.78229   0.25000   0.00000  Uiso   1.00
C659   C     0.52649   0.85996   0.40740   0.00000  Uiso   1.00
C660   C     0.47386   0.80676   0.09259   0.00000  Uiso   1.00
C661   C     0.49599   0.83459   0.38404   0.00000  Uiso   1.00
C662   C     0.50432   0.83204   0.11604   0.00000  Uiso   1.00
C663   C     0.46581   0.80882   0.40597   0.00000  Uiso   1.00
C664   C     0.53474   0.85772   0.09428   0.00000  Uiso   1.00
C665   C     0.46439   0.81264   0.45303   0.00000  Uiso   1.00
C666   C     0.53605   0.85431   0.04714   0.00000  Uiso   1.00
C667   C     0.49871   0.83445   0.47674   0.00000  Uiso   1.00
C668   C     0.50166   0.83264   0.02339   0.00000  Uiso   1.00
C669   C     0.53006   0.85814   0.45365   0.00000  Uiso   1.00
C670   C     0.47030   0.80885   0.04641   0.00000  Uiso   1.00
C671   C     0.43036   0.79470   0.47706   0.00000  Uiso   1.00
C672   C     0.57004   0.87232   0.02308   0.00000  Uiso   1.00
C673   C     0.43475   0.78993   0.02345   0.00000  Uiso   1.00
C674   C     0.56562   0.87712   0.47662   0.00000  Uiso   1.00
H675   H     0.54955   0.87805   0.38848   0.00000  Uiso   1.00
H676   H     0.45077   0.78852   0.11137   0.00000  Uiso   1.00
C677   C     0.35278   0.79933   0.22603   0.00000  Uiso   1.00
C678   C     0.64719   0.86750   0.27367   0.00000  Uiso   1.00
C679   C     0.64334   0.80168   0.22294   0.00000  Uiso   1.00
C680   C     0.35663   0.86516   0.27674   0.00000  Uiso   1.00
C681   C     0.62407   0.83535   0.24753   0.00000  Uiso   1.00
C682   C     0.37590   0.83143   0.25222   0.00000  Uiso   1.00
C683   C     0.51431   0.69200   0.28657   0.00000  Uiso   1.00
C684   C     0.48576   0.97468   0.21340   0.00000  Uiso   1.00
C685   C     0.48730   0.68900   0.21282   0.00000  Uiso   1.00
C686   C     0.51276   0.97767   0.28718   0.00000  Uiso   1.00
N687   N     0.50000   0.95240   0.25000   0.00000  Uiso   1.00
N688   N     0.50000   0.71427   0.25000   0.00000  Uiso   1.00
C689   C     0.43932   0.77488   0.38014   0.00000  Uiso   1.00
O690   O     0.43858   0.73577   0.39137   0.00000  Uiso   1.00
O691   O     0.41493   0.78769   0.34362   0.00000  Uiso   1.00
H692   H     0.39811   0.76163   0.32919   0.00000  Uiso   1.00
C693   C     0.56152   0.89125   0.12037   0.00000  Uiso   1.00
O694   O     0.58200   0.87990   0.15294   0.00000  Uiso   1.00
O695   O     0.56335   0.93586   0.10719   0.00000  Uiso   1.00
H696   H     0.58243   0.95552   0.12745   0.00000  Uiso   1.00
C697   C     0.38867   0.78551   0.45516   0.00000  Uiso   1.00
O698   O     0.37284   0.81425   0.43246   0.00000  Uiso   1.00
O699   O     0.36773   0.74423   0.46038   0.00000  Uiso   1.00
H700   H     0.33979   0.74222   0.44381   0.00000  Uiso   1.00
C701   C     0.61172   0.88126   0.04514   0.00000  Uiso   1.00
O702   O     0.63050   0.91708   0.04042   0.00000  Uiso   1.00
O703   O     0.62917   0.84843   0.07165   0.00000  Uiso   1.00
H704   H     0.65711   0.85854   0.08561   0.00000  Uiso   1.00
C705   C     0.40101   0.76706   0.04807   0.00000  Uiso   1.00
O706   O     0.36821   0.78553   0.05365   0.00000  Uiso   1.00
O707   O     0.40689   0.72420   0.06429   0.00000  Uiso   1.00
H708   H     0.38157   0.71171   0.07988   0.00000  Uiso   1.00
C709   C     0.59961   0.89953   0.45191   0.00000  Uiso   1.00
O710   O     0.59436   0.93625   0.43587   0.00000  Uiso   1.00
O711   O     0.63760   0.87879   0.44774   0.00000  Uiso   1.00
H712   H     0.65854   0.89764   0.43094   0.00000  Uiso   1.00
N713   N     0.37268   0.76586   0.20031   0.00000  Uiso   1.00
O714   O     0.38043   0.72775   0.21840   0.00000  Uiso   1.00
O715   O     0.37408   0.76950   0.15715   0.00000  Uiso   1.00
N716   N     0.62729   0.90103   0.29931   0.00000  Uiso   1.00
O717   O     0.61950   0.93910   0.28113   0.00000  Uiso   1.00
O718   O     0.62576   0.89744   0.34246   0.00000  Uiso   1.00
N719   N     0.61974   0.77044   0.19409   0.00000  Uiso   1.00
O720   O     0.59540   0.78483   0.16251   0.00000  Uiso   1.00
O721   O     0.62319   0.72753   0.19870   0.00000  Uiso   1.00
N722   N     0.38021   0.89659   0.30541   0.00000  Uiso   1.00
O723   O     0.40444   0.88244   0.33721   0.00000  Uiso   1.00
O724   O     0.37682   0.93946   0.30043   0.00000  Uiso   1.00
N725   N     0.53374   0.71652   0.32356   0.00000  Uiso   1.00
O726   O     0.51988   0.71189   0.36367   0.00000  Uiso   1.00
O727   O     0.56960   0.73695   0.31854   0.00000  Uiso   1.00
N728   N     0.46646   0.95016   0.17635   0.00000  Uiso   1.00
O729   O     0.48063   0.95459   0.13634   0.00000  Uiso   1.00
O730   O     0.43055   0.92978   0.18118   0.00000  Uiso   1.00
N731   N     0.47809   0.71011   0.17166   0.00000  Uiso   1.00
O732   O     0.43992   0.70904   0.15627   0.00000  Uiso   1.00
O733   O     0.50797   0.71576   0.14368   0.00000  Uiso   1.00
N734   N     0.52199   0.95655   0.32835   0.00000  Uiso   1.00
O735   O     0.56013   0.95779   0.34384   0.00000  Uiso   1.00
O736   O     0.49208   0.95080   0.35626   0.00000  Uiso   1.00
O737   O     0.77226   0.87154   0.24999   0.00000  Uiso   1.00
O738   O     0.89441   0.79513   0.25001   0.00000  Uiso   1.00
O739   O     0.89441   0.87154   0.25000   0.00000  Uiso   1.00
O740   O     0.77226   0.79513   0.25000   0.00000  Uiso   1.00
C741   C     0.75349   0.83264   0.25057   0.00000  Uiso   1.00
C742   C     0.91317   0.83404   0.24930   0.00000  Uiso   1.00
O743   O     0.83333   0.87156   0.18392   0.00000  Uiso   1.00
O744   O     0.83334   0.79511   0.31608   0.00000  Uiso   1.00
O745   O     0.83334   0.87156   0.31607   0.00000  Uiso   1.00
O746   O     0.83333   0.79511   0.18392   0.00000  Uiso   1.00
C747   C     0.83485   0.83301   0.16374   0.00000  Uiso   1.00
C748   C     0.83184   0.83365   0.33629   0.00000  Uiso   1.00
Zn749  Zn    0.83333   0.88437   0.25000   0.00000  Uiso   1.00
Zn750  Zn    0.83333   0.78229   0.25000   0.00000  Uiso   1.00
C751   C     0.85983   0.85996   0.40740   0.00000  Uiso   1.00
C752   C     0.80719   0.80676   0.09259   0.00000  Uiso   1.00
C753   C     0.82933   0.83459   0.38404   0.00000  Uiso   1.00
C754   C     0.83765   0.83204   0.11604   0.00000  Uiso   1.00
C755   C     0.79915   0.80882   0.40597   0.00000  Uiso   1.00
C756   C     0.86807   0.85772   0.09428   0.00000  Uiso   1.00
C757   C     0.79772   0.81264   0.45303   0.00000  Uiso   1.00
C758   C     0.86938   0.85431   0.04714   0.00000  Uiso   1.00
C759   C     0.83204   0.83445   0.47674   0.00000  Uiso   1.00
C760   C     0.83499   0.83264   0.02339   0.00000  Uiso   1.00
C761   C     0.86339   0.85814   0.45365   0.00000  Uiso   1.00
C762   C     0.80364   0.80885   0.04641   0.00000  Uiso   1.00
C763   C     0.76370   0.79470   0.47706   0.00000  Uiso   1.00
C764   C     0.90337   0.87232   0.02308   0.00000  Uiso   1.00
C765   C     0.76808   0.78993   0.02345   0.00000  Uiso   1.00
C766   C     0.89895   0.87712   0.47662   0.00000  Uiso   1.00
H767   H     0.88289   0.87805   0.38848   0.00000  Uiso   1.00
H768   H     0.78410   0.78852   0.11137   0.00000  Uiso   1.00
C769   C     0.68612   0.79933   0.22603   0.00000  Uiso   1.00
C770   C     0.98052   0.86750   0.27367   0.00000  Uiso   1.00
C771   C     0.97667   0.80168   0.22294   0.00000  Uiso   1.00
C772   C     0.68996   0.86516   0.27674   0.00000  Uiso   1.00
C773   C     0.95741   0.83535   0.24753   0.00000  Uiso   1.00
C774   C     0.70924   0.83143   0.25222   0.00000  Uiso   1.00
C775   C     0.84764   0.69200   0.28657   0.00000  Uiso   1.00
C776   C     0.81909   0.97468   0.21340   0.00000  Uiso   1.00
C777   C     0.82063   0.68900   0.21282   0.00000  Uiso   1.00
C778   C     0.84610   0.97767   0.28718   0.00000  Uiso   1.00
N779   N     0.83333   0.95240   0.25000   0.00000  Uiso   1.00
N780   N     0.83333   0.71427   0.25000   0.00000  Uiso   1.00
C781   C     0.77265   0.77488   0.38014   0.00000  Uiso   1.00
O782   O     0.77191   0.73577   0.39137   0.00000  Uiso   1.00
O783   O     0.74826   0.78769   0.34362   0.00000  Uiso   1.00
H784   H     0.73145   0.76163   0.32919   0.00000  Uiso   1.00
C785   C     0.89485   0.89125   0.12037   0.00000  Uiso   1.00
O786   O     0.91534   0.87990   0.15294   0.00000  Uiso   1.00
O787   O     0.89668   0.93586   0.10719   0.00000  Uiso   1.00
H788   H     0.91576   0.95552   0.12745   0.00000  Uiso   1.00
C789   C     0.72200   0.78551   0.45516   0.00000  Uiso   1.00
O790   O     0.70617   0.81425   0.43246   0.00000  Uiso   1.00
O791   O     0.70106   0.74423   0.46038   0.00000  Uiso   1.00
H792   H     0.67312   0.74222   0.44381   0.00000  Uiso   1.00
C793   C     0.94506   0.88126   0.04514   0.00000  Uiso   1.00
O794   O     0.96383   0.91708   0.04042   0.00000  Uiso   1.00
O795   O     0.96250   0.84843   0.07165   0.00000  Uiso   1.00
H796   H     0.99044   0.85854   0.08561   0.00000  Uiso   1.00
C797   C     0.73434   0.76706   0.04807   0.00000  Uiso   1.00
O798   O     0.70155   0.78553   0.05365   0.00000  Uiso   1.00
O799   O     0.74022   0.72420   0.06429   0.00000  Uiso   1.00
H800   H     0.71490   0.71171   0.07988   0.00000  Uiso   1.00
C801   C     0.93294   0.89953   0.45191   0.00000  Uiso   1.00
O802   O     0.92770   0.93625   0.43587   0.00000  Uiso   1.00
O803   O     0.97094   0.87879   0.44774   0.00000  Uiso   1.00
H804   H     0.99187   0.89764   0.43094   0.00000  Uiso   1.00
N805   N     0.70602   0.76586   0.20031   0.00000  Uiso   1.00
O806   O     0.71377   0.72775   0.21840   0.00000  Uiso   1.00
O807   O     0.70742   0.76950   0.15715   0.00000  Uiso   1.00
N808   N     0.96063   0.90103   0.29931   0.00000  Uiso   1.00
O809   O     0.95283   0.93910   0.28113   0.00000  Uiso   1.00
O810   O     0.95909   0.89744   0.34246   0.00000  Uiso   1.00
N811   N     0.95307   0.77044   0.19409   0.00000  Uiso   1.00
O812   O     0.92873   0.78483   0.16251   0.00000  Uiso   1.00
O813   O     0.95653   0.72753   0.19870   0.00000  Uiso   1.00
N814   N     0.71355   0.89659   0.30541   0.00000  Uiso   1.00
O815   O     0.73777   0.88244   0.33721   0.00000  Uiso   1.00
O816   O     0.71016   0.93946   0.30043   0.00000  Uiso   1.00
N817   N     0.86708   0.71652   0.32356   0.00000  Uiso   1.00
O818   O     0.85321   0.71189   0.36367   0.00000  Uiso   1.00
O819   O     0.90293   0.73695   0.31854   0.00000  Uiso   1.00
N820   N     0.79979   0.95016   0.17635   0.00000  Uiso   1.00
O821   O     0.81396   0.95459   0.13634   0.00000  Uiso   1.00
O822   O     0.76388   0.92978   0.18118   0.00000  Uiso   1.00
N823   N     0.81142   0.71011   0.17166   0.00000  Uiso   1.00
O824   O     0.77326   0.70904   0.15627   0.00000  Uiso   1.00
O825   O     0.84130   0.71576   0.14368   0.00000  Uiso   1.00
N826   N     0.85533   0.95655   0.32835   0.00000  Uiso   1.00
O827   O     0.89346   0.95779   0.34384   0.00000  Uiso   1.00
O828   O     0.82541   0.95080   0.35626   0.00000  Uiso   1.00
O829   O     0.10559   0.20487   0.74999   0.00000  Uiso   1.00
O830   O     0.22774   0.12846   0.75001   0.00000  Uiso   1.00
O831   O     0.22774   0.20487   0.75000   0.00000  Uiso   1.00
O832   O     0.10559   0.12846   0.75000   0.00000  Uiso   1.00
C833   C     0.08682   0.16598   0.75057   0.00000  Uiso   1.00
C834   C     0.24650   0.16737   0.74930   0.00000  Uiso   1.00
O835   O     0.16666   0.20489   0.68392   0.00000  Uiso   1.00
O836   O     0.16667   0.12844   0.81608   0.00000  Uiso   1.00
O837   O     0.16667   0.20489   0.81607   0.00000  Uiso   1.00
O838   O     0.16666   0.12844   0.68392   0.00000  Uiso   1.00
C839   C     0.16818   0.16634   0.66374   0.00000  Uiso   1.00
C840   C     0.16517   0.16698   0.83629   0.00000  Uiso   1.00
Zn841  Zn    0.16667   0.21771   0.75000   0.00000  Uiso   1.00
Zn842  Zn    0.16667   0.11563   0.75000   0.00000  Uiso   1.00
C843   C     0.19316   0.19329   0.90740   0.00000  Uiso   1.00
C844   C     0.14052   0.14010   0.59259   0.00000  Uiso   1.00
C845   C     0.16266   0.16792   0.88404   0.00000  Uiso   1.00
C846   C     0.17099   0.16537   0.61604   0.00000  Uiso   1.00
C847   C     0.13248   0.14215   0.90597   0.00000  Uiso   1.00
C848   C     0.20140   0.19105   0.59428   0.00000  Uiso   1.00
C849   C     0.13106   0.14597   0.95303   0.00000  Uiso   1.00
C850   C     0.20271   0.18764   0.54714   0.00000  Uiso   1.00
C851   C     0.16538   0.16778   0.97674   0.00000  Uiso   1.00
C852   C     0.16832   0.16597   0.52339   0.00000  Uiso   1.00
C853   C     0.19672   0.19147   0.95365   0.00000  Uiso   1.00
C854   C     0.13697   0.14218   0.54641   0.00000  Uiso   1.00
C855   C     0.09703   0.12803   0.97706   0.00000  Uiso   1.00
C856   C     0.23670   0.20566   0.52308   0.00000  Uiso   1.00
C857   C     0.10142   0.12327   0.52345   0.00000  Uiso   1.00
C858   C     0.23228   0.21045   0.97662   0.00000  Uiso   1.00
H859   H     0.21622   0.21139   0.88848   0.00000  Uiso   1.00
H860   H     0.11744   0.12185   0.61137   0.00000  Uiso   1.00
C861   C     0.01945   0.13266   0.72603   0.00000  Uiso   1.00
C862   C     0.31386   0.20083   0.77367   0.00000  Uiso   1.00
C863   C     0.31001   0.13502   0.72294   0.00000  Uiso   1.00
C864   C     0.02330   0.19850   0.77674   0.00000  Uiso   1.00
C865   C     0.29074   0.16868   0.74753   0.00000  Uiso   1.00
C866   C     0.04257   0.16476   0.75222   0.00000  Uiso   1.00
C867   C     0.18098   0.02533   0.78657   0.00000  Uiso   1.00
C868   C     0.15242   0.30801   0.71340   0.00000  Uiso   1.00
C869   C     0.15396   0.02233   0.71282   0.00000  Uiso   1.00
C870   C     0.17943   0.31100   0.78718   0.00000  Uiso   1.00
N871   N     0.16667   0.28573   0.75000   0.00000  Uiso   1.00
N872   N     0.16667   0.04760   0.75000   0.00000  Uiso   1.00
C873   C     0.10598   0.10822   0.88014   0.00000  Uiso   1.00
O874   O     0.10525   0.06910   0.89137   0.00000  Uiso   1.00
O875   O     0.08160   0.12103   0.84362   0.00000  Uiso   1.00
H876   H     0.06478   0.09497   0.82919   0.00000  Uiso   1.00
C877   C     0.22819   0.22458   0.62037   0.00000  Uiso   1.00
O878   O     0.24867   0.21323   0.65294   0.00000  Uiso   1.00
O879   O     0.23001   0.26920   0.60719   0.00000  Uiso   1.00
H880   H     0.24909   0.28886   0.62745   0.00000  Uiso   1.00
C881   C     0.05533   0.11885   0.95516   0.00000  Uiso   1.00
O882   O     0.03950   0.14758   0.93246   0.00000  Uiso   1.00
O883   O     0.03440   0.07756   0.96038   0.00000  Uiso   1.00
H884   H     0.00646   0.07555   0.94381   0.00000  Uiso   1.00
C885   C     0.27839   0.21459   0.54514   0.00000  Uiso   1.00
O886   O     0.29716   0.25042   0.54042   0.00000  Uiso   1.00
O887   O     0.29583   0.18177   0.57165   0.00000  Uiso   1.00
H888   H     0.32377   0.19187   0.58561   0.00000  Uiso   1.00
C889   C     0.06767   0.10039   0.54807   0.00000  Uiso   1.00
O890   O     0.03488   0.11887   0.55365   0.00000  Uiso   1.00
O891   O     0.07355   0.05753   0.56429   0.00000  Uiso   1.00
H892   H     0.04823   0.04504   0.57988   0.00000  Uiso   1.00
C893   C     0.26628   0.23286   0.95191   0.00000  Uiso   1.00
O894   O     0.26103   0.26959   0.93587   0.00000  Uiso   1.00
O895   O     0.30427   0.21213   0.94774   0.00000  Uiso   1.00
H896   H     0.32520   0.23098   0.93094   0.00000  Uiso   1.00
N897   N     0.03935   0.09920   0.70031   0.00000  Uiso   1.00
O898   O     0.04710   0.06108   0.71840   0.00000  Uiso   1.00
O899   O     0.04075   0.10283   0.65715   0.00000  Uiso   1.00
N900   N     0.29396   0.23437   0.79931   0.00000  Uiso   1.00
O901   O     0.28616   0.27243   0.78113   0.00000  Uiso   1.00
O902   O     0.29242   0.23078   0.84246   0.00000  Uiso   1.00
N903   N     0.28641   0.10377   0.69409   0.00000  Uiso   1.00
O904   O     0.26206   0.11816   0.66251   0.00000  Uiso   1.00
O905   O     0.28986   0.06086   0.69870   0.00000  Uiso   1.00
N906   N     0.04688   0.22993   0.80541   0.00000  Uiso   1.00
O907   O     0.07110   0.21577   0.83721   0.00000  Uiso   1.00
O908   O     0.04349   0.27279   0.80043   0.00000  Uiso   1.00
N909   N     0.20041   0.04985   0.82356   0.00000  Uiso   1.00
O910   O     0.18654   0.04522   0.86367   0.00000  Uiso   1.00
O911   O     0.23626   0.07029   0.81854   0.00000  Uiso   1.00
N912   N     0.13312   0.28349   0.67635   0.00000  Uiso   1.00
O913   O     0.14729   0.28793   0.63634   0.00000  Uiso   1.00
O914   O     0.09722   0.26311   0.68118   0.00000  Uiso   1.00
N915   N     0.14475   0.04345   0.67166   0.00000  Uiso   1.00
O916   O     0.10659   0.04238   0.65627   0.00000  Uiso   1.00
O917   O     0.17463   0.04909   0.64368   0.00000  Uiso   1.00
N918   N     0.18866   0.28989   0.82835   0.00000  Uiso   1.00
O919   O     0.22680   0.29113   0.84384   0.00000  Uiso   1.00
O920   O     0.15874   0.28414   0.85626   0.00000  Uiso   1.00
O921   O     0.43892   0.20487   0.74999   0.00000  Uiso   1.00
O922   O     0.56108   0.12846   0.75001   0.00000  Uiso   1.00
O923   O     0.56108   0.20487   0.75000   0.00000  Uiso   1.00
O924   O     0.43892   0.12846   0.75000   0.00000  Uiso   1.00
C925   C     0.42015   0.16598   0.75057   0.00000  Uiso   1.00
C926   C     0.57984   0.16737   0.74930   0.00000  Uiso   1.00
O927   O     0.49999   0.20489   0.68392   0.00000  Uiso   1.00
O928   O     0.50001   0.12844   0.81608   0.00000  Uiso   1.00
O929   O     0.50001   0.20489   0.81607   0.00000  Uiso   1.00
O930   O     0.49999   0.12844   0.68392   0.00000  Uiso   1.00
C931   C     0.50151   0.16634   0.66374   0.00000  Uiso   1.00
C932   C     0.49851   0.16698   0.83629   0.00000  Uiso   1.00
Zn933  Zn    0.50000   0.21771   0.75000   0.00000  Uiso   1.00
Zn934  Zn    0.50000   0.11563   0.75000   0.00000  Uiso   1.00
C935   C     0.52649   0.19329   0.90740   0.00000  Uiso   1.00
C936   C     0.47386   0.14010   0.59259   0.00000  Uiso   1.00
C937   C     0.49599   0.16792   0.88404   0.00000  Uiso   1.00
C938   C     0.50432   0.16537   0.61604   0.00000  Uiso   1.00
C939   C     0.46581   0.14215   0.90597   0.00000  Uiso   1.00
C940   C     0.53474   0.19105   0.59428   0.00000  Uiso   1.00
C941   C     0.46439   0.14597   0.95303   0.00000  Uiso   1.00
C942   C     0.53605   0.18764   0.54714   0.00000  Uiso   1.00
C943   C     0.49871   0.16778   0.97674   0.00000  Uiso   1.00
C944   C     0.50166   0.16597   0.52339   0.00000  Uiso   1.00
C945   C     0.53006   0.19147   0.95365   0.00000  Uiso   1.00
C946   C     0.47030   0.14218   0.54641   0.00000  Uiso   1.00
C947   C     0.43036   0.12803   0.97706   0.00000  Uiso   1.00
C948   C     0.57004   0.20566   0.52308   0.00000  Uiso   1.00
C949   C     0.43475   0.12327   0.52345   0.00000  Uiso   1.00
C950   C     0.56562   0.21045   0.97662   0.00000  Uiso   1.00
H951   H     0.54955   0.21139   0.88848   0.00000  Uiso   1.00
H952   H     0.45077   0.12185   0.61137   0.00000  Uiso   1.00
C953   C     0.35278   0.13266   0.72603   0.00000  Uiso   1.00
C954   C     0.64719   0.20083   0.77367   0.00000  Uiso   1.00
C955   C     0.64334   0.13502   0.72294   0.00000  Uiso   1.00
C956   C     0.35663   0.19850   0.77674   0.00000  Uiso   1.00
C957   C     0.62407   0.16868   0.74753   0.00000  Uiso   1.00
C958   C     0.37590   0.16476   0.75222   0.00000  Uiso   1.00
C959   C     0.51431   0.02533   0.78657   0.00000  Uiso   1.00
C960   C     0.48576   0.30801   0.71340   0.00000  Uiso   1.00
C961   C     0.48730   0.02233   0.71282   0.00000  Uiso   1.00
C962   C     0.51276   0.31100   0.78718   0.00000  Uiso   1.00
N963   N     0.50000   0.28573   0.75000   0.00000  Uiso   1.00
N964   N     0.50000   0.04760   0.75000   0.00000  Uiso   1.00
C965   C     0.43932   0.10822   0.88014   0.00000  Uiso   1.00
O966   O     0.43858   0.06910   0.89137   0.00000  Uiso   1.00
O967   O     0.41493   0.12103   0.84362   0.00000  Uiso   1.00
H968   H     0.39811   0.09497   0.82919   0.00000  Uiso   1.00
C969   C     0.56152   0.22458   0.62037   0.00000  Uiso   1.00
O970   O     0.58200   0.21323   0.65294   0.00000  Uiso   1.00
O971   O     0.56335   0.26920   0.60719   0.00000  Uiso   1.00
H972   H     0.58243   0.28886   0.62745   0.00000  Uiso   1.00
C973   C     0.38867   0.11885   0.95516   0.00000  Uiso   1.00
O974   O     0.37284   0.14758   0.93246   0.00000  Uiso   1.00
O975   O     0.36773   0.07756   0.96038   0.00000  Uiso   1.00
H976   H     0.33979   0.07555   0.94381   0.00000  Uiso   1.00
C977   C     0.61172   0.21459   0.54514   0.00000  Uiso   1.00
O978   O     0.63050   0.25042   0.54042   0.00000  Uiso   1.00
O979   O     0.62917   0.18177   0.57165   0.00000  Uiso   1.00
H980   H     0.65711   0.19187   0.58561   0.00000  Uiso   1.00
C981   C     0.40101   0.10039   0.54807   0.00000  Uiso   1.00
O982   O     0.36821   0.11887   0.55365   0.00000  Uiso   1.00
O983   O     0.40689   0.05753   0.56429   0.00000  Uiso   1.00
H984   H     0.38157   0.04504   0.57988   0.00000  Uiso   1.00
C985   C     0.59961   0.23286   0.95191   0.00000  Uiso   1.00
O986   O     0.59436   0.26959   0.93587   0.00000  Uiso   1.00
O987   O     0.63760   0.21213   0.94774   0.00000  Uiso   1.00
H988   H     0.65854   0.23098   0.93094   0.00000  Uiso   1.00
N989   N     0.37268   0.09920   0.70031   0.00000  Uiso   1.00
O990   O     0.38043   0.06108   0.71840   0.00000  Uiso   1.00
O991   O     0.37408   0.10283   0.65715   0.00000  Uiso   1.00
N992   N     0.62729   0.23437   0.79931   0.00000  Uiso   1.00
O993   O     0.61950   0.27243   0.78113   0.00000  Uiso   1.00
O994   O     0.62576   0.23078   0.84246   0.00000  Uiso   1.00
N995   N     0.61974   0.10377   0.69409   0.00000  Uiso   1.00
O996   O     0.59540   0.11816   0.66251   0.00000  Uiso   1.00
O997   O     0.62319   0.06086   0.69870   0.00000  Uiso   1.00
N998   N     0.38021   0.22993   0.80541   0.00000  Uiso   1.00
O999   O     0.40444   0.21577   0.83721   0.00000  Uiso   1.00
O1000  O     0.37682   0.27279   0.80043   0.00000  Uiso   1.00
N1001  N     0.53374   0.04985   0.82356   0.00000  Uiso   1.00
O1002  O     0.51988   0.04522   0.86367   0.00000  Uiso   1.00
O1003  O     0.56960   0.07029   0.81854   0.00000  Uiso   1.00
N1004  N     0.46646   0.28349   0.67635   0.00000  Uiso   1.00
O1005  O     0.48063   0.28793   0.63634   0.00000  Uiso   1.00
O1006  O     0.43055   0.26311   0.68118   0.00000  Uiso   1.00
N1007  N     0.47809   0.04345   0.67166   0.00000  Uiso   1.00
O1008  O     0.43992   0.04238   0.65627   0.00000  Uiso   1.00
O1009  O     0.50797   0.04909   0.64368   0.00000  Uiso   1.00
N1010  N     0.52199   0.28989   0.82835   0.00000  Uiso   1.00
O1011  O     0.56013   0.29113   0.84384   0.00000  Uiso   1.00
O1012  O     0.49208   0.28414   0.85626   0.00000  Uiso   1.00
O1013  O     0.77226   0.20487   0.74999   0.00000  Uiso   1.00
O1014  O     0.89441   0.12846   0.75001   0.00000  Uiso   1.00
O1015  O     0.89441   0.20487   0.75000   0.00000  Uiso   1.00
O1016  O     0.77226   0.12846   0.75000   0.00000  Uiso   1.00
C1017  C     0.75349   0.16598   0.75057   0.00000  Uiso   1.00
C1018  C     0.91317   0.16737   0.74930   0.00000  Uiso   1.00
O1019  O     0.83333   0.20489   0.68392   0.00000  Uiso   1.00
O1020  O     0.83334   0.12844   0.81608   0.00000  Uiso   1.00
O1021  O     0.83334   0.20489   0.81607   0.00000  Uiso   1.00
O1022  O     0.83333   0.12844   0.68392   0.00000  Uiso   1.00
C1023  C     0.83485   0.16634   0.66374   0.00000  Uiso   1.00
C1024  C     0.83184   0.16698   0.83629   0.00000  Uiso   1.00
Zn1025 Zn    0.83333   0.21771   0.75000   0.00000  Uiso   1.00
Zn1026 Zn    0.83333   0.11563   0.75000   0.00000  Uiso   1.00
C1027  C     0.85983   0.19329   0.90740   0.00000  Uiso   1.00
C1028  C     0.80719   0.14010   0.59259   0.00000  Uiso   1.00
C1029  C     0.82933   0.16792   0.88404   0.00000  Uiso   1.00
C1030  C     0.83765   0.16537   0.61604   0.00000  Uiso   1.00
C1031  C     0.79915   0.14215   0.90597   0.00000  Uiso   1.00
C1032  C     0.86807   0.19105   0.59428   0.00000  Uiso   1.00
C1033  C     0.79772   0.14597   0.95303   0.00000  Uiso   1.00
C1034  C     0.86938   0.18764   0.54714   0.00000  Uiso   1.00
C1035  C     0.83204   0.16778   0.97674   0.00000  Uiso   1.00
C1036  C     0.83499   0.16597   0.52339   0.00000  Uiso   1.00
C1037  C     0.86339   0.19147   0.95365   0.00000  Uiso   1.00
C1038  C     0.80364   0.14218   0.54641   0.00000  Uiso   1.00
C1039  C     0.76370   0.12803   0.97706   0.00000  Uiso   1.00
C1040  C     0.90337   0.20566   0.52308   0.00000  Uiso   1.00
C1041  C     0.76808   0.12327   0.52345   0.00000  Uiso   1.00
C1042  C     0.89895   0.21045   0.97662   0.00000  Uiso   1.00
H1043  H     0.88289   0.21139   0.88848   0.00000  Uiso   1.00
H1044  H     0.78410   0.12185   0.61137   0.00000  Uiso   1.00
C1045  C     0.68612   0.13266   0.72603   0.00000  Uiso   1.00
C1046  C     0.98052   0.20083   0.77367   0.00000  Uiso   1.00
C1047  C     0.97667   0.13502   0.72294   0.00000  Uiso   1.00
C1048  C     0.68996   0.19850   0.77674   0.00000  Uiso   1.00
C1049  C     0.95741   0.16868   0.74753   0.00000  Uiso   1.00
C1050  C     0.70924   0.16476   0.75222   0.00000  Uiso   1.00
C1051  C     0.84764   0.02533   0.78657   0.00000  Uiso   1.00
C1052  C     0.81909   0.30801   0.71340   0.00000  Uiso   1.00
C1053  C     0.82063   0.02233   0.71282   0.00000  Uiso   1.00
C1054  C     0.84610   0.31100   0.78718   0.00000  Uiso   1.00
N1055  N     0.83333   0.28573   0.75000   0.00000  Uiso   1.00
N1056  N     0.83333   0.04760   0.75000   0.00000  Uiso   1.00
C1057  C     0.77265   0.10822   0.88014   0.00000  Uiso   1.00
O1058  O     0.77191   0.06910   0.89137   0.00000  Uiso   1.00
O1059  O     0.74826   0.12103   0.84362   0.00000  Uiso   1.00
H1060  H     0.73145   0.09497   0.82919   0.00000  Uiso   1.00
C1061  C     0.89485   0.22458   0.62037   0.00000  Uiso   1.00
O1062  O     0.91534   0.21323   0.65294   0.00000  Uiso   1.00
O1063  O     0.89668   0.26920   0.60719   0.00000  Uiso   1.00
H1064  H     0.91576   0.28886   0.62745   0.00000  Uiso   1.00
C1065  C     0.72200   0.11885   0.95516   0.00000  Uiso   1.00
O1066  O     0.70617   0.14758   0.93246   0.00000  Uiso   1.00
O1067  O     0.70106   0.07756   0.96038   0.00000  Uiso   1.00
H1068  H     0.67312   0.07555   0.94381   0.00000  Uiso   1.00
C1069  C     0.94506   0.21459   0.54514   0.00000  Uiso   1.00
O1070  O     0.96383   0.25042   0.54042   0.00000  Uiso   1.00
O1071  O     0.96250   0.18177   0.57165   0.00000  Uiso   1.00
H1072  H     0.99044   0.19187   0.58561   0.00000  Uiso   1.00
C1073  C     0.73434   0.10039   0.54807   0.00000  Uiso   1.00
O1074  O     0.70155   0.11887   0.55365   0.00000  Uiso   1.00
O1075  O     0.74022   0.05753   0.56429   0.00000  Uiso   1.00
H1076  H     0.71490   0.04504   0.57988   0.00000  Uiso   1.00
C1077  C     0.93294   0.23286   0.95191   0.00000  Uiso   1.00
O1078  O     0.92770   0.26959   0.93587   0.00000  Uiso   1.00
O1079  O     0.97094   0.21213   0.94774   0.00000  Uiso   1.00
H1080  H     0.99187   0.23098   0.93094   0.00000  Uiso   1.00
N1081  N     0.70602   0.09920   0.70031   0.00000  Uiso   1.00
O1082  O     0.71377   0.06108   0.71840   0.00000  Uiso   1.00
O1083  O     0.70742   0.10283   0.65715   0.00000  Uiso   1.00
N1084  N     0.96063   0.23437   0.79931   0.00000  Uiso   1.00
O1085  O     0.95283   0.27243   0.78113   0.00000  Uiso   1.00
O1086  O     0.95909   0.23078   0.84246   0.00000  Uiso   1.00
N1087  N     0.95307   0.10377   0.69409   0.00000  Uiso   1.00
O1088  O     0.92873   0.11816   0.66251   0.00000  Uiso   1.00
O1089  O     0.95653   0.06086   0.69870   0.00000  Uiso   1.00
N1090  N     0.71355   0.22993   0.80541   0.00000  Uiso   1.00
O1091  O     0.73777   0.21577   0.83721   0.00000  Uiso   1.00
O1092  O     0.71016   0.27279   0.80043   0.00000  Uiso   1.00
N1093  N     0.86708   0.04985   0.82356   0.00000  Uiso   1.00
O1094  O     0.85321   0.04522   0.86367   0.00000  Uiso   1.00
O1095  O     0.90293   0.07029   0.81854   0.00000  Uiso   1.00
N1096  N     0.79979   0.28349   0.67635   0.00000  Uiso   1.00
O1097  O     0.81396   0.28793   0.63634   0.00000  Uiso   1.00
O1098  O     0.76388   0.26311   0.68118   0.00000  Uiso   1.00
N1099  N     0.81142   0.04345   0.67166   0.00000  Uiso   1.00
O1100  O     0.77326   0.04238   0.65627   0.00000  Uiso   1.00
O1101  O     0.84130   0.04909   0.64368   0.00000  Uiso   1.00
N1102  N     0.85533   0.28989   0.82835   0.00000  Uiso   1.00
O1103  O     0.89346   0.29113   0.84384   0.00000  Uiso   1.00
O1104  O     0.82541   0.28414   0.85626   0.00000  Uiso   1.00
O1105  O     0.10559   0.53821   0.74999   0.00000  Uiso   1.00
O1106  O     0.22774   0.46179   0.75001   0.00000  Uiso   1.00
O1107  O     0.22774   0.53821   0.75000   0.00000  Uiso   1.00
O1108  O     0.10559   0.46179   0.75000   0.00000  Uiso   1.00
C1109  C     0.08682   0.49931   0.75057   0.00000  Uiso   1.00
C1110  C     0.24650   0.50071   0.74930   0.00000  Uiso   1.00
O1111  O     0.16666   0.53823   0.68392   0.00000  Uiso   1.00
O1112  O     0.16667   0.46177   0.81608   0.00000  Uiso   1.00
O1113  O     0.16667   0.53823   0.81607   0.00000  Uiso   1.00
O1114  O     0.16666   0.46177   0.68392   0.00000  Uiso   1.00
C1115  C     0.16818   0.49967   0.66374   0.00000  Uiso   1.00
C1116  C     0.16517   0.50031   0.83629   0.00000  Uiso   1.00
Zn1117 Zn    0.16667   0.55104   0.75000   0.00000  Uiso   1.00
Zn1118 Zn    0.16667   0.44896   0.75000   0.00000  Uiso   1.00
C1119  C     0.19316   0.52662   0.90740   0.00000  Uiso   1.00
C1120  C     0.14052   0.47343   0.59259   0.00000  Uiso   1.00
C1121  C     0.16266   0.50126   0.88404   0.00000  Uiso   1.00
C1122  C     0.17099   0.49871   0.61604   0.00000  Uiso   1.00
C1123  C     0.13248   0.47549   0.90597   0.00000  Uiso   1.00
C1124  C     0.20140   0.52439   0.59428   0.00000  Uiso   1.00
C1125  C     0.13106   0.47931   0.95303   0.00000  Uiso   1.00
C1126  C     0.20271   0.52097   0.54714   0.00000  Uiso   1.00
C1127  C     0.16538   0.50112   0.97674   0.00000  Uiso   1.00
C1128  C     0.16832   0.49931   0.52339   0.00000  Uiso   1.00
C1129  C     0.19672   0.52481   0.95365   0.00000  Uiso   1.00
C1130  C     0.13697   0.47551   0.54641   0.00000  Uiso   1.00
C1131  C     0.09703   0.46136   0.97706   0.00000  Uiso   1.00
C1132  C     0.23670   0.53899   0.52308   0.00000  Uiso   1.00
C1133  C     0.10142   0.45660   0.52345   0.00000  Uiso   1.00
C1134  C     0.23228   0.54378   0.97662   0.00000  Uiso   1.00
H1135  H     0.21622   0.54472   0.88848   0.00000  Uiso   1.00
H1136  H     0.11744   0.45519   0.61137   0.00000  Uiso   1.00
C1137  C     0.01945   0.46600   0.72603   0.00000  Uiso   1.00
C1138  C     0.31386   0.53416   0.77367   0.00000  Uiso   1.00
C1139  C     0.31001   0.46835   0.72294   0.00000  Uiso   1.00
C1140  C     0.02330   0.53183   0.77674   0.00000  Uiso   1.00
C1141  C     0.29074   0.50202   0.74753   0.00000  Uiso   1.00
C1142  C     0.04257   0.49809   0.75222   0.00000  Uiso   1.00
C1143  C     0.18098   0.35866   0.78657   0.00000  Uiso   1.00
C1144  C     0.15242   0.64134   0.71340   0.00000  Uiso   1.00
C1145  C     0.15396   0.35567   0.71282   0.00000  Uiso   1.00
C1146  C     0.17943   0.64433   0.78718   0.00000  Uiso   1.00
N1147  N     0.16667   0.61907   0.75000   0.00000  Uiso   1.00
N1148  N     0.16667   0.38093   0.75000   0.00000  Uiso   1.00
C1149  C     0.10598   0.44155   0.88014   0.00000  Uiso   1.00
O1150  O     0.10525   0.40243   0.89137   0.00000  Uiso   1.00
O1151  O     0.08160   0.45436   0.84362   0.00000  Uiso   1.00
H1152  H     0.06478   0.42830   0.82919   0.00000  Uiso   1.00
C1153  C     0.22819   0.55792   0.62037   0.00000  Uiso   1.00
O1154  O     0.24867   0.54657   0.65294   0.00000  Uiso   1.00
O1155  O     0.23001   0.60253   0.60719   0.00000  Uiso   1.00
H1156  H     0.24909   0.62219   0.62745   0.00000  Uiso   1.00
C1157  C     0.05533   0.45218   0.95516   0.00000  Uiso   1.00
O1158  O     0.03950   0.48091   0.93246   0.00000  Uiso   1.00
O1159  O     0.03440   0.41089   0.96038   0.00000  Uiso   1.00
H1160  H     0.00646   0.40889   0.94381   0.00000  Uiso   1.00
C1161  C     0.27839   0.54792   0.54514   0.00000  Uiso   1.00
O1162  O     0.29716   0.58375   0.54042   0.00000  Uiso   1.00
O1163  O     0.29583   0.51510   0.57165   0.00000  Uiso   1.00
H1164  H     0.32377   0.52520   0.58561   0.00000  Uiso   1.00
C1165  C     0.06767   0.43372   0.54807   0.00000  Uiso   1.00
O1166  O     0.03488   0.45220   0.55365   0.00000  Uiso   1.00
O1167  O     0.07355   0.39087   0.56429   0.00000  Uiso   1.00
H1168  H     0.04823   0.37838   0.57988   0.00000  Uiso   1.00
C1169  C     0.26628   0.56619   0.95191   0.00000  Uiso   1.00
O1170  O     0.26103   0.60292   0.93587   0.00000  Uiso   1.00
O1171  O     0.30427   0.54546   0.94774   0.00000  Uiso   1.00
H1172  H     0.32520   0.56431   0.93094   0.00000  Uiso   1.00
N1173  N     0.03935   0.43253   0.70031   0.00000  Uiso   1.00
O1174  O     0.04710   0.39441   0.71840   0.00000  Uiso   1.00
O1175  O     0.04075   0.43617   0.65715   0.00000  Uiso   1.00
N1176  N     0.29396   0.56770   0.79931   0.00000  Uiso   1.00
O1177  O     0.28616   0.60576   0.78113   0.00000  Uiso   1.00
O1178  O     0.29242   0.56411   0.84246   0.00000  Uiso   1.00
N1179  N     0.28641   0.43710   0.69409   0.00000  Uiso   1.00
O1180  O     0.26206   0.45149   0.66251   0.00000  Uiso   1.00
O1181  O     0.28986   0.39420   0.69870   0.00000  Uiso   1.00
N1182  N     0.04688   0.56326   0.80541   0.00000  Uiso   1.00
O1183  O     0.07110   0.54910   0.83721   0.00000  Uiso   1.00
O1184  O     0.04349   0.60613   0.80043   0.00000  Uiso   1.00
N1185  N     0.20041   0.38319   0.82356   0.00000  Uiso   1.00
O1186  O     0.18654   0.37855   0.86367   0.00000  Uiso   1.00
O1187  O     0.23626   0.40362   0.81854   0.00000  Uiso   1.00
N1188  N     0.13312   0.61683   0.67635   0.00000  Uiso   1.00
O1189  O     0.14729   0.62126   0.63634   0.00000  Uiso   1.00
O1190  O     0.09722   0.59644   0.68118   0.00000  Uiso   1.00
N1191  N     0.14475   0.37678   0.67166   0.00000  Uiso   1.00
O1192  O     0.10659   0.37571   0.65627   0.00000  Uiso   1.00
O1193  O     0.17463   0.38243   0.64368   0.00000  Uiso   1.00
N1194  N     0.18866   0.62322   0.82835   0.00000  Uiso   1.00
O1195  O     0.22680   0.62446   0.84384   0.00000  Uiso   1.00
O1196  O     0.15874   0.61747   0.85626   0.00000  Uiso   1.00
O1197  O     0.43892   0.53821   0.74999   0.00000  Uiso   1.00
O1198  O     0.56108   0.46179   0.75001   0.00000  Uiso   1.00
O1199  O     0.56108   0.53821   0.75000   0.00000  Uiso   1.00
O1200  O     0.43892   0.46179   0.75000   0.00000  Uiso   1.00
C1201  C     0.42015   0.49931   0.75057   0.00000  Uiso   1.00
C1202  C     0.57984   0.50071   0.74930   0.00000  Uiso   1.00
O1203  O     0.49999   0.53823   0.68392   0.00000  Uiso   1.00
O1204  O     0.50001   0.46177   0.81608   0.00000  Uiso   1.00
O1205  O     0.50001   0.53823   0.81607   0.00000  Uiso   1.00
O1206  O     0.49999   0.46177   0.68392   0.00000  Uiso   1.00
C1207  C     0.50151   0.49967   0.66374   0.00000  Uiso   1.00
C1208  C     0.49851   0.50031   0.83629   0.00000  Uiso   1.00
Zn1209 Zn    0.50000   0.55104   0.75000   0.00000  Uiso   1.00
Zn1210 Zn    0.50000   0.44896   0.75000   0.00000  Uiso   1.00
C1211  C     0.52649   0.52662   0.90740   0.00000  Uiso   1.00
C1212  C     0.47386   0.47343   0.59259   0.00000  Uiso   1.00
C1213  C     0.49599   0.50126   0.88404   0.00000  Uiso   1.00
C1214  C     0.50432   0.49871   0.61604   0.00000  Uiso   1.00
C1215  C     0.46581   0.47549   0.90597   0.00000  Uiso   1.00
C1216  C     0.53474   0.52439   0.59428   0.00000  Uiso   1.00
C1217  C     0.46439   0.47931   0.95303   0.00000  Uiso   1.00
C1218  C     0.53605   0.52097   0.54714   0.00000  Uiso   1.00
C1219  C     0.49871   0.50112   0.97674   0.00000  Uiso   1.00
C1220  C     0.50166   0.49931   0.52339   0.00000  Uiso   1.00
C1221  C     0.53006   0.52481   0.95365   0.00000  Uiso   1.00
C1222  C     0.47030   0.47551   0.54641   0.00000  Uiso   1.00
C1223  C     0.43036   0.46136   0.97706   0.00000  Uiso   1.00
C1224  C     0.57004   0.53899   0.52308   0.00000  Uiso   1.00
C1225  C     0.43475   0.45660   0.52345   0.00000  Uiso   1.00
C1226  C     0.56562   0.54378   0.97662   0.00000  Uiso   1.00
H1227  H     0.54955   0.54472   0.88848   0.00000  Uiso   1.00
H1228  H     0.45077   0.45519   0.61137   0.00000  Uiso   1.00
C1229  C     0.35278   0.46600   0.72603   0.00000  Uiso   1.00
C1230  C     0.64719   0.53416   0.77367   0.00000  Uiso   1.00
C1231  C     0.64334   0.46835   0.72294   0.00000  Uiso   1.00
C1232  C     0.35663   0.53183   0.77674   0.00000  Uiso   1.00
C1233  C     0.62407   0.50202   0.74753   0.00000  Uiso   1.00
C1234  C     0.37590   0.49809   0.75222   0.00000  Uiso   1.00
C1235  C     0.51431   0.35866   0.78657   0.00000  Uiso   1.00
C1236  C     0.48576   0.64134   0.71340   0.00000  Uiso   1.00
C1237  C     0.48730   0.35567   0.71282   0.00000  Uiso   1.00
C1238  C     0.51276   0.64433   0.78718   0.00000  Uiso   1.00
N1239  N     0.50000   0.61907   0.75000   0.00000  Uiso   1.00
N1240  N     0.50000   0.38093   0.75000   0.00000  Uiso   1.00
C1241  C     0.43932   0.44155   0.88014   0.00000  Uiso   1.00
O1242  O     0.43858   0.40243   0.89137   0.00000  Uiso   1.00
O1243  O     0.41493   0.45436   0.84362   0.00000  Uiso   1.00
H1244  H     0.39811   0.42830   0.82919   0.00000  Uiso   1.00
C1245  C     0.56152   0.55792   0.62037   0.00000  Uiso   1.00
O1246  O     0.58200   0.54657   0.65294   0.00000  Uiso   1.00
O1247  O     0.56335   0.60253   0.60719   0.00000  Uiso   1.00
H1248  H     0.58243   0.62219   0.62745   0.00000  Uiso   1.00
C1249  C     0.38867   0.45218   0.95516   0.00000  Uiso   1.00
O1250  O     0.37284   0.48091   0.93246   0.00000  Uiso   1.00
O1251  O     0.36773   0.41089   0.96038   0.00000  Uiso   1.00
H1252  H     0.33979   0.40889   0.94381   0.00000  Uiso   1.00
C1253  C     0.61172   0.54792   0.54514   0.00000  Uiso   1.00
O1254  O     0.63050   0.58375   0.54042   0.00000  Uiso   1.00
O1255  O     0.62917   0.51510   0.57165   0.00000  Uiso   1.00
H1256  H     0.65711   0.52520   0.58561   0.00000  Uiso   1.00
C1257  C     0.40101   0.43372   0.54807   0.00000  Uiso   1.00
O1258  O     0.36821   0.45220   0.55365   0.00000  Uiso   1.00
O1259  O     0.40689   0.39087   0.56429   0.00000  Uiso   1.00
H1260  H     0.38157   0.37838   0.57988   0.00000  Uiso   1.00
C1261  C     0.59961   0.56619   0.95191   0.00000  Uiso   1.00
O1262  O     0.59436   0.60292   0.93587   0.00000  Uiso   1.00
O1263  O     0.63760   0.54546   0.94774   0.00000  Uiso   1.00
H1264  H     0.65854   0.56431   0.93094   0.00000  Uiso   1.00
N1265  N     0.37268   0.43253   0.70031   0.00000  Uiso   1.00
O1266  O     0.38043   0.39441   0.71840   0.00000  Uiso   1.00
O1267  O     0.37408   0.43617   0.65715   0.00000  Uiso   1.00
N1268  N     0.62729   0.56770   0.79931   0.00000  Uiso   1.00
O1269  O     0.61950   0.60576   0.78113   0.00000  Uiso   1.00
O1270  O     0.62576   0.56411   0.84246   0.00000  Uiso   1.00
N1271  N     0.61974   0.43710   0.69409   0.00000  Uiso   1.00
O1272  O     0.59540   0.45149   0.66251   0.00000  Uiso   1.00
O1273  O     0.62319   0.39420   0.69870   0.00000  Uiso   1.00
N1274  N     0.38021   0.56326   0.80541   0.00000  Uiso   1.00
O1275  O     0.40444   0.54910   0.83721   0.00000  Uiso   1.00
O1276  O     0.37682   0.60613   0.80043   0.00000  Uiso   1.00
N1277  N     0.53374   0.38319   0.82356   0.00000  Uiso   1.00
O1278  O     0.51988   0.37855   0.86367   0.00000  Uiso   1.00
O1279  O     0.56960   0.40362   0.81854   0.00000  Uiso   1.00
N1280  N     0.46646   0.61683   0.67635   0.00000  Uiso   1.00
O1281  O     0.48063   0.62126   0.63634   0.00000  Uiso   1.00
O1282  O     0.43055   0.59644   0.68118   0.00000  Uiso   1.00
N1283  N     0.47809   0.37678   0.67166   0.00000  Uiso   1.00
O1284  O     0.43992   0.37571   0.65627   0.00000  Uiso   1.00
O1285  O     0.50797   0.38243   0.64368   0.00000  Uiso   1.00
N1286  N     0.52199   0.62322   0.82835   0.00000  Uiso   1.00
O1287  O     0.56013   0.62446   0.84384   0.00000  Uiso   1.00
O1288  O     0.49208   0.61747   0.85626   0.00000  Uiso   1.00
O1289  O     0.77226   0.53821   0.74999   0.00000  Uiso   1.00
O1290  O     0.89441   0.46179   0.75001   0.00000  Uiso   1.00
O1291  O     0.89441   0.53821   0.75000   0.00000  Uiso   1.00
O1292  O     0.77226   0.46179   0.75000   0.00000  Uiso   1.00
C1293  C     0.75349   0.49931   0.75057   0.00000  Uiso   1.00
C1294  C     0.91317   0.50071   0.74930   0.00000  Uiso   1.00
O1295  O     0.83333   0.53823   0.68392   0.00000  Uiso   1.00
O1296  O     0.83334   0.46177   0.81608   0.00000  Uiso   1.00
O1297  O     0.83334   0.53823   0.81607   0.00000  Uiso   1.00
O1298  O     0.83333   0.46177   0.68392   0.00000  Uiso   1.00
C1299  C     0.83485   0.49967   0.66374   0.00000  Uiso   1.00
C1300  C     0.83184   0.50031   0.83629   0.00000  Uiso   1.00
Zn1301 Zn    0.83333   0.55104   0.75000   0.00000  Uiso   1.00
Zn1302 Zn    0.83333   0.44896   0.75000   0.00000  Uiso   1.00
C1303  C     0.85983   0.52662   0.90740   0.00000  Uiso   1.00
C1304  C     0.80719   0.47343   0.59259   0.00000  Uiso   1.00
C1305  C     0.82933   0.50126   0.88404   0.00000  Uiso   1.00
C1306  C     0.83765   0.49871   0.61604   0.00000  Uiso   1.00
C1307  C     0.79915   0.47549   0.90597   0.00000  Uiso   1.00
C1308  C     0.86807   0.52439   0.59428   0.00000  Uiso   1.00
C1309  C     0.79772   0.47931   0.95303   0.00000  Uiso   1.00
C1310  C     0.86938   0.52097   0.54714   0.00000  Uiso   1.00
C1311  C     0.83204   0.50112   0.97674   0.00000  Uiso   1.00
C1312  C     0.83499   0.49931   0.52339   0.00000  Uiso   1.00
C1313  C     0.86339   0.52481   0.95365   0.00000  Uiso   1.00
C1314  C     0.80364   0.47551   0.54641   0.00000  Uiso   1.00
C1315  C     0.76370   0.46136   0.97706   0.00000  Uiso   1.00
C1316  C     0.90337   0.53899   0.52308   0.00000  Uiso   1.00
C1317  C     0.76808   0.45660   0.52345   0.00000  Uiso   1.00
C1318  C     0.89895   0.54378   0.97662   0.00000  Uiso   1.00
H1319  H     0.88289   0.54472   0.88848   0.00000  Uiso   1.00
H1320  H     0.78410   0.45519   0.61137   0.00000  Uiso   1.00
C1321  C     0.68612   0.46600   0.72603   0.00000  Uiso   1.00
C1322  C     0.98052   0.53416   0.77367   0.00000  Uiso   1.00
C1323  C     0.97667   0.46835   0.72294   0.00000  Uiso   1.00
C1324  C     0.68996   0.53183   0.77674   0.00000  Uiso   1.00
C1325  C     0.95741   0.50202   0.74753   0.00000  Uiso   1.00
C1326  C     0.70924   0.49809   0.75222   0.00000  Uiso   1.00
C1327  C     0.84764   0.35866   0.78657   0.00000  Uiso   1.00
C1328  C     0.81909   0.64134   0.71340   0.00000  Uiso   1.00
C1329  C     0.82063   0.35567   0.71282   0.00000  Uiso   1.00
C1330  C     0.84610   0.64433   0.78718   0.00000  Uiso   1.00
N1331  N     0.83333   0.61907   0.75000   0.00000  Uiso   1.00
N1332  N     0.83333   0.38093   0.75000   0.00000  Uiso   1.00
C1333  C     0.77265   0.44155   0.88014   0.00000  Uiso   1.00
O1334  O     0.77191   0.40243   0.89137   0.00000  Uiso   1.00
O1335  O     0.74826   0.45436   0.84362   0.00000  Uiso   1.00
H1336  H     0.73145   0.42830   0.82919   0.00000  Uiso   1.00
C1337  C     0.89485   0.55792   0.62037   0.00000  Uiso   1.00
O1338  O     0.91534   0.54657   0.65294   0.00000  Uiso   1.00
O1339  O     0.89668   0.60253   0.60719   0.00000  Uiso   1.00
H1340  H     0.91576   0.62219   0.62745   0.00000  Uiso   1.00
C1341  C     0.72200   0.45218   0.95516   0.00000  Uiso   1.00
O1342  O     0.70617   0.48091   0.93246   0.00000  Uiso   1.00
O1343  O     0.70106   0.41089   0.96038   0.00000  Uiso   1.00
H1344  H     0.67312   0.40889   0.94381   0.00000  Uiso   1.00
C1345  C     0.94506   0.54792   0.54514   0.00000  Uiso   1.00
O1346  O     0.96383   0.58375   0.54042   0.00000  Uiso   1.00
O1347  O     0.96250   0.51510   0.57165   0.00000  Uiso   1.00
H1348  H     0.99044   0.52520   0.58561   0.00000  Uiso   1.00
C1349  C     0.73434   0.43372   0.54807   0.00000  Uiso   1.00
O1350  O     0.70155   0.45220   0.55365   0.00000  Uiso   1.00
O1351  O     0.74022   0.39087   0.56429   0.00000  Uiso   1.00
H1352  H     0.71490   0.37838   0.57988   0.00000  Uiso   1.00
C1353  C     0.93294   0.56619   0.95191   0.00000  Uiso   1.00
O1354  O     0.92770   0.60292   0.93587   0.00000  Uiso   1.00
O1355  O     0.97094   0.54546   0.94774   0.00000  Uiso   1.00
H1356  H     0.99187   0.56431   0.93094   0.00000  Uiso   1.00
N1357  N     0.70602   0.43253   0.70031   0.00000  Uiso   1.00
O1358  O     0.71377   0.39441   0.71840   0.00000  Uiso   1.00
O1359  O     0.70742   0.43617   0.65715   0.00000  Uiso   1.00
N1360  N     0.96063   0.56770   0.79931   0.00000  Uiso   1.00
O1361  O     0.95283   0.60576   0.78113   0.00000  Uiso   1.00
O1362  O     0.95909   0.56411   0.84246   0.00000  Uiso   1.00
N1363  N     0.95307   0.43710   0.69409   0.00000  Uiso   1.00
O1364  O     0.92873   0.45149   0.66251   0.00000  Uiso   1.00
O1365  O     0.95653   0.39420   0.69870   0.00000  Uiso   1.00
N1366  N     0.71355   0.56326   0.80541   0.00000  Uiso   1.00
O1367  O     0.73777   0.54910   0.83721   0.00000  Uiso   1.00
O1368  O     0.71016   0.60613   0.80043   0.00000  Uiso   1.00
N1369  N     0.86708   0.38319   0.82356   0.00000  Uiso   1.00
O1370  O     0.85321   0.37855   0.86367   0.00000  Uiso   1.00
O1371  O     0.90293   0.40362   0.81854   0.00000  Uiso   1.00
N1372  N     0.79979   0.61683   0.67635   0.00000  Uiso   1.00
O1373  O     0.81396   0.62126   0.63634   0.00000  Uiso   1.00
O1374  O     0.76388   0.59644   0.68118   0.00000  Uiso   1.00
N1375  N     0.81142   0.37678   0.67166   0.00000  Uiso   1.00
O1376  O     0.77326   0.37571   0.65627   0.00000  Uiso   1.00
O1377  O     0.84130   0.38243   0.64368   0.00000  Uiso   1.00
N1378  N     0.85533   0.62322   0.82835   0.00000  Uiso   1.00
O1379  O     0.89346   0.62446   0.84384   0.00000  Uiso   1.00
O1380  O     0.82541   0.61747   0.85626   0.00000  Uiso   1.00
O1381  O     0.10559   0.87154   0.74999   0.00000  Uiso   1.00
O1382  O     0.22774   0.79513   0.75001   0.00000  Uiso   1.00
O1383  O     0.22774   0.87154   0.75000   0.00000  Uiso   1.00
O1384  O     0.10559   0.79513   0.75000   0.00000  Uiso   1.00
C1385  C     0.08682   0.83264   0.75057   0.00000  Uiso   1.00
C1386  C     0.24650   0.83404   0.74930   0.00000  Uiso   1.00
O1387  O     0.16666   0.87156   0.68392   0.00000  Uiso   1.00
O1388  O     0.16667   0.79511   0.81608   0.00000  Uiso   1.00
O1389  O     0.16667   0.87156   0.81607   0.00000  Uiso   1.00
O1390  O     0.16666   0.79511   0.68392   0.00000  Uiso   1.00
C1391  C     0.16818   0.83301   0.66374   0.00000  Uiso   1.00
C1392  C     0.16517   0.83365   0.83629   0.00000  Uiso   1.00
Zn1393 Zn    0.16667   0.88437   0.75000   0.00000  Uiso   1.00
Zn1394 Zn    0.16667   0.78229   0.75000   0.00000  Uiso   1.00
C1395  C     0.19316   0.85996   0.90740   0.00000  Uiso   1.00
C1396  C     0.14052   0.80676   0.59259   0.00000  Uiso   1.00
C1397  C     0.16266   0.83459   0.88404   0.00000  Uiso   1.00
C1398  C     0.17099   0.83204   0.61604   0.00000  Uiso   1.00
C1399  C     0.13248   0.80882   0.90597   0.00000  Uiso   1.00
C1400  C     0.20140   0.85772   0.59428   0.00000  Uiso   1.00
C1401  C     0.13106   0.81264   0.95303   0.00000  Uiso   1.00
C1402  C     0.20271   0.85431   0.54714   0.00000  Uiso   1.00
C1403  C     0.16538   0.83445   0.97674   0.00000  Uiso   1.00
C1404  C     0.16832   0.83264   0.52339   0.00000  Uiso   1.00
C1405  C     0.19672   0.85814   0.95365   0.00000  Uiso   1.00
C1406  C     0.13697   0.80885   0.54641   0.00000  Uiso   1.00
C1407  C     0.09703   0.79470   0.97706   0.00000  Uiso   1.00
C1408  C     0.23670   0.87232   0.52308   0.00000  Uiso   1.00
C1409  C     0.10142   0.78993   0.52345   0.00000  Uiso   1.00
C1410  C     0.23228   0.87712   0.97662   0.00000  Uiso   1.00
H1411  H     0.21622   0.87805   0.88848   0.00000  Uiso   1.00
H1412  H     0.11744   0.78852   0.61137   0.00000  Uiso   1.00
C1413  C     0.01945   0.79933   0.72603   0.00000  Uiso   1.00
C1414  C     0.31386   0.86750   0.77367   0.00000  Uiso   1.00
C1415  C     0.31001   0.80168   0.72294   0.00000  Uiso   1.00
C1416  C     0.02330   0.86516   0.77674   0.00000  Uiso   1.00
C1417  C     0.29074   0.83535   0.74753   0.00000  Uiso   1.00
C1418  C     0.04257   0.83143   0.75222   0.00000  Uiso   1.00
C1419  C     0.18098   0.69200   0.78657   0.00000  Uiso   1.00
C1420  C     0.15242   0.97468   0.71340   0.00000  Uiso   1.00
C1421  C     0.15396   0.68900   0.71282   0.00000  Uiso   1.00
C1422  C     0.17943   0.97767   0.78718   0.00000  Uiso   1.00
N1423  N     0.16667   0.95240   0.75000   0.00000  Uiso   1.00
N1424  N     0.16667   0.71427   0.75000   0.00000  Uiso   1.00
C1425  C     0.10598   0.77488   0.88014   0.00000  Uiso   1.00
O1426  O     0.10525   0.73577   0.89137   0.00000  Uiso   1.00
O1427  O     0.08160   0.78769   0.84362   0.00000  Uiso   1.00
H1428  H     0.06478   0.76163   0.82919   0.00000  Uiso   1.00
C1429  C     0.22819   0.89125   0.62037   0.00000  Uiso   1.00
O1430  O     0.24867   0.87990   0.65294   0.00000  Uiso   1.00
O1431  O     0.23001   0.93586   0.60719   0.00000  Uiso   1.00
H1432  H     0.24909   0.95552   0.62745   0.00000  Uiso   1.00
C1433  C     0.05533   0.78551   0.95516   0.00000  Uiso   1.00
O1434  O     0.03950   0.81425   0.93246   0.00000  Uiso   1.00
O1435  O     0.03440   0.74423   0.96038   0.00000  Uiso   1.00
H1436  H     0.00646   0.74222   0.94381   0.00000  Uiso   1.00
C1437  C     0.27839   0.88126   0.54514   0.00000  Uiso   1.00
O1438  O     0.29716   0.91708   0.54042   0.00000  Uiso   1.00
O1439  O     0.29583   0.84843   0.57165   0.00000  Uiso   1.00
H1440  H     0.32377   0.85854   0.58561   0.00000  Uiso   1.00
C1441  C     0.06767   0.76706   0.54807   0.00000  Uiso   1.00
O1442  O     0.03488   0.78553   0.55365   0.00000  Uiso   1.00
O1443  O     0.07355   0.72420   0.56429   0.00000  Uiso   1.00
H1444  H     0.04823   0.71171   0.57988   0.00000  Uiso   1.00
C1445  C     0.26628   0.89953   0.95191   0.00000  Uiso   1.00
O1446  O     0.26103   0.93625   0.93587   0.00000  Uiso   1.00
O1447  O     0.30427   0.87879   0.94774   0.00000  Uiso   1.00
H1448  H     0.32520   0.89764   0.93094   0.00000  Uiso   1.00
N1449  N     0.03935   0.76586   0.70031   0.00000  Uiso   1.00
O1450  O     0.04710   0.72775   0.71840   0.00000  Uiso   1.00
O1451  O     0.04075   0.76950   0.65715   0.00000  Uiso   1.00
N1452  N     0.29396   0.90103   0.79931   0.00000  Uiso   1.00
O1453  O     0.28616   0.93910   0.78113   0.00000  Uiso   1.00
O1454  O     0.29242   0.89744   0.84246   0.00000  Uiso   1.00
N1455  N     0.28641   0.77044   0.69409   0.00000  Uiso   1.00
O1456  O     0.26206   0.78483   0.66251   0.00000  Uiso   1.00
O1457  O     0.28986   0.72753   0.69870   0.00000  Uiso   1.00
N1458  N     0.04688   0.89659   0.80541   0.00000  Uiso   1.00
O1459  O     0.07110   0.88244   0.83721   0.00000  Uiso   1.00
O1460  O     0.04349   0.93946   0.80043   0.00000  Uiso   1.00
N1461  N     0.20041   0.71652   0.82356   0.00000  Uiso   1.00
O1462  O     0.18654   0.71189   0.86367   0.00000  Uiso   1.00
O1463  O     0.23626   0.73695   0.81854   0.00000  Uiso   1.00
N1464  N     0.13312   0.95016   0.67635   0.00000  Uiso   1.00
O1465  O     0.14729   0.95459   0.63634   0.00000  Uiso   1.00
O1466  O     0.09722   0.92978   0.68118   0.00000  Uiso   1.00
N1467  N     0.14475   0.71011   0.67166   0.00000  Uiso   1.00
O1468  O     0.10659   0.70904   0.65627   0.00000  Uiso   1.00
O1469  O     0.17463   0.71576   0.64368   0.00000  Uiso   1.00
N1470  N     0.18866   0.95655   0.82835   0.00000  Uiso   1.00
O1471  O     0.22680   0.95779   0.84384   0.00000  Uiso   1.00
O1472  O     0.15874   0.95080   0.85626   0.00000  Uiso   1.00
O1473  O     0.43892   0.87154   0.74999   0.00000  Uiso   1.00
O1474  O     0.56108   0.79513   0.75001   0.00000  Uiso   1.00
O1475  O     0.56108   0.87154   0.75000   0.00000  Uiso   1.00
O1476  O     0.43892   0.79513   0.75000   0.00000  Uiso   1.00
C1477  C     0.42015   0.83264   0.75057   0.00000  Uiso   1.00
C1478  C     0.57984   0.83404   0.74930   0.00000  Uiso   1.00
O1479  O     0.49999   0.87156   0.68392   0.00000  Uiso   1.00
O1480  O     0.50001   0.79511   0.81608   0.00000  Uiso   1.00
O1481  O     0.50001   0.87156   0.81607   0.00000  Uiso   1.00
O1482  O     0.49999   0.79511   0.68392   0.00000  Uiso   1.00
C1483  C     0.50151   0.83301   0.66374   0.00000  Uiso   1.00
C1484  C     0.49851   0.83365   0.83629   0.00000  Uiso   1.00
Zn1485 Zn    0.50000   0.88437   0.75000   0.00000  Uiso   1.00
Zn1486 Zn    0.50000   0.78229   0.75000   0.00000  Uiso   1.00
C1487  C     0.52649   0.85996   0.90740   0.00000  Uiso   1.00
C1488  C     0.47386   0.80676   0.59259   0.00000  Uiso   1.00
C1489  C     0.49599   0.83459   0.88404   0.00000  Uiso   1.00
C1490  C     0.50432   0.83204   0.61604   0.00000  Uiso   1.00
C1491  C     0.46581   0.80882   0.90597   0.00000  Uiso   1.00
C1492  C     0.53474   0.85772   0.59428   0.00000  Uiso   1.00
C1493  C     0.46439   0.81264   0.95303   0.00000  Uiso   1.00
C1494  C     0.53605   0.85431   0.54714   0.00000  Uiso   1.00
C1495  C     0.49871   0.83445   0.97674   0.00000  Uiso   1.00
C1496  C     0.50166   0.83264   0.52339   0.00000  Uiso   1.00
C1497  C     0.53006   0.85814   0.95365   0.00000  Uiso   1.00
C1498  C     0.47030   0.80885   0.54641   0.00000  Uiso   1.00
C1499  C     0.43036   0.79470   0.97706   0.00000  Uiso   1.00
C1500  C     0.57004   0.87232   0.52308   0.00000  Uiso   1.00
C1501  C     0.43475   0.78993   0.52345   0.00000  Uiso   1.00
C1502  C     0.56562   0.87712   0.97662   0.00000  Uiso   1.00
H1503  H     0.54955   0.87805   0.88848   0.00000  Uiso   1.00
H1504  H     0.45077   0.78852   0.61137   0.00000  Uiso   1.00
C1505  C     0.35278   0.79933   0.72603   0.00000  Uiso   1.00
C1506  C     0.64719   0.86750   0.77367   0.00000  Uiso   1.00
C1507  C     0.64334   0.80168   0.72294   0.00000  Uiso   1.00
C1508  C     0.35663   0.86516   0.77674   0.00000  Uiso   1.00
C1509  C     0.62407   0.83535   0.74753   0.00000  Uiso   1.00
C1510  C     0.37590   0.83143   0.75222   0.00000  Uiso   1.00
C1511  C     0.51431   0.69200   0.78657   0.00000  Uiso   1.00
C1512  C     0.48576   0.97468   0.71340   0.00000  Uiso   1.00
C1513  C     0.48730   0.68900   0.71282   0.00000  Uiso   1.00
C1514  C     0.51276   0.97767   0.78718   0.00000  Uiso   1.00
N1515  N     0.50000   0.95240   0.75000   0.00000  Uiso   1.00
N1516  N     0.50000   0.71427   0.75000   0.00000  Uiso   1.00
C1517  C     0.43932   0.77488   0.88014   0.00000  Uiso   1.00
O1518  O     0.43858   0.73577   0.89137   0.00000  Uiso   1.00
O1519  O     0.41493   0.78769   0.84362   0.00000  Uiso   1.00
H1520  H     0.39811   0.76163   0.82919   0.00000  Uiso   1.00
C1521  C     0.56152   0.89125   0.62037   0.00000  Uiso   1.00
O1522  O     0.58200   0.87990   0.65294   0.00000  Uiso   1.00
O1523  O     0.56335   0.93586   0.60719   0.00000  Uiso   1.00
H1524  H     0.58243   0.95552   0.62745   0.00000  Uiso   1.00
C1525  C     0.38867   0.78551   0.95516   0.00000  Uiso   1.00
O1526  O     0.37284   0.81425   0.93246   0.00000  Uiso   1.00
O1527  O     0.36773   0.74423   0.96038   0.00000  Uiso   1.00
H1528  H     0.33979   0.74222   0.94381   0.00000  Uiso   1.00
C1529  C     0.61172   0.88126   0.54514   0.00000  Uiso   1.00
O1530  O     0.63050   0.91708   0.54042   0.00000  Uiso   1.00
O1531  O     0.62917   0.84843   0.57165   0.00000  Uiso   1.00
H1532  H     0.65711   0.85854   0.58561   0.00000  Uiso   1.00
C1533  C     0.40101   0.76706   0.54807   0.00000  Uiso   1.00
O1534  O     0.36821   0.78553   0.55365   0.00000  Uiso   1.00
O1535  O     0.40689   0.72420   0.56429   0.00000  Uiso   1.00
H1536  H     0.38157   0.71171   0.57988   0.00000  Uiso   1.00
C1537  C     0.59961   0.89953   0.95191   0.00000  Uiso   1.00
O1538  O     0.59436   0.93625   0.93587   0.00000  Uiso   1.00
O1539  O     0.63760   0.87879   0.94774   0.00000  Uiso   1.00
H1540  H     0.65854   0.89764   0.93094   0.00000  Uiso   1.00
N1541  N     0.37268   0.76586   0.70031   0.00000  Uiso   1.00
O1542  O     0.38043   0.72775   0.71840   0.00000  Uiso   1.00
O1543  O     0.37408   0.76950   0.65715   0.00000  Uiso   1.00
N1544  N     0.62729   0.90103   0.79931   0.00000  Uiso   1.00
O1545  O     0.61950   0.93910   0.78113   0.00000  Uiso   1.00
O1546  O     0.62576   0.89744   0.84246   0.00000  Uiso   1.00
N1547  N     0.61974   0.77044   0.69409   0.00000  Uiso   1.00
O1548  O     0.59540   0.78483   0.66251   0.00000  Uiso   1.00
O1549  O     0.62319   0.72753   0.69870   0.00000  Uiso   1.00
N1550  N     0.38021   0.89659   0.80541   0.00000  Uiso   1.00
O1551  O     0.40444   0.88244   0.83721   0.00000  Uiso   1.00
O1552  O     0.37682   0.93946   0.80043   0.00000  Uiso   1.00
N1553  N     0.53374   0.71652   0.82356   0.00000  Uiso   1.00
O1554  O     0.51988   0.71189   0.86367   0.00000  Uiso   1.00
O1555  O     0.56960   0.73695   0.81854   0.00000  Uiso   1.00
N1556  N     0.46646   0.95016   0.67635   0.00000  Uiso   1.00
O1557  O     0.48063   0.95459   0.63634   0.00000  Uiso   1.00
O1558  O     0.43055   0.92978   0.68118   0.00000  Uiso   1.00
N1559  N     0.47809   0.71011   0.67166   0.00000  Uiso   1.00
O1560  O     0.43992   0.70904   0.65627   0.00000  Uiso   1.00
O1561  O     0.50797   0.71576   0.64368   0.00000  Uiso   1.00
N1562  N     0.52199   0.95655   0.82835   0.00000  Uiso   1.00
O1563  O     0.56013   0.95779   0.84384   0.00000  Uiso   1.00
O1564  O     0.49208   0.95080   0.85626   0.00000  Uiso   1.00
O1565  O     0.77226   0.87154   0.74999   0.00000  Uiso   1.00
O1566  O     0.89441   0.79513   0.75001   0.00000  Uiso   1.00
O1567  O     0.89441   0.87154   0.75000   0.00000  Uiso   1.00
O1568  O     0.77226   0.79513   0.75000   0.00000  Uiso   1.00
C1569  C     0.75349   0.83264   0.75057   0.00000  Uiso   1.00
C1570  C     0.91317   0.83404   0.74930   0.00000  Uiso   1.00
O1571  O     0.83333   0.87156   0.68392   0.00000  Uiso   1.00
O1572  O     0.83334   0.79511   0.81608   0.00000  Uiso   1.00
O1573  O     0.83334   0.87156   0.81607   0.00000  Uiso   1.00
O1574  O     0.83333   0.79511   0.68392   0.00000  Uiso   1.00
C1575  C     0.83485   0.83301   0.66374   0.00000  Uiso   1.00
C1576  C     0.83184   0.83365   0.83629   0.00000  Uiso   1.00
Zn1577 Zn    0.83333   0.88437   0.75000   0.00000  Uiso   1.00
Zn1578 Zn    0.83333   0.78229   0.75000   0.00000  Uiso   1.00
C1579  C     0.85983   0.85996   0.90740   0.00000  Uiso   1.00
C1580  C     0.80719   0.80676   0.59259   0.00000  Uiso   1.00
C1581  C     0.82933   0.83459   0.88404   0.00000  Uiso   1.00
C1582  C     0.83765   0.83204   0.61604   0.00000  Uiso   1.00
C1583  C     0.79915   0.80882   0.90597   0.00000  Uiso   1.00
C1584  C     0.86807   0.85772   0.59428   0.00000  Uiso   1.00
C1585  C     0.79772   0.81264   0.95303   0.00000  Uiso   1.00
C1586  C     0.86938   0.85431   0.54714   0.00000  Uiso   1.00
C1587  C     0.83204   0.83445   0.97674   0.00000  Uiso   1.00
C1588  C     0.83499   0.83264   0.52339   0.00000  Uiso   1.00
C1589  C     0.86339   0.85814   0.95365   0.00000  Uiso   1.00
C1590  C     0.80364   0.80885   0.54641   0.00000  Uiso   1.00
C1591  C     0.76370   0.79470   0.97706   0.00000  Uiso   1.00
C1592  C     0.90337   0.87232   0.52308   0.00000  Uiso   1.00
C1593  C     0.76808   0.78993   0.52345   0.00000  Uiso   1.00
C1594  C     0.89895   0.87712   0.97662   0.00000  Uiso   1.00
H1595  H     0.88289   0.87805   0.88848   0.00000  Uiso   1.00
H1596  H     0.78410   0.78852   0.61137   0.00000  Uiso   1.00
C1597  C     0.68612   0.79933   0.72603   0.00000  Uiso   1.00
C1598  C     0.98052   0.86750   0.77367   0.00000  Uiso   1.00
C1599  C     0.97667   0.80168   0.72294   0.00000  Uiso   1.00
C1600  C     0.68996   0.86516   0.77674   0.00000  Uiso   1.00
C1601  C     0.95741   0.83535   0.74753   0.00000  Uiso   1.00
C1602  C     0.70924   0.83143   0.75222   0.00000  Uiso   1.00
C1603  C     0.84764   0.69200   0.78657   0.00000  Uiso   1.00
C1604  C     0.81909   0.97468   0.71340   0.00000  Uiso   1.00
C1605  C     0.82063   0.68900   0.71282   0.00000  Uiso   1.00
C1606  C     0.84610   0.97767   0.78718   0.00000  Uiso   1.00
N1607  N     0.83333   0.95240   0.75000   0.00000  Uiso   1.00
N1608  N     0.83333   0.71427   0.75000   0.00000  Uiso   1.00
C1609  C     0.77265   0.77488   0.88014   0.00000  Uiso   1.00
O1610  O     0.77191   0.73577   0.89137   0.00000  Uiso   1.00
O1611  O     0.74826   0.78769   0.84362   0.00000  Uiso   1.00
H1612  H     0.73145   0.76163   0.82919   0.00000  Uiso   1.00
C1613  C     0.89485   0.89125   0.62037   0.00000  Uiso   1.00
O1614  O     0.91534   0.87990   0.65294   0.00000  Uiso   1.00
O1615  O     0.89668   0.93586   0.60719   0.00000  Uiso   1.00
H1616  H     0.91576   0.95552   0.62745   0.00000  Uiso   1.00
C1617  C     0.72200   0.78551   0.95516   0.00000  Uiso   1.00
O1618  O     0.70617   0.81425   0.93246   0.00000  Uiso   1.00
O1619  O     0.70106   0.74423   0.96038   0.00000  Uiso   1.00
H1620  H     0.67312   0.74222   0.94381   0.00000  Uiso   1.00
C1621  C     0.94506   0.88126   0.54514   0.00000  Uiso   1.00
O1622  O     0.96383   0.91708   0.54042   0.00000  Uiso   1.00
O1623  O     0.96250   0.84843   0.57165   0.00000  Uiso   1.00
H1624  H     0.99044   0.85854   0.58561   0.00000  Uiso   1.00
C1625  C     0.73434   0.76706   0.54807   0.00000  Uiso   1.00
O1626  O     0.70155   0.78553   0.55365   0.00000  Uiso   1.00
O1627  O     0.74022   0.72420   0.56429   0.00000  Uiso   1.00
H1628  H     0.71490   0.71171   0.57988   0.00000  Uiso   1.00
C1629  C     0.93294   0.89953   0.95191   0.00000  Uiso   1.00
O1630  O     0.92770   0.93625   0.93587   0.00000  Uiso   1.00
O1631  O     0.97094   0.87879   0.94774   0.00000  Uiso   1.00
H1632  H     0.99187   0.89764   0.93094   0.00000  Uiso   1.00
N1633  N     0.70602   0.76586   0.70031   0.00000  Uiso   1.00
O1634  O     0.71377   0.72775   0.71840   0.00000  Uiso   1.00
O1635  O     0.70742   0.76950   0.65715   0.00000  Uiso   1.00
N1636  N     0.96063   0.90103   0.79931   0.00000  Uiso   1.00
O1637  O     0.95283   0.93910   0.78113   0.00000  Uiso   1.00
O1638  O     0.95909   0.89744   0.84246   0.00000  Uiso   1.00
N1639  N     0.95307   0.77044   0.69409   0.00000  Uiso   1.00
O1640  O     0.92873   0.78483   0.66251   0.00000  Uiso   1.00
O1641  O     0.95653   0.72753   0.69870   0.00000  Uiso   1.00
N1642  N     0.71355   0.89659   0.80541   0.00000  Uiso   1.00
O1643  O     0.73777   0.88244   0.83721   0.00000  Uiso   1.00
O1644  O     0.71016   0.93946   0.80043   0.00000  Uiso   1.00
N1645  N     0.86708   0.71652   0.82356   0.00000  Uiso   1.00
O1646  O     0.85321   0.71189   0.86367   0.00000  Uiso   1.00
O1647  O     0.90293   0.73695   0.81854   0.00000  Uiso   1.00
N1648  N     0.79979   0.95016   0.67635   0.00000  Uiso   1.00
O1649  O     0.81396   0.95459   0.63634   0.00000  Uiso   1.00
O1650  O     0.76388   0.92978   0.68118   0.00000  Uiso   1.00
N1651  N     0.81142   0.71011   0.67166   0.00000  Uiso   1.00
O1652  O     0.77326   0.70904   0.65627   0.00000  Uiso   1.00
O1653  O     0.84130   0.71576   0.64368   0.00000  Uiso   1.00
N1654  N     0.85533   0.95655   0.82835   0.00000  Uiso   1.00
O1655  O     0.89346   0.95779   0.84384   0.00000  Uiso   1.00
O1656  O     0.82541   0.95080   0.85626   0.00000  Uiso   1.00
loop_
_geom_bond_atom_site_label_1
_geom_bond_atom_site_label_2
_geom_bond_distance
_geom_bond_site_symmetry_2
_ccdc_geom_bond_type
O1     C5      1.291   .     A
O1     Zn13    1.989   .     S
O2     C6      1.292   .     A
O2     Zn14    1.989   .     S
O3     C6      1.292   .     A
O3     Zn13    2.016   .     S
O4     C5      1.293   .     A
O4     Zn14    2.016   .     S
C5     C38     1.425   .     S
C6     C37     1.425   .     S
O7     C11     1.292   .     A
O7     Zn13    2.006   .     S
O8     C12     1.292   .     A
O8     Zn14    2.006   .     S
O9     Zn13    2.022   .     S
O9     C12     1.296   .     A
O10    Zn14    2.022   .     S
O10    C11     1.295   .     A
C11    C18     1.432   .     S
C12    C17     1.433   .     S
Zn13   N43     2.033   .     S
Zn14   N44     2.033   .     S
C15    C17     1.383   .     A
C15    H31     1.083   .     S
C15    C25     1.388   .     A
C16    C26     1.386   .     A
C16    H32     1.083   .     S
C16    C18     1.382   .     A
C17    C19     1.404   .     A
C18    C20     1.405   .     A
C19    C21     1.413   .     A
C19    C45     1.490   .     S
C20    C49     1.491   .     S
C20    C22     1.414   .     A
C21    C27     1.422   .     A
C21    C23     1.426   .     A
C22    C28     1.423   .     A
C22    C24     1.426   .     A
C23    C25     1.416   .     A
C23    C852    1.399   .     S
C24    C26     1.417   .     A
C24    C851    1.399   1_554 S
C25    C30     1.413   .     A
C26    C29     1.412   .     A
C27    C53     1.491   .     S
C27    C857    1.402   .     S
C28    C57     1.491   .     S
C28    C858    1.405   1_554 S
C29    C61     1.484   .     S
C29    C855    1.402   1_554 S
C30    C65     1.485   .     S
C30    C856    1.405   .     S
C33    N69     1.429   .     S
C33    C38     1.404   .     A
C33    C219    1.381   1_455 S
C34    C37     1.404   .     A
C34    N72     1.429   .     S
C34    C128    1.381   .     S
C35    N75     1.440   .     S
C35    C37     1.406   .     A
C35    C125    1.381   .     S
C36    C38     1.406   .     A
C36    N78     1.440   .     S
C36    C218    1.381   1_455 S
C39    N81     1.431   .     S
C39    N44     1.370   .     A
C39    C594    1.424   1_545 S
C40    N84     1.430   .     S
C40    N43     1.370   .     A
C40    C317    1.424   .     S
C41    N87     1.425   .     S
C41    N44     1.375   .     A
C41    C592    1.424   1_545 S
C42    N90     1.425   .     S
C42    N43     1.376   .     A
C42    C315    1.424   .     S
C45    O47     1.396   .     S
C45    O46     1.223   .     D
O47    H48     1.014   .     S
C49    O51     1.398   .     S
C49    O50     1.222   .     D
O51    H52     1.014   .     S
C53    O55     1.399   .     S
C53    O54     1.223   .     D
O55    H56     1.014   .     S
C57    O59     1.398   .     S
C57    O58     1.223   .     D
O59    H60     1.014   .     S
C61    O63     1.397   .     S
C61    O62     1.222   .     D
O63    H64     1.014   .     S
C65    O67     1.398   .     S
C65    O66     1.223   .     D
O67    H68     1.014   .     S
N69    O70     1.301   .     A
N69    O71     1.300   .     A
N72    O74     1.300   .     A
N72    O73     1.301   .     A
N75    O76     1.301   .     A
N75    O77     1.301   .     A
N78    O80     1.301   .     A
N78    O79     1.301   .     A
N81    O82     1.301   .     A
N81    O83     1.300   .     A
N84    O85     1.301   .     A
N84    O86     1.300   .     A
N87    O88     1.298   .     A
N87    O89     1.301   .     A
N90    O91     1.299   .     A
N90    O92     1.301   .     A
O93    C97     1.291   .     A
O93    Zn105   1.989   .     S
O94    C98     1.292   .     A
O94    Zn106   1.989   .     S
O95    C98     1.292   .     A
O95    Zn105   2.016   .     S
O96    C97     1.293   .     A
O96    Zn106   2.016   .     S
C97    C130    1.425   .     S
C98    C129    1.425   .     S
O99    C103    1.292   .     A
O99    Zn105   2.006   .     S
O100   C104    1.292   .     A
O100   Zn106   2.006   .     S
O101   Zn105   2.022   .     S
O101   C104    1.296   .     A
O102   Zn106   2.022   .     S
O102   C103    1.295   .     A
C103   C110    1.432   .     S
C104   C109    1.433   .     S
Zn105  N135    2.033   .     S
Zn106  N136    2.033   .     S
C107   C109    1.383   .     A
C107   H123    1.083   .     S
C107   C117    1.388   .     A
C108   C118    1.386   .     A
C108   H124    1.083   .     S
C108   C110    1.382   .     A
C109   C111    1.404   .     A
C110   C112    1.405   .     A
C111   C113    1.413   .     A
C111   C137    1.490   .     S
C112   C141    1.491   .     S
C112   C114    1.414   .     A
C113   C119    1.422   .     A
C113   C115    1.426   .     A
C114   C120    1.423   .     A
C114   C116    1.426   .     A
C115   C117    1.416   .     A
C115   C944    1.399   .     S
C116   C118    1.417   .     A
C116   C943    1.399   1_554 S
C117   C122    1.413   .     A
C118   C121    1.412   .     A
C119   C145    1.491   .     S
C119   C949    1.402   .     S
C120   C149    1.491   .     S
C120   C950    1.405   1_554 S
C121   C153    1.484   .     S
C121   C947    1.402   1_554 S
C122   C157    1.485   .     S
C122   C948    1.405   .     S
C125   N161    1.429   .     S
C125   C130    1.404   .     A
C126   C129    1.404   .     A
C126   N164    1.429   .     S
C126   C220    1.381   .     S
C127   N167    1.440   .     S
C127   C129    1.406   .     A
C127   C217    1.381   .     S
C128   C130    1.406   .     A
C128   N170    1.440   .     S
C131   N173    1.431   .     S
C131   N136    1.370   .     A
C131   C686    1.424   1_545 S
C132   N176    1.430   .     S
C132   N135    1.370   .     A
C132   C409    1.424   .     S
C133   N179    1.425   .     S
C133   N136    1.375   .     A
C133   C684    1.424   1_545 S
C134   N182    1.425   .     S
C134   N135    1.376   .     A
C134   C407    1.424   .     S
C137   O139    1.396   .     S
C137   O138    1.223   .     D
O139   H140    1.014   .     S
C141   O143    1.398   .     S
C141   O142    1.222   .     D
O143   H144    1.014   .     S
C145   O147    1.399   .     S
C145   O146    1.223   .     D
O147   H148    1.014   .     S
C149   O151    1.398   .     S
C149   O150    1.223   .     D
O151   H152    1.014   .     S
C153   O155    1.397   .     S
C153   O154    1.222   .     D
O155   H156    1.014   .     S
C157   O159    1.398   .     S
C157   O158    1.223   .     D
O159   H160    1.014   .     S
N161   O162    1.301   .     A
N161   O163    1.300   .     A
N164   O166    1.300   .     A
N164   O165    1.301   .     A
N167   O168    1.301   .     A
N167   O169    1.301   .     A
N170   O172    1.301   .     A
N170   O171    1.301   .     A
N173   O174    1.301   .     A
N173   O175    1.300   .     A
N176   O177    1.301   .     A
N176   O178    1.300   .     A
N179   O180    1.298   .     A
N179   O181    1.301   .     A
N182   O183    1.299   .     A
N182   O184    1.301   .     A
O185   C189    1.291   .     A
O185   Zn197   1.989   .     S
O186   C190    1.292   .     A
O186   Zn198   1.989   .     S
O187   C190    1.292   .     A
O187   Zn197   2.016   .     S
O188   C189    1.293   .     A
O188   Zn198   2.016   .     S
C189   C222    1.425   .     S
C190   C221    1.425   .     S
O191   C195    1.292   .     A
O191   Zn197   2.006   .     S
O192   C196    1.292   .     A
O192   Zn198   2.006   .     S
O193   Zn197   2.022   .     S
O193   C196    1.296   .     A
O194   Zn198   2.022   .     S
O194   C195    1.295   .     A
C195   C202    1.432   .     S
C196   C201    1.433   .     S
Zn197  N227    2.033   .     S
Zn198  N228    2.033   .     S
C199   C201    1.383   .     A
C199   H215    1.083   .     S
C199   C209    1.388   .     A
C200   C210    1.386   .     A
C200   H216    1.083   .     S
C200   C202    1.382   .     A
C201   C203    1.404   .     A
C202   C204    1.405   .     A
C203   C205    1.413   .     A
C203   C229    1.490   .     S
C204   C233    1.491   .     S
C204   C206    1.414   .     A
C205   C211    1.422   .     A
C205   C207    1.426   .     A
C206   C212    1.423   .     A
C206   C208    1.426   .     A
C207   C209    1.416   .     A
C207   C1036   1.399   .     S
C208   C210    1.417   .     A
C208   C1035   1.399   1_554 S
C209   C214    1.413   .     A
C210   C213    1.412   .     A
C211   C237    1.491   .     S
C211   C1041   1.402   .     S
C212   C241    1.491   .     S
C212   C1042   1.405   1_554 S
C213   C245    1.484   .     S
C213   C1039   1.402   1_554 S
C214   C249    1.485   .     S
C214   C1040   1.405   .     S
C217   N253    1.429   .     S
C217   C222    1.404   .     A
C218   C221    1.404   .     A
C218   N256    1.429   .     S
C218   C36     1.381   1_655 S
C219   N259    1.440   .     S
C219   C221    1.406   .     A
C219   C33     1.381   1_655 S
C220   C222    1.406   .     A
C220   N262    1.440   .     S
C223   N265    1.431   .     S
C223   N228    1.370   .     A
C223   C778    1.424   1_545 S
C224   N268    1.430   .     S
C224   N227    1.370   .     A
C224   C501    1.424   .     S
C225   N271    1.425   .     S
C225   N228    1.375   .     A
C225   C776    1.424   1_545 S
C226   N274    1.425   .     S
C226   N227    1.376   .     A
C226   C499    1.424   .     S
C229   O231    1.396   .     S
C229   O230    1.223   .     D
O231   H232    1.014   .     S
C233   O235    1.398   .     S
C233   O234    1.222   .     D
O235   H236    1.014   .     S
C237   O239    1.399   .     S
C237   O238    1.223   .     D
O239   H240    1.014   .     S
C241   O243    1.398   .     S
C241   O242    1.223   .     D
O243   H244    1.014   .     S
C245   O247    1.397   .     S
C245   O246    1.222   .     D
O247   H248    1.014   .     S
C249   O251    1.398   .     S
C249   O250    1.223   .     D
O251   H252    1.014   .     S
N253   O254    1.301   .     A
N253   O255    1.300   .     A
N256   O258    1.300   .     A
N256   O257    1.301   .     A
N259   O260    1.301   .     A
N259   O261    1.301   .     A
N262   O264    1.301   .     A
N262   O263    1.301   .     A
N265   O266    1.301   .     A
N265   O267    1.300   .     A
N268   O269    1.301   .     A
N268   O270    1.300   .     A
N271   O272    1.298   .     A
N271   O273    1.301   .     A
N274   O275    1.299   .     A
N274   O276    1.301   .     A
O277   C281    1.291   .     A
O277   Zn289   1.989   .     S
O278   C282    1.292   .     A
O278   Zn290   1.989   .     S
O279   C282    1.292   .     A
O279   Zn289   2.016   .     S
O280   C281    1.293   .     A
O280   Zn290   2.016   .     S
C281   C314    1.425   .     S
C282   C313    1.425   .     S
O283   C287    1.292   .     A
O283   Zn289   2.006   .     S
O284   C288    1.292   .     A
O284   Zn290   2.006   .     S
O285   Zn289   2.022   .     S
O285   C288    1.296   .     A
O286   Zn290   2.022   .     S
O286   C287    1.295   .     A
C287   C294    1.432   .     S
C288   C293    1.433   .     S
Zn289  N319    2.033   .     S
Zn290  N320    2.033   .     S
C291   C293    1.383   .     A
C291   H307    1.083   .     S
C291   C301    1.388   .     A
C292   C302    1.386   .     A
C292   H308    1.083   .     S
C292   C294    1.382   .     A
C293   C295    1.404   .     A
C294   C296    1.405   .     A
C295   C297    1.413   .     A
C295   C321    1.490   .     S
C296   C325    1.491   .     S
C296   C298    1.414   .     A
C297   C303    1.422   .     A
C297   C299    1.426   .     A
C298   C304    1.423   .     A
C298   C300    1.426   .     A
C299   C301    1.416   .     A
C299   C1128   1.399   .     S
C300   C302    1.417   .     A
C300   C1127   1.399   1_554 S
C301   C306    1.413   .     A
C302   C305    1.412   .     A
C303   C329    1.491   .     S
C303   C1133   1.402   .     S
C304   C333    1.491   .     S
C304   C1134   1.405   1_554 S
C305   C337    1.484   .     S
C305   C1131   1.402   1_554 S
C306   C341    1.485   .     S
C306   C1132   1.405   .     S
C309   N345    1.429   .     S
C309   C314    1.404   .     A
C309   C495    1.381   1_455 S
C310   C313    1.404   .     A
C310   N348    1.429   .     S
C310   C404    1.381   .     S
C311   N351    1.440   .     S
C311   C313    1.406   .     A
C311   C401    1.381   .     S
C312   C314    1.406   .     A
C312   N354    1.440   .     S
C312   C494    1.381   1_455 S
C315   N357    1.431   .     S
C315   N320    1.370   .     A
C316   N360    1.430   .     S
C316   N319    1.370   .     A
C316   C593    1.424   .     S
C317   N363    1.425   .     S
C317   N320    1.375   .     A
C318   N366    1.425   .     S
C318   N319    1.376   .     A
C318   C591    1.424   .     S
C321   O323    1.396   .     S
C321   O322    1.223   .     D
O323   H324    1.014   .     S
C325   O327    1.398   .     S
C325   O326    1.222   .     D
O327   H328    1.014   .     S
C329   O331    1.399   .     S
C329   O330    1.223   .     D
O331   H332    1.014   .     S
C333   O335    1.398   .     S
C333   O334    1.223   .     D
O335   H336    1.014   .     S
C337   O339    1.397   .     S
C337   O338    1.222   .     D
O339   H340    1.014   .     S
C341   O343    1.398   .     S
C341   O342    1.223   .     D
O343   H344    1.014   .     S
N345   O346    1.301   .     A
N345   O347    1.300   .     A
N348   O350    1.300   .     A
N348   O349    1.301   .     A
N351   O352    1.301   .     A
N351   O353    1.301   .     A
N354   O356    1.301   .     A
N354   O355    1.301   .     A
N357   O358    1.301   .     A
N357   O359    1.300   .     A
N360   O361    1.301   .     A
N360   O362    1.300   .     A
N363   O364    1.298   .     A
N363   O365    1.301   .     A
N366   O367    1.299   .     A
N366   O368    1.301   .     A
O369   C373    1.291   .     A
O369   Zn381   1.989   .     S
O370   C374    1.292   .     A
O370   Zn382   1.989   .     S
O371   C374    1.292   .     A
O371   Zn381   2.016   .     S
O372   C373    1.293   .     A
O372   Zn382   2.016   .     S
C373   C406    1.425   .     S
C374   C405    1.425   .     S
O375   C379    1.292   .     A
O375   Zn381   2.006   .     S
O376   C380    1.292   .     A
O376   Zn382   2.006   .     S
O377   Zn381   2.022   .     S
O377   C380    1.296   .     A
O378   Zn382   2.022   .     S
O378   C379    1.295   .     A
C379   C386    1.432   .     S
C380   C385    1.433   .     S
Zn381  N411    2.033   .     S
Zn382  N412    2.033   .     S
C383   C385    1.383   .     A
C383   H399    1.083   .     S
C383   C393    1.388   .     A
C384   C394    1.386   .     A
C384   H400    1.083   .     S
C384   C386    1.382   .     A
C385   C387    1.404   .     A
C386   C388    1.405   .     A
C387   C389    1.413   .     A
C387   C413    1.490   .     S
C388   C417    1.491   .     S
C388   C390    1.414   .     A
C389   C395    1.422   .     A
C389   C391    1.426   .     A
C390   C396    1.423   .     A
C390   C392    1.426   .     A
C391   C393    1.416   .     A
C391   C1220   1.399   .     S
C392   C394    1.417   .     A
C392   C1219   1.399   1_554 S
C393   C398    1.413   .     A
C394   C397    1.412   .     A
C395   C421    1.491   .     S
C395   C1225   1.402   .     S
C396   C425    1.491   .     S
C396   C1226   1.405   1_554 S
C397   C429    1.484   .     S
C397   C1223   1.402   1_554 S
C398   C433    1.485   .     S
C398   C1224   1.405   .     S
C401   N437    1.429   .     S
C401   C406    1.404   .     A
C402   C405    1.404   .     A
C402   N440    1.429   .     S
C402   C496    1.381   .     S
C403   N443    1.440   .     S
C403   C405    1.406   .     A
C403   C493    1.381   .     S
C404   C406    1.406   .     A
C404   N446    1.440   .     S
C407   N449    1.431   .     S
C407   N412    1.370   .     A
C408   N452    1.430   .     S
C408   N411    1.370   .     A
C408   C685    1.424   .     S
C409   N455    1.425   .     S
C409   N412    1.375   .     A
C410   N458    1.425   .     S
C410   N411    1.376   .     A
C410   C683    1.424   .     S
C413   O415    1.396   .     S
C413   O414    1.223   .     D
O415   H416    1.014   .     S
C417   O419    1.398   .     S
C417   O418    1.222   .     D
O419   H420    1.014   .     S
C421   O423    1.399   .     S
C421   O422    1.223   .     D
O423   H424    1.014   .     S
C425   O427    1.398   .     S
C425   O426    1.223   .     D
O427   H428    1.014   .     S
C429   O431    1.397   .     S
C429   O430    1.222   .     D
O431   H432    1.014   .     S
C433   O435    1.398   .     S
C433   O434    1.223   .     D
O435   H436    1.014   .     S
N437   O438    1.301   .     A
N437   O439    1.300   .     A
N440   O442    1.300   .     A
N440   O441    1.301   .     A
N443   O444    1.301   .     A
N443   O445    1.301   .     A
N446   O448    1.301   .     A
N446   O447    1.301   .     A
N449   O450    1.301   .     A
N449   O451    1.300   .     A
N452   O453    1.301   .     A
N452   O454    1.300   .     A
N455   O456    1.298   .     A
N455   O457    1.301   .     A
N458   O459    1.299   .     A
N458   O460    1.301   .     A
O461   C465    1.291   .     A
O461   Zn473   1.989   .     S
O462   C466    1.292   .     A
O462   Zn474   1.989   .     S
O463   C466    1.292   .     A
O463   Zn473   2.016   .     S
O464   C465    1.293   .     A
O464   Zn474   2.016   .     S
C465   C498    1.425   .     S
C466   C497    1.425   .     S
O467   C471    1.292   .     A
O467   Zn473   2.006   .     S
O468   C472    1.292   .     A
O468   Zn474   2.006   .     S
O469   Zn473   2.022   .     S
O469   C472    1.296   .     A
O470   Zn474   2.022   .     S
O470   C471    1.295   .     A
C471   C478    1.432   .     S
C472   C477    1.433   .     S
Zn473  N503    2.033   .     S
Zn474  N504    2.033   .     S
C475   C477    1.383   .     A
C475   H491    1.083   .     S
C475   C485    1.388   .     A
C476   C486    1.386   .     A
C476   H492    1.083   .     S
C476   C478    1.382   .     A
C477   C479    1.404   .     A
C478   C480    1.405   .     A
C479   C481    1.413   .     A
C479   C505    1.490   .     S
C480   C509    1.491   .     S
C480   C482    1.414   .     A
C481   C487    1.422   .     A
C481   C483    1.426   .     A
C482   C488    1.423   .     A
C482   C484    1.426   .     A
C483   C485    1.416   .     A
C483   C1312   1.399   .     S
C484   C486    1.417   .     A
C484   C1311   1.399   1_554 S
C485   C490    1.413   .     A
C486   C489    1.412   .     A
C487   C513    1.491   .     S
C487   C1317   1.402   .     S
C488   C517    1.491   .     S
C488   C1318   1.405   1_554 S
C489   C521    1.484   .     S
C489   C1315   1.402   1_554 S
C490   C525    1.485   .     S
C490   C1316   1.405   .     S
C493   N529    1.429   .     S
C493   C498    1.404   .     A
C494   C497    1.404   .     A
C494   N532    1.429   .     S
C494   C312    1.381   1_655 S
C495   N535    1.440   .     S
C495   C497    1.406   .     A
C495   C309    1.381   1_655 S
C496   C498    1.406   .     A
C496   N538    1.440   .     S
C499   N541    1.431   .     S
C499   N504    1.370   .     A
C500   N544    1.430   .     S
C500   N503    1.370   .     A
C500   C777    1.424   .     S
C501   N547    1.425   .     S
C501   N504    1.375   .     A
C502   N550    1.425   .     S
C502   N503    1.376   .     A
C502   C775    1.424   .     S
C505   O507    1.396   .     S
C505   O506    1.223   .     D
O507   H508    1.014   .     S
C509   O511    1.398   .     S
C509   O510    1.222   .     D
O511   H512    1.014   .     S
C513   O515    1.399   .     S
C513   O514    1.223   .     D
O515   H516    1.014   .     S
C517   O519    1.398   .     S
C517   O518    1.223   .     D
O519   H520    1.014   .     S
C521   O523    1.397   .     S
C521   O522    1.222   .     D
O523   H524    1.014   .     S
C525   O527    1.398   .     S
C525   O526    1.223   .     D
O527   H528    1.014   .     S
N529   O530    1.301   .     A
N529   O531    1.300   .     A
N532   O534    1.300   .     A
N532   O533    1.301   .     A
N535   O536    1.301   .     A
N535   O537    1.301   .     A
N538   O540    1.301   .     A
N538   O539    1.301   .     A
N541   O542    1.301   .     A
N541   O543    1.300   .     A
N544   O545    1.301   .     A
N544   O546    1.300   .     A
N547   O548    1.298   .     A
N547   O549    1.301   .     A
N550   O551    1.299   .     A
N550   O552    1.301   .     A
O553   C557    1.291   .     A
O553   Zn565   1.989   .     S
O554   C558    1.292   .     A
O554   Zn566   1.989   .     S
O555   C558    1.292   .     A
O555   Zn565   2.016   .     S
O556   C557    1.293   .     A
O556   Zn566   2.016   .     S
C557   C590    1.425   .     S
C558   C589    1.425   .     S
O559   C563    1.292   .     A
O559   Zn565   2.006   .     S
O560   C564    1.292   .     A
O560   Zn566   2.006   .     S
O561   Zn565   2.022   .     S
O561   C564    1.296   .     A
O562   Zn566   2.022   .     S
O562   C563    1.295   .     A
C563   C570    1.432   .     S
C564   C569    1.433   .     S
Zn565  N595    2.033   .     S
Zn566  N596    2.033   .     S
C567   C569    1.383   .     A
C567   H583    1.083   .     S
C567   C577    1.388   .     A
C568   C578    1.386   .     A
C568   H584    1.083   .     S
C568   C570    1.382   .     A
C569   C571    1.404   .     A
C570   C572    1.405   .     A
C571   C573    1.413   .     A
C571   C597    1.490   .     S
C572   C601    1.491   .     S
C572   C574    1.414   .     A
C573   C579    1.422   .     A
C573   C575    1.426   .     A
C574   C580    1.423   .     A
C574   C576    1.426   .     A
C575   C577    1.416   .     A
C575   C1404   1.399   .     S
C576   C578    1.417   .     A
C576   C1403   1.399   1_554 S
C577   C582    1.413   .     A
C578   C581    1.412   .     A
C579   C605    1.491   .     S
C579   C1409   1.402   .     S
C580   C609    1.491   .     S
C580   C1410   1.405   1_554 S
C581   C613    1.484   .     S
C581   C1407   1.402   1_554 S
C582   C617    1.485   .     S
C582   C1408   1.405   .     S
C585   N621    1.429   .     S
C585   C590    1.404   .     A
C585   C771    1.381   1_455 S
C586   C589    1.404   .     A
C586   N624    1.429   .     S
C586   C680    1.381   .     S
C587   N627    1.440   .     S
C587   C589    1.406   .     A
C587   C677    1.381   .     S
C588   C590    1.406   .     A
C588   N630    1.440   .     S
C588   C770    1.381   1_455 S
C591   N633    1.431   .     S
C591   N596    1.370   .     A
C592   N636    1.430   .     S
C592   N595    1.370   .     A
C592   C41     1.424   1_565 S
C593   N639    1.425   .     S
C593   N596    1.375   .     A
C594   N642    1.425   .     S
C594   N595    1.376   .     A
C594   C39     1.424   1_565 S
C597   O599    1.396   .     S
C597   O598    1.223   .     D
O599   H600    1.014   .     S
C601   O603    1.398   .     S
C601   O602    1.222   .     D
O603   H604    1.014   .     S
C605   O607    1.399   .     S
C605   O606    1.223   .     D
O607   H608    1.014   .     S
C609   O611    1.398   .     S
C609   O610    1.223   .     D
O611   H612    1.014   .     S
C613   O615    1.397   .     S
C613   O614    1.222   .     D
O615   H616    1.014   .     S
C617   O619    1.398   .     S
C617   O618    1.223   .     D
O619   H620    1.014   .     S
N621   O622    1.301   .     A
N621   O623    1.300   .     A
N624   O626    1.300   .     A
N624   O625    1.301   .     A
N627   O628    1.301   .     A
N627   O629    1.301   .     A
N630   O632    1.301   .     A
N630   O631    1.301   .     A
N633   O634    1.301   .     A
N633   O635    1.300   .     A
N636   O637    1.301   .     A
N636   O638    1.300   .     A
N639   O640    1.298   .     A
N639   O641    1.301   .     A
N642   O643    1.299   .     A
N642   O644    1.301   .     A
O645   C649    1.291   .     A
O645   Zn657   1.989   .     S
O646   C650    1.292   .     A
O646   Zn658   1.989   .     S
O647   C650    1.292   .     A
O647   Zn657   2.016   .     S
O648   C649    1.293   .     A
O648   Zn658   2.016   .     S
C649   C682    1.425   .     S
C650   C681    1.425   .     S
O651   C655    1.292   .     A
O651   Zn657   2.006   .     S
O652   C656    1.292   .     A
O652   Zn658   2.006   .     S
O653   Zn657   2.022   .     S
O653   C656    1.296   .     A
O654   Zn658   2.022   .     S
O654   C655    1.295   .     A
C655   C662    1.432   .     S
C656   C661    1.433   .     S
Zn657  N687    2.033   .     S
Zn658  N688    2.033   .     S
C659   C661    1.383   .     A
C659   H675    1.083   .     S
C659   C669    1.388   .     A
C660   C670    1.386   .     A
C660   H676    1.083   .     S
C660   C662    1.382   .     A
C661   C663    1.404   .     A
C662   C664    1.405   .     A
C663   C665    1.413   .     A
C663   C689    1.490   .     S
C664   C693    1.491   .     S
C664   C666    1.414   .     A
C665   C671    1.422   .     A
C665   C667    1.426   .     A
C666   C672    1.423   .     A
C666   C668    1.426   .     A
C667   C669    1.416   .     A
C667   C1496   1.399   .     S
C668   C670    1.417   .     A
C668   C1495   1.399   1_554 S
C669   C674    1.413   .     A
C670   C673    1.412   .     A
C671   C697    1.491   .     S
C671   C1501   1.402   .     S
C672   C701    1.491   .     S
C672   C1502   1.405   1_554 S
C673   C705    1.484   .     S
C673   C1499   1.402   1_554 S
C674   C709    1.485   .     S
C674   C1500   1.405   .     S
C677   N713    1.429   .     S
C677   C682    1.404   .     A
C678   C681    1.404   .     A
C678   N716    1.429   .     S
C678   C772    1.381   .     S
C679   N719    1.440   .     S
C679   C681    1.406   .     A
C679   C769    1.381   .     S
C680   C682    1.406   .     A
C680   N722    1.440   .     S
C683   N725    1.431   .     S
C683   N688    1.370   .     A
C684   N728    1.430   .     S
C684   N687    1.370   .     A
C684   C133    1.424   1_565 S
C685   N731    1.425   .     S
C685   N688    1.375   .     A
C686   N734    1.425   .     S
C686   N687    1.376   .     A
C686   C131    1.424   1_565 S
C689   O691    1.396   .     S
C689   O690    1.223   .     D
O691   H692    1.014   .     S
C693   O695    1.398   .     S
C693   O694    1.222   .     D
O695   H696    1.014   .     S
C697   O699    1.399   .     S
C697   O698    1.223   .     D
O699   H700    1.014   .     S
C701   O703    1.398   .     S
C701   O702    1.223   .     D
O703   H704    1.014   .     S
C705   O707    1.397   .     S
C705   O706    1.222   .     D
O707   H708    1.014   .     S
C709   O711    1.398   .     S
C709   O710    1.223   .     D
O711   H712    1.014   .     S
N713   O714    1.301   .     A
N713   O715    1.300   .     A
N716   O718    1.300   .     A
N716   O717    1.301   .     A
N719   O720    1.301   .     A
N719   O721    1.301   .     A
N722   O724    1.301   .     A
N722   O723    1.301   .     A
N725   O726    1.301   .     A
N725   O727    1.300   .     A
N728   O729    1.301   .     A
N728   O730    1.300   .     A
N731   O732    1.298   .     A
N731   O733    1.301   .     A
N734   O735    1.299   .     A
N734   O736    1.301   .     A
O737   C741    1.291   .     A
O737   Zn749   1.989   .     S
O738   C742    1.292   .     A
O738   Zn750   1.989   .     S
O739   C742    1.292   .     A
O739   Zn749   2.016   .     S
O740   C741    1.293   .     A
O740   Zn750   2.016   .     S
C741   C774    1.425   .     S
C742   C773    1.425   .     S
O743   C747    1.292   .     A
O743   Zn749   2.006   .     S
O744   C748    1.292   .     A
O744   Zn750   2.006   .     S
O745   Zn749   2.022   .     S
O745   C748    1.296   .     A
O746   Zn750   2.022   .     S
O746   C747    1.295   .     A
C747   C754    1.432   .     S
C748   C753    1.433   .     S
Zn749  N779    2.033   .     S
Zn750  N780    2.033   .     S
C751   C753    1.383   .     A
C751   H767    1.083   .     S
C751   C761    1.388   .     A
C752   C762    1.386   .     A
C752   H768    1.083   .     S
C752   C754    1.382   .     A
C753   C755    1.404   .     A
C754   C756    1.405   .     A
C755   C757    1.413   .     A
C755   C781    1.490   .     S
C756   C785    1.491   .     S
C756   C758    1.414   .     A
C757   C763    1.422   .     A
C757   C759    1.426   .     A
C758   C764    1.423   .     A
C758   C760    1.426   .     A
C759   C761    1.416   .     A
C759   C1588   1.399   .     S
C760   C762    1.417   .     A
C760   C1587   1.399   1_554 S
C761   C766    1.413   .     A
C762   C765    1.412   .     A
C763   C789    1.491   .     S
C763   C1593   1.402   .     S
C764   C793    1.491   .     S
C764   C1594   1.405   1_554 S
C765   C797    1.484   .     S
C765   C1591   1.402   1_554 S
C766   C801    1.485   .     S
C766   C1592   1.405   .     S
C769   N805    1.429   .     S
C769   C774    1.404   .     A
C770   C773    1.404   .     A
C770   N808    1.429   .     S
C770   C588    1.381   1_655 S
C771   N811    1.440   .     S
C771   C773    1.406   .     A
C771   C585    1.381   1_655 S
C772   C774    1.406   .     A
C772   N814    1.440   .     S
C775   N817    1.431   .     S
C775   N780    1.370   .     A
C776   N820    1.430   .     S
C776   N779    1.370   .     A
C776   C225    1.424   1_565 S
C777   N823    1.425   .     S
C777   N780    1.375   .     A
C778   N826    1.425   .     S
C778   N779    1.376   .     A
C778   C223    1.424   1_565 S
C781   O783    1.396   .     S
C781   O782    1.223   .     D
O783   H784    1.014   .     S
C785   O787    1.398   .     S
C785   O786    1.222   .     D
O787   H788    1.014   .     S
C789   O791    1.399   .     S
C789   O790    1.223   .     D
O791   H792    1.014   .     S
C793   O795    1.398   .     S
C793   O794    1.223   .     D
O795   H796    1.014   .     S
C797   O799    1.397   .     S
C797   O798    1.222   .     D
O799   H800    1.014   .     S
C801   O803    1.398   .     S
C801   O802    1.223   .     D
O803   H804    1.014   .     S
N805   O806    1.301   .     A
N805   O807    1.300   .     A
N808   O810    1.300   .     A
N808   O809    1.301   .     A
N811   O812    1.301   .     A
N811   O813    1.301   .     A
N814   O816    1.301   .     A
N814   O815    1.301   .     A
N817   O818    1.301   .     A
N817   O819    1.300   .     A
N820   O821    1.301   .     A
N820   O822    1.300   .     A
N823   O824    1.298   .     A
N823   O825    1.301   .     A
N826   O827    1.299   .     A
N826   O828    1.301   .     A
O829   C833    1.291   .     A
O829   Zn841   1.989   .     S
O830   C834    1.292   .     A
O830   Zn842   1.989   .     S
O831   C834    1.292   .     A
O831   Zn841   2.016   .     S
O832   C833    1.293   .     A
O832   Zn842   2.016   .     S
C833   C866    1.425   .     S
C834   C865    1.425   .     S
O835   C839    1.292   .     A
O835   Zn841   2.006   .     S
O836   C840    1.292   .     A
O836   Zn842   2.006   .     S
O837   Zn841   2.022   .     S
O837   C840    1.296   .     A
O838   Zn842   2.022   .     S
O838   C839    1.295   .     A
C839   C846    1.432   .     S
C840   C845    1.433   .     S
Zn841  N871    2.033   .     S
Zn842  N872    2.033   .     S
C843   C845    1.383   .     A
C843   H859    1.083   .     S
C843   C853    1.388   .     A
C844   C854    1.386   .     A
C844   H860    1.083   .     S
C844   C846    1.382   .     A
C845   C847    1.404   .     A
C846   C848    1.405   .     A
C847   C849    1.413   .     A
C847   C873    1.490   .     S
C848   C877    1.491   .     S
C848   C850    1.414   .     A
C849   C855    1.422   .     A
C849   C851    1.426   .     A
C850   C856    1.423   .     A
C850   C852    1.426   .     A
C851   C853    1.416   .     A
C851   C24     1.399   1_556 S
C852   C854    1.417   .     A
C853   C858    1.413   .     A
C854   C857    1.412   .     A
C855   C881    1.491   .     S
C855   C29     1.402   1_556 S
C856   C885    1.491   .     S
C857   C889    1.484   .     S
C858   C893    1.485   .     S
C858   C28     1.405   1_556 S
C861   N897    1.429   .     S
C861   C866    1.404   .     A
C861   C1047   1.381   1_455 S
C862   C865    1.404   .     A
C862   N900    1.429   .     S
C862   C956    1.381   .     S
C863   N903    1.440   .     S
C863   C865    1.406   .     A
C863   C953    1.381   .     S
C864   C866    1.406   .     A
C864   N906    1.440   .     S
C864   C1046   1.381   1_455 S
C867   N909    1.431   .     S
C867   N872    1.370   .     A
C867   C1422   1.424   1_545 S
C868   N912    1.430   .     S
C868   N871    1.370   .     A
C868   C1145   1.424   .     S
C869   N915    1.425   .     S
C869   N872    1.375   .     A
C869   C1420   1.424   1_545 S
C870   N918    1.425   .     S
C870   N871    1.376   .     A
C870   C1143   1.424   .     S
C873   O875    1.396   .     S
C873   O874    1.223   .     D
O875   H876    1.014   .     S
C877   O879    1.398   .     S
C877   O878    1.222   .     D
O879   H880    1.014   .     S
C881   O883    1.399   .     S
C881   O882    1.223   .     D
O883   H884    1.014   .     S
C885   O887    1.398   .     S
C885   O886    1.223   .     D
O887   H888    1.014   .     S
C889   O891    1.397   .     S
C889   O890    1.222   .     D
O891   H892    1.014   .     S
C893   O895    1.398   .     S
C893   O894    1.223   .     D
O895   H896    1.014   .     S
N897   O898    1.301   .     A
N897   O899    1.300   .     A
N900   O902    1.300   .     A
N900   O901    1.301   .     A
N903   O904    1.301   .     A
N903   O905    1.301   .     A
N906   O908    1.301   .     A
N906   O907    1.301   .     A
N909   O910    1.301   .     A
N909   O911    1.300   .     A
N912   O913    1.301   .     A
N912   O914    1.300   .     A
N915   O916    1.298   .     A
N915   O917    1.301   .     A
N918   O919    1.299   .     A
N918   O920    1.301   .     A
O921   C925    1.291   .     A
O921   Zn933   1.989   .     S
O922   C926    1.292   .     A
O922   Zn934   1.989   .     S
O923   C926    1.292   .     A
O923   Zn933   2.016   .     S
O924   C925    1.293   .     A
O924   Zn934   2.016   .     S
C925   C958    1.425   .     S
C926   C957    1.425   .     S
O927   C931    1.292   .     A
O927   Zn933   2.006   .     S
O928   C932    1.292   .     A
O928   Zn934   2.006   .     S
O929   Zn933   2.022   .     S
O929   C932    1.296   .     A
O930   Zn934   2.022   .     S
O930   C931    1.295   .     A
C931   C938    1.432   .     S
C932   C937    1.433   .     S
Zn933  N963    2.033   .     S
Zn934  N964    2.033   .     S
C935   C937    1.383   .     A
C935   H951    1.083   .     S
C935   C945    1.388   .     A
C936   C946    1.386   .     A
C936   H952    1.083   .     S
C936   C938    1.382   .     A
C937   C939    1.404   .     A
C938   C940    1.405   .     A
C939   C941    1.413   .     A
C939   C965    1.490   .     S
C940   C969    1.491   .     S
C940   C942    1.414   .     A
C941   C947    1.422   .     A
C941   C943    1.426   .     A
C942   C948    1.423   .     A
C942   C944    1.426   .     A
C943   C945    1.416   .     A
C943   C116    1.399   1_556 S
C944   C946    1.417   .     A
C945   C950    1.413   .     A
C946   C949    1.412   .     A
C947   C973    1.491   .     S
C947   C121    1.402   1_556 S
C948   C977    1.491   .     S
C949   C981    1.484   .     S
C950   C985    1.485   .     S
C950   C120    1.405   1_556 S
C953   N989    1.429   .     S
C953   C958    1.404   .     A
C954   C957    1.404   .     A
C954   N992    1.429   .     S
C954   C1048   1.381   .     S
C955   N995    1.440   .     S
C955   C957    1.406   .     A
C955   C1045   1.381   .     S
C956   C958    1.406   .     A
C956   N998    1.440   .     S
C959   N1001   1.431   .     S
C959   N964    1.370   .     A
C959   C1514   1.424   1_545 S
C960   N1004   1.430   .     S
C960   N963    1.370   .     A
C960   C1237   1.424   .     S
C961   N1007   1.425   .     S
C961   N964    1.375   .     A
C961   C1512   1.424   1_545 S
C962   N1010   1.425   .     S
C962   N963    1.376   .     A
C962   C1235   1.424   .     S
C965   O967    1.396   .     S
C965   O966    1.223   .     D
O967   H968    1.014   .     S
C969   O971    1.398   .     S
C969   O970    1.222   .     D
O971   H972    1.014   .     S
C973   O975    1.399   .     S
C973   O974    1.223   .     D
O975   H976    1.014   .     S
C977   O979    1.398   .     S
C977   O978    1.223   .     D
O979   H980    1.014   .     S
C981   O983    1.397   .     S
C981   O982    1.222   .     D
O983   H984    1.014   .     S
C985   O987    1.398   .     S
C985   O986    1.223   .     D
O987   H988    1.014   .     S
N989   O990    1.301   .     A
N989   O991    1.300   .     A
N992   O994    1.300   .     A
N992   O993    1.301   .     A
N995   O996    1.301   .     A
N995   O997    1.301   .     A
N998   O1000   1.301   .     A
N998   O999    1.301   .     A
N1001  O1002   1.301   .     A
N1001  O1003   1.300   .     A
N1004  O1005   1.301   .     A
N1004  O1006   1.300   .     A
N1007  O1008   1.298   .     A
N1007  O1009   1.301   .     A
N1010  O1011   1.299   .     A
N1010  O1012   1.301   .     A
O1013  C1017   1.291   .     A
O1013  Zn1025  1.989   .     S
O1014  C1018   1.292   .     A
O1014  Zn1026  1.989   .     S
O1015  C1018   1.292   .     A
O1015  Zn1025  2.016   .     S
O1016  C1017   1.293   .     A
O1016  Zn1026  2.016   .     S
C1017  C1050   1.425   .     S
C1018  C1049   1.425   .     S
O1019  C1023   1.292   .     A
O1019  Zn1025  2.006   .     S
O1020  C1024   1.292   .     A
O1020  Zn1026  2.006   .     S
O1021  Zn1025  2.022   .     S
O1021  C1024   1.296   .     A
O1022  Zn1026  2.022   .     S
O1022  C1023   1.295   .     A
C1023  C1030   1.432   .     S
C1024  C1029   1.433   .     S
Zn1025 N1055   2.033   .     S
Zn1026 N1056   2.033   .     S
C1027  C1029   1.383   .     A
C1027  H1043   1.083   .     S
C1027  C1037   1.388   .     A
C1028  C1038   1.386   .     A
C1028  H1044   1.083   .     S
C1028  C1030   1.382   .     A
C1029  C1031   1.404   .     A
C1030  C1032   1.405   .     A
C1031  C1033   1.413   .     A
C1031  C1057   1.490   .     S
C1032  C1061   1.491   .     S
C1032  C1034   1.414   .     A
C1033  C1039   1.422   .     A
C1033  C1035   1.426   .     A
C1034  C1040   1.423   .     A
C1034  C1036   1.426   .     A
C1035  C1037   1.416   .     A
C1035  C208    1.399   1_556 S
C1036  C1038   1.417   .     A
C1037  C1042   1.413   .     A
C1038  C1041   1.412   .     A
C1039  C1065   1.491   .     S
C1039  C213    1.402   1_556 S
C1040  C1069   1.491   .     S
C1041  C1073   1.484   .     S
C1042  C1077   1.485   .     S
C1042  C212    1.405   1_556 S
C1045  N1081   1.429   .     S
C1045  C1050   1.404   .     A
C1046  C1049   1.404   .     A
C1046  N1084   1.429   .     S
C1046  C864    1.381   1_655 S
C1047  N1087   1.440   .     S
C1047  C1049   1.406   .     A
C1047  C861    1.381   1_655 S
C1048  C1050   1.406   .     A
C1048  N1090   1.440   .     S
C1051  N1093   1.431   .     S
C1051  N1056   1.370   .     A
C1051  C1606   1.424   1_545 S
C1052  N1096   1.430   .     S
C1052  N1055   1.370   .     A
C1052  C1329   1.424   .     S
C1053  N1099   1.425   .     S
C1053  N1056   1.375   .     A
C1053  C1604   1.424   1_545 S
C1054  N1102   1.425   .     S
C1054  N1055   1.376   .     A
C1054  C1327   1.424   .     S
C1057  O1059   1.396   .     S
C1057  O1058   1.223   .     D
O1059  H1060   1.014   .     S
C1061  O1063   1.398   .     S
C1061  O1062   1.222   .     D
O1063  H1064   1.014   .     S
C1065  O1067   1.399   .     S
C1065  O1066   1.223   .     D
O1067  H1068   1.014   .     S
C1069  O1071   1.398   .     S
C1069  O1070   1.223   .     D
O1071  H1072   1.014   .     S
C1073  O1075   1.397   .     S
C1073  O1074   1.222   .     D
O1075  H1076   1.014   .     S
C1077  O1079   1.398   .     S
C1077  O1078   1.223   .     D
O1079  H1080   1.014   .     S
N1081  O1082   1.301   .     A
N1081  O1083   1.300   .     A
N1084  O1086   1.300   .     A
N1084  O1085   1.301   .     A
N1087  O1088   1.301   .     A
N1087  O1089   1.301   .     A
N1090  O1092   1.301   .     A
N1090  O1091   1.301   .     A
N1093  O1094   1.301   .     A
N1093  O1095   1.300   .     A
N1096  O1097   1.301   .     A
N1096  O1098   1.300   .     A
N1099  O1100   1.298   .     A
N1099  O1101   1.301   .     A
N1102  O1103   1.299   .     A
N1102  O1104   1.301   .     A
O1105  C1109   1.291   .     A
O1105  Zn1117  1.989   .     S
O1106  C1110   1.292   .     A
O1106  Zn1118  1.989   .     S
O1107  C1110   1.292   .     A
O1107  Zn1117  2.016   .     S
O1108  C1109   1.293   .     A
O1108  Zn1118  2.016   .     S
C1109  C1142   1.425   .     S
C1110  C1141   1.425   .     S
O1111  C1115   1.292   .     A
O1111  Zn1117  2.006   .     S
O1112  C1116   1.292   .     A
O1112  Zn1118  2.006   .     S
O1113  Zn1117  2.022   .     S
O1113  C1116   1.296   .     A
O1114  Zn1118  2.022   .     S
O1114  C1115   1.295   .     A
C1115  C1122   1.432   .     S
C1116  C1121   1.433   .     S
Zn1117 N1147   2.033   .     S
Zn1118 N1148   2.033   .     S
C1119  C1121   1.383   .     A
C1119  H1135   1.083   .     S
C1119  C1129   1.388   .     A
C1120  C1130   1.386   .     A
C1120  H1136   1.083   .     S
C1120  C1122   1.382   .     A
C1121  C1123   1.404   .     A
C1122  C1124   1.405   .     A
C1123  C1125   1.413   .     A
C1123  C1149   1.490   .     S
C1124  C1153   1.491   .     S
C1124  C1126   1.414   .     A
C1125  C1131   1.422   .     A
C1125  C1127   1.426   .     A
C1126  C1132   1.423   .     A
C1126  C1128   1.426   .     A
C1127  C1129   1.416   .     A
C1127  C300    1.399   1_556 S
C1128  C1130   1.417   .     A
C1129  C1134   1.413   .     A
C1130  C1133   1.412   .     A
C1131  C1157   1.491   .     S
C1131  C305    1.402   1_556 S
C1132  C1161   1.491   .     S
C1133  C1165   1.484   .     S
C1134  C1169   1.485   .     S
C1134  C304    1.405   1_556 S
C1137  N1173   1.429   .     S
C1137  C1142   1.404   .     A
C1137  C1323   1.381   1_455 S
C1138  C1141   1.404   .     A
C1138  N1176   1.429   .     S
C1138  C1232   1.381   .     S
C1139  N1179   1.440   .     S
C1139  C1141   1.406   .     A
C1139  C1229   1.381   .     S
C1140  C1142   1.406   .     A
C1140  N1182   1.440   .     S
C1140  C1322   1.381   1_455 S
C1143  N1185   1.431   .     S
C1143  N1148   1.370   .     A
C1144  N1188   1.430   .     S
C1144  N1147   1.370   .     A
C1144  C1421   1.424   .     S
C1145  N1191   1.425   .     S
C1145  N1148   1.375   .     A
C1146  N1194   1.425   .     S
C1146  N1147   1.376   .     A
C1146  C1419   1.424   .     S
C1149  O1151   1.396   .     S
C1149  O1150   1.223   .     D
O1151  H1152   1.014   .     S
C1153  O1155   1.398   .     S
C1153  O1154   1.222   .     D
O1155  H1156   1.014   .     S
C1157  O1159   1.399   .     S
C1157  O1158   1.223   .     D
O1159  H1160   1.014   .     S
C1161  O1163   1.398   .     S
C1161  O1162   1.223   .     D
O1163  H1164   1.014   .     S
C1165  O1167   1.397   .     S
C1165  O1166   1.222   .     D
O1167  H1168   1.014   .     S
C1169  O1171   1.398   .     S
C1169  O1170   1.223   .     D
O1171  H1172   1.014   .     S
N1173  O1174   1.301   .     A
N1173  O1175   1.300   .     A
N1176  O1178   1.300   .     A
N1176  O1177   1.301   .     A
N1179  O1180   1.301   .     A
N1179  O1181   1.301   .     A
N1182  O1184   1.301   .     A
N1182  O1183   1.301   .     A
N1185  O1186   1.301   .     A
N1185  O1187   1.300   .     A
N1188  O1189   1.301   .     A
N1188  O1190   1.300   .     A
N1191  O1192   1.298   .     A
N1191  O1193   1.301   .     A
N1194  O1195   1.299   .     A
N1194  O1196   1.301   .     A
O1197  C1201   1.291   .     A
O1197  Zn1209  1.989   .     S
O1198  C1202   1.292   .     A
O1198  Zn1210  1.989   .     S
O1199  C1202   1.292   .     A
O1199  Zn1209  2.016   .     S
O1200  C1201   1.293   .     A
O1200  Zn1210  2.016   .     S
C1201  C1234   1.425   .     S
C1202  C1233   1.425   .     S
O1203  C1207   1.292   .     A
O1203  Zn1209  2.006   .     S
O1204  C1208   1.292   .     A
O1204  Zn1210  2.006   .     S
O1205  Zn1209  2.022   .     S
O1205  C1208   1.296   .     A
O1206  Zn1210  2.022   .     S
O1206  C1207   1.295   .     A
C1207  C1214   1.432   .     S
C1208  C1213   1.433   .     S
Zn1209 N1239   2.033   .     S
Zn1210 N1240   2.033   .     S
C1211  C1213   1.383   .     A
C1211  H1227   1.083   .     S
C1211  C1221   1.388   .     A
C1212  C1222   1.386   .     A
C1212  H1228   1.083   .     S
C1212  C1214   1.382   .     A
C1213  C1215   1.404   .     A
C1214  C1216   1.405   .     A
C1215  C1217   1.413   .     A
C1215  C1241   1.490   .     S
C1216  C1245   1.491   .     S
C1216  C1218   1.414   .     A
C1217  C1223   1.422   .     A
C1217  C1219   1.426   .     A
C1218  C1224   1.423   .     A
C1218  C1220   1.426   .     A
C1219  C1221   1.416   .     A
C1219  C392    1.399   1_556 S
C1220  C1222   1.417   .     A
C1221  C1226   1.413   .     A
C1222  C1225   1.412   .     A
C1223  C1249   1.491   .     S
C1223  C397    1.402   1_556 S
C1224  C1253   1.491   .     S
C1225  C1257   1.484   .     S
C1226  C1261   1.485   .     S
C1226  C396    1.405   1_556 S
C1229  N1265   1.429   .     S
C1229  C1234   1.404   .     A
C1230  C1233   1.404   .     A
C1230  N1268   1.429   .     S
C1230  C1324   1.381   .     S
C1231  N1271   1.440   .     S
C1231  C1233   1.406   .     A
C1231  C1321   1.381   .     S
C1232  C1234   1.406   .     A
C1232  N1274   1.440   .     S
C1235  N1277   1.431   .     S
C1235  N1240   1.370   .     A
C1236  N1280   1.430   .     S
C1236  N1239   1.370   .     A
C1236  C1513   1.424   .     S
C1237  N1283   1.425   .     S
C1237  N1240   1.375   .     A
C1238  N1286   1.425   .     S
C1238  N1239   1.376   .     A
C1238  C1511   1.424   .     S
C1241  O1243   1.396   .     S
C1241  O1242   1.223   .     D
O1243  H1244   1.014   .     S
C1245  O1247   1.398   .     S
C1245  O1246   1.222   .     D
O1247  H1248   1.014   .     S
C1249  O1251   1.399   .     S
C1249  O1250   1.223   .     D
O1251  H1252   1.014   .     S
C1253  O1255   1.398   .     S
C1253  O1254   1.223   .     D
O1255  H1256   1.014   .     S
C1257  O1259   1.397   .     S
C1257  O1258   1.222   .     D
O1259  H1260   1.014   .     S
C1261  O1263   1.398   .     S
C1261  O1262   1.223   .     D
O1263  H1264   1.014   .     S
N1265  O1266   1.301   .     A
N1265  O1267   1.300   .     A
N1268  O1270   1.300   .     A
N1268  O1269   1.301   .     A
N1271  O1272   1.301   .     A
N1271  O1273   1.301   .     A
N1274  O1276   1.301   .     A
N1274  O1275   1.301   .     A
N1277  O1278   1.301   .     A
N1277  O1279   1.300   .     A
N1280  O1281   1.301   .     A
N1280  O1282   1.300   .     A
N1283  O1284   1.298   .     A
N1283  O1285   1.301   .     A
N1286  O1287   1.299   .     A
N1286  O1288   1.301   .     A
O1289  C1293   1.291   .     A
O1289  Zn1301  1.989   .     S
O1290  C1294   1.292   .     A
O1290  Zn1302  1.989   .     S
O1291  C1294   1.292   .     A
O1291  Zn1301  2.016   .     S
O1292  C1293   1.293   .     A
O1292  Zn1302  2.016   .     S
C1293  C1326   1.425   .     S
C1294  C1325   1.425   .     S
O1295  C1299   1.292   .     A
O1295  Zn1301  2.006   .     S
O1296  C1300   1.292   .     A
O1296  Zn1302  2.006   .     S
O1297  Zn1301  2.022   .     S
O1297  C1300   1.296   .     A
O1298  Zn1302  2.022   .     S
O1298  C1299   1.295   .     A
C1299  C1306   1.432   .     S
C1300  C1305   1.433   .     S
Zn1301 N1331   2.033   .     S
Zn1302 N1332   2.033   .     S
C1303  C1305   1.383   .     A
C1303  H1319   1.083   .     S
C1303  C1313   1.388   .     A
C1304  C1314   1.386   .     A
C1304  H1320   1.083   .     S
C1304  C1306   1.382   .     A
C1305  C1307   1.404   .     A
C1306  C1308   1.405   .     A
C1307  C1309   1.413   .     A
C1307  C1333   1.490   .     S
C1308  C1337   1.491   .     S
C1308  C1310   1.414   .     A
C1309  C1315   1.422   .     A
C1309  C1311   1.426   .     A
C1310  C1316   1.423   .     A
C1310  C1312   1.426   .     A
C1311  C1313   1.416   .     A
C1311  C484    1.399   1_556 S
C1312  C1314   1.417   .     A
C1313  C1318   1.413   .     A
C1314  C1317   1.412   .     A
C1315  C1341   1.491   .     S
C1315  C489    1.402   1_556 S
C1316  C1345   1.491   .     S
C1317  C1349   1.484   .     S
C1318  C1353   1.485   .     S
C1318  C488    1.405   1_556 S
C1321  N1357   1.429   .     S
C1321  C1326   1.404   .     A
C1322  C1325   1.404   .     A
C1322  N1360   1.429   .     S
C1322  C1140   1.381   1_655 S
C1323  N1363   1.440   .     S
C1323  C1325   1.406   .     A
C1323  C1137   1.381   1_655 S
C1324  C1326   1.406   .     A
C1324  N1366   1.440   .     S
C1327  N1369   1.431   .     S
C1327  N1332   1.370   .     A
C1328  N1372   1.430   .     S
C1328  N1331   1.370   .     A
C1328  C1605   1.424   .     S
C1329  N1375   1.425   .     S
C1329  N1332   1.375   .     A
C1330  N1378   1.425   .     S
C1330  N1331   1.376   .     A
C1330  C1603   1.424   .     S
C1333  O1335   1.396   .     S
C1333  O1334   1.223   .     D
O1335  H1336   1.014   .     S
C1337  O1339   1.398   .     S
C1337  O1338   1.222   .     D
O1339  H1340   1.014   .     S
C1341  O1343   1.399   .     S
C1341  O1342   1.223   .     D
O1343  H1344   1.014   .     S
C1345  O1347   1.398   .     S
C1345  O1346   1.223   .     D
O1347  H1348   1.014   .     S
C1349  O1351   1.397   .     S
C1349  O1350   1.222   .     D
O1351  H1352   1.014   .     S
C1353  O1355   1.398   .     S
C1353  O1354   1.223   .     D
O1355  H1356   1.014   .     S
N1357  O1358   1.301   .     A
N1357  O1359   1.300   .     A
N1360  O1362   1.300   .     A
N1360  O1361   1.301   .     A
N1363  O1364   1.301   .     A
N1363  O1365   1.301   .     A
N1366  O1368   1.301   .     A
N1366  O1367   1.301   .     A
N1369  O1370   1.301   .     A
N1369  O1371   1.300   .     A
N1372  O1373   1.301   .     A
N1372  O1374   1.300   .     A
N1375  O1376   1.298   .     A
N1375  O1377   1.301   .     A
N1378  O1379   1.299   .     A
N1378  O1380   1.301   .     A
O1381  C1385   1.291   .     A
O1381  Zn1393  1.989   .     S
O1382  C1386   1.292   .     A
O1382  Zn1394  1.989   .     S
O1383  C1386   1.292   .     A
O1383  Zn1393  2.016   .     S
O1384  C1385   1.293   .     A
O1384  Zn1394  2.016   .     S
C1385  C1418   1.425   .     S
C1386  C1417   1.425   .     S
O1387  C1391   1.292   .     A
O1387  Zn1393  2.006   .     S
O1388  C1392   1.292   .     A
O1388  Zn1394  2.006   .     S
O1389  Zn1393  2.022   .     S
O1389  C1392   1.296   .     A
O1390  Zn1394  2.022   .     S
O1390  C1391   1.295   .     A
C1391  C1398   1.432   .     S
C1392  C1397   1.433   .     S
Zn1393 N1423   2.033   .     S
Zn1394 N1424   2.033   .     S
C1395  C1397   1.383   .     A
C1395  H1411   1.083   .     S
C1395  C1405   1.388   .     A
C1396  C1406   1.386   .     A
C1396  H1412   1.083   .     S
C1396  C1398   1.382   .     A
C1397  C1399   1.404   .     A
C1398  C1400   1.405   .     A
C1399  C1401   1.413   .     A
C1399  C1425   1.490   .     S
C1400  C1429   1.491   .     S
C1400  C1402   1.414   .     A
C1401  C1407   1.422   .     A
C1401  C1403   1.426   .     A
C1402  C1408   1.423   .     A
C1402  C1404   1.426   .     A
C1403  C1405   1.416   .     A
C1403  C576    1.399   1_556 S
C1404  C1406   1.417   .     A
C1405  C1410   1.413   .     A
C1406  C1409   1.412   .     A
C1407  C1433   1.491   .     S
C1407  C581    1.402   1_556 S
C1408  C1437   1.491   .     S
C1409  C1441   1.484   .     S
C1410  C1445   1.485   .     S
C1410  C580    1.405   1_556 S
C1413  N1449   1.429   .     S
C1413  C1418   1.404   .     A
C1413  C1599   1.381   1_455 S
C1414  C1417   1.404   .     A
C1414  N1452   1.429   .     S
C1414  C1508   1.381   .     S
C1415  N1455   1.440   .     S
C1415  C1417   1.406   .     A
C1415  C1505   1.381   .     S
C1416  C1418   1.406   .     A
C1416  N1458   1.440   .     S
C1416  C1598   1.381   1_455 S
C1419  N1461   1.431   .     S
C1419  N1424   1.370   .     A
C1420  N1464   1.430   .     S
C1420  N1423   1.370   .     A
C1420  C869    1.424   1_565 S
C1421  N1467   1.425   .     S
C1421  N1424   1.375   .     A
C1422  N1470   1.425   .     S
C1422  N1423   1.376   .     A
C1422  C867    1.424   1_565 S
C1425  O1427   1.396   .     S
C1425  O1426   1.223   .     D
O1427  H1428   1.014   .     S
C1429  O1431   1.398   .     S
C1429  O1430   1.222   .     D
O1431  H1432   1.014   .     S
C1433  O1435   1.399   .     S
C1433  O1434   1.223   .     D
O1435  H1436   1.014   .     S
C1437  O1439   1.398   .     S
C1437  O1438   1.223   .     D
O1439  H1440   1.014   .     S
C1441  O1443   1.397   .     S
C1441  O1442   1.222   .     D
O1443  H1444   1.014   .     S
C1445  O1447   1.398   .     S
C1445  O1446   1.223   .     D
O1447  H1448   1.014   .     S
N1449  O1450   1.301   .     A
N1449  O1451   1.300   .     A
N1452  O1454   1.300   .     A
N1452  O1453   1.301   .     A
N1455  O1456   1.301   .     A
N1455  O1457   1.301   .     A
N1458  O1460   1.301   .     A
N1458  O1459   1.301   .     A
N1461  O1462   1.301   .     A
N1461  O1463   1.300   .     A
N1464  O1465   1.301   .     A
N1464  O1466   1.300   .     A
N1467  O1468   1.298   .     A
N1467  O1469   1.301   .     A
N1470  O1471   1.299   .     A
N1470  O1472   1.301   .     A
O1473  C1477   1.291   .     A
O1473  Zn1485  1.989   .     S
O1474  C1478   1.292   .     A
O1474  Zn1486  1.989   .     S
O1475  C1478   1.292   .     A
O1475  Zn1485  2.016   .     S
O1476  C1477   1.293   .     A
O1476  Zn1486  2.016   .     S
C1477  C1510   1.425   .     S
C1478  C1509   1.425   .     S
O1479  C1483   1.292   .     A
O1479  Zn1485  2.006   .     S
O1480  C1484   1.292   .     A
O1480  Zn1486  2.006   .     S
O1481  Zn1485  2.022   .     S
O1481  C1484   1.296   .     A
O1482  Zn1486  2.022   .     S
O1482  C1483   1.295   .     A
C1483  C1490   1.432   .     S
C1484  C1489   1.433   .     S
Zn1485 N1515   2.033   .     S
Zn1486 N1516   2.033   .     S
C1487  C1489   1.383   .     A
C1487  H1503   1.083   .     S
C1487  C1497   1.388   .     A
C1488  C1498   1.386   .     A
C1488  H1504   1.083   .     S
C1488  C1490   1.382   .     A
C1489  C1491   1.404   .     A
C1490  C1492   1.405   .     A
C1491  C1493   1.413   .     A
C1491  C1517   1.490   .     S
C1492  C1521   1.491   .     S
C1492  C1494   1.414   .     A
C1493  C1499   1.422   .     A
C1493  C1495   1.426   .     A
C1494  C1500   1.423   .     A
C1494  C1496   1.426   .     A
C1495  C1497   1.416   .     A
C1495  C668    1.399   1_556 S
C1496  C1498   1.417   .     A
C1497  C1502   1.413   .     A
C1498  C1501   1.412   .     A
C1499  C1525   1.491   .     S
C1499  C673    1.402   1_556 S
C1500  C1529   1.491   .     S
C1501  C1533   1.484   .     S
C1502  C1537   1.485   .     S
C1502  C672    1.405   1_556 S
C1505  N1541   1.429   .     S
C1505  C1510   1.404   .     A
C1506  C1509   1.404   .     A
C1506  N1544   1.429   .     S
C1506  C1600   1.381   .     S
C1507  N1547   1.440   .     S
C1507  C1509   1.406   .     A
C1507  C1597   1.381   .     S
C1508  C1510   1.406   .     A
C1508  N1550   1.440   .     S
C1511  N1553   1.431   .     S
C1511  N1516   1.370   .     A
C1512  N1556   1.430   .     S
C1512  N1515   1.370   .     A
C1512  C961    1.424   1_565 S
C1513  N1559   1.425   .     S
C1513  N1516   1.375   .     A
C1514  N1562   1.425   .     S
C1514  N1515   1.376   .     A
C1514  C959    1.424   1_565 S
C1517  O1519   1.396   .     S
C1517  O1518   1.223   .     D
O1519  H1520   1.014   .     S
C1521  O1523   1.398   .     S
C1521  O1522   1.222   .     D
O1523  H1524   1.014   .     S
C1525  O1527   1.399   .     S
C1525  O1526   1.223   .     D
O1527  H1528   1.014   .     S
C1529  O1531   1.398   .     S
C1529  O1530   1.223   .     D
O1531  H1532   1.014   .     S
C1533  O1535   1.397   .     S
C1533  O1534   1.222   .     D
O1535  H1536   1.014   .     S
C1537  O1539   1.398   .     S
C1537  O1538   1.223   .     D
O1539  H1540   1.014   .     S
N1541  O1542   1.301   .     A
N1541  O1543   1.300   .     A
N1544  O1546   1.300   .     A
N1544  O1545   1.301   .     A
N1547  O1548   1.301   .     A
N1547  O1549   1.301   .     A
N1550  O1552   1.301   .     A
N1550  O1551   1.301   .     A
N1553  O1554   1.301   .     A
N1553  O1555   1.300   .     A
N1556  O1557   1.301   .     A
N1556  O1558   1.300   .     A
N1559  O1560   1.298   .     A
N1559  O1561   1.301   .     A
N1562  O1563   1.299   .     A
N1562  O1564   1.301   .     A
O1565  C1569   1.291   .     A
O1565  Zn1577  1.989   .     S
O1566  C1570   1.292   .     A
O1566  Zn1578  1.989   .     S
O1567  C1570   1.292   .     A
O1567  Zn1577  2.016   .     S
O1568  C1569   1.293   .     A
O1568  Zn1578  2.016   .     S
C1569  C1602   1.425   .     S
C1570  C1601   1.425   .     S
O1571  C1575   1.292   .     A
O1571  Zn1577  2.006   .     S
O1572  C1576   1.292   .     A
O1572  Zn1578  2.006   .     S
O1573  Zn1577  2.022   .     S
O1573  C1576   1.296   .     A
O1574  Zn1578  2.022   .     S
O1574  C1575   1.295   .     A
C1575  C1582   1.432   .     S
C1576  C1581   1.433   .     S
Zn1577 N1607   2.033   .     S
Zn1578 N1608   2.033   .     S
C1579  C1581   1.383   .     A
C1579  H1595   1.083   .     S
C1579  C1589   1.388   .     A
C1580  C1590   1.386   .     A
C1580  H1596   1.083   .     S
C1580  C1582   1.382   .     A
C1581  C1583   1.404   .     A
C1582  C1584   1.405   .     A
C1583  C1585   1.413   .     A
C1583  C1609   1.490   .     S
C1584  C1613   1.491   .     S
C1584  C1586   1.414   .     A
C1585  C1591   1.422   .     A
C1585  C1587   1.426   .     A
C1586  C1592   1.423   .     A
C1586  C1588   1.426   .     A
C1587  C1589   1.416   .     A
C1587  C760    1.399   1_556 S
C1588  C1590   1.417   .     A
C1589  C1594   1.413   .     A
C1590  C1593   1.412   .     A
C1591  C1617   1.491   .     S
C1591  C765    1.402   1_556 S
C1592  C1621   1.491   .     S
C1593  C1625   1.484   .     S
C1594  C1629   1.485   .     S
C1594  C764    1.405   1_556 S
C1597  N1633   1.429   .     S
C1597  C1602   1.404   .     A
C1598  C1601   1.404   .     A
C1598  N1636   1.429   .     S
C1598  C1416   1.381   1_655 S
C1599  N1639   1.440   .     S
C1599  C1601   1.406   .     A
C1599  C1413   1.381   1_655 S
C1600  C1602   1.406   .     A
C1600  N1642   1.440   .     S
C1603  N1645   1.431   .     S
C1603  N1608   1.370   .     A
C1604  N1648   1.430   .     S
C1604  N1607   1.370   .     A
C1604  C1053   1.424   1_565 S
C1605  N1651   1.425   .     S
C1605  N1608   1.375   .     A
C1606  N1654   1.425   .     S
C1606  N1607   1.376   .     A
C1606  C1051   1.424   1_565 S
C1609  O1611   1.396   .     S
C1609  O1610   1.223   .     D
O1611  H1612   1.014   .     S
C1613  O1615   1.398   .     S
C1613  O1614   1.222   .     D
O1615  H1616   1.014   .     S
C1617  O1619   1.399   .     S
C1617  O1618   1.223   .     D
O1619  H1620   1.014   .     S
C1621  O1623   1.398   .     S
C1621  O1622   1.223   .     D
O1623  H1624   1.014   .     S
C1625  O1627   1.397   .     S
C1625  O1626   1.222   .     D
O1627  H1628   1.014   .     S
C1629  O1631   1.398   .     S
C1629  O1630   1.223   .     D
O1631  H1632   1.014   .     S
N1633  O1634   1.301   .     A
N1633  O1635   1.300   .     A
N1636  O1638   1.300   .     A
N1636  O1637   1.301   .     A
N1639  O1640   1.301   .     A
N1639  O1641   1.301   .     A
N1642  O1644   1.301   .     A
N1642  O1643   1.301   .     A
N1645  O1646   1.301   .     A
N1645  O1647   1.300   .     A
N1648  O1649   1.301   .     A
N1648  O1650   1.300   .     A
N1651  O1652   1.298   .     A
N1651  O1653   1.301   .     A
N1654  O1655   1.299   .     A
N1654  O1656   1.301   .     A
