data_str_m1_o1_o17_pcu_sym.17
_audit_creation_date              2020-01-03
_audit_creation_method            'Materials Studio'
_symmetry_space_group_name_H-M    'P1'
_symmetry_Int_Tables_number       1
_symmetry_cell_setting            triclinic
loop_
_symmetry_equiv_pos_as_xyz
  x,y,z
_cell_length_a                    36.5978
_cell_length_b                    36.5974
_cell_length_c                    34.3617
_cell_angle_alpha                 89.9397
_cell_angle_beta                  89.9380
_cell_angle_gamma                 90.0735
loop_
_atom_site_label
_atom_site_type_symbol
_atom_site_fract_x
_atom_site_fract_y
_atom_site_fract_z
_atom_site_U_iso_or_equiv
_atom_site_adp_type
_atom_site_occupancy
C1     C     0.00766   0.28306   0.41802   0.00000  Uiso   1.00
C2     C     0.24263   0.46689   0.08200   0.00000  Uiso   1.00
C3     C     0.21639   0.49459   0.54096   0.00000  Uiso   1.00
C4     C     0.00546   0.28361   0.45903   0.00000  Uiso   1.00
C5     C     0.49439   0.21642   0.54095   0.00000  Uiso   1.00
C6     C     0.21799   0.48975   0.45873   0.00000  Uiso   1.00
C7     C     0.28201   0.01023   0.54124   0.00000  Uiso   1.00
C8     C     0.23981   0.46797   0.95876   0.00000  Uiso   1.00
C9     C     0.26019   0.03203   0.04127   0.00000  Uiso   1.00
C10    C     0.03361   0.25536   0.95904   0.00000  Uiso   1.00
C11    C     0.46635   0.24480   0.04098   0.00000  Uiso   1.00
C12    C     0.25535   0.03362   0.95904   0.00000  Uiso   1.00
C13    C     0.46790   0.24206   0.91779   0.00000  Uiso   1.00
C14    C     0.24481   0.46635   0.04098   0.00000  Uiso   1.00
C15    C     0.46798   0.23980   0.95876   0.00000  Uiso   1.00
C16    C     0.03203   0.26020   0.04127   0.00000  Uiso   1.00
C17    C     0.09800   0.34801   0.24997   0.00000  Uiso   1.00
C18    C     0.40201   0.15197   0.75004   0.00000  Uiso   1.00
C19    C     0.15198   0.09802   0.25000   0.00000  Uiso   1.00
C20    C     0.34802   0.40198   0.75000   0.00000  Uiso   1.00
C21    C     0.40198   0.15200   0.25003   0.00000  Uiso   1.00
C22    C     0.09802   0.34800   0.74996   0.00000  Uiso   1.00
C23    C     0.34800   0.40187   0.24981   0.00000  Uiso   1.00
C24    C     0.03212   0.25784   0.08223   0.00000  Uiso   1.00
C25    C     0.15205   0.09819   0.75010   0.00000  Uiso   1.00
C26    C     0.09844   0.15232   0.75096   0.00000  Uiso   1.00
C27    C     0.40130   0.34742   0.24944   0.00000  Uiso   1.00
C28    C     0.15197   0.40201   0.75003   0.00000  Uiso   1.00
C29    C     0.34802   0.09800   0.24997   0.00000  Uiso   1.00
C30    C     0.40198   0.34802   0.75000   0.00000  Uiso   1.00
C31    C     0.09802   0.15198   0.25000   0.00000  Uiso   1.00
C32    C     0.34800   0.09802   0.74996   0.00000  Uiso   1.00
C33    C     0.15200   0.40198   0.25002   0.00000  Uiso   1.00
C34    C     0.49903   0.25035   0.47937   0.00000  Uiso   1.00
C35    C     0.24207   0.46789   0.91779   0.00000  Uiso   1.00
C36    C     0.00087   0.24967   0.52061   0.00000  Uiso   1.00
C37    C     0.25034   0.49903   0.47937   0.00000  Uiso   1.00
C38    C     0.24968   0.00088   0.52061   0.00000  Uiso   1.00
C39    C     0.24911   0.00032   0.97939   0.00000  Uiso   1.00
C40    C     0.25097   0.49966   0.02063   0.00000  Uiso   1.00
C41    C     0.00032   0.24912   0.97939   0.00000  Uiso   1.00
C42    C     0.49966   0.25097   0.02063   0.00000  Uiso   1.00
C43    C     0.25783   0.03212   0.08223   0.00000  Uiso   1.00
C44    C     0.03305   0.25760   0.91803   0.00000  Uiso   1.00
C45    C     0.46689   0.24261   0.08200   0.00000  Uiso   1.00
C46    C     0.49960   0.25061   0.39804   0.00000  Uiso   1.00
C47    C     0.00037   0.24939   0.60194   0.00000  Uiso   1.00
C48    C     0.25060   0.49960   0.39804   0.00000  Uiso   1.00
C49    C     0.49216   0.21699   0.58196   0.00000  Uiso   1.00
C50    C     0.24941   0.00038   0.60194   0.00000  Uiso   1.00
C51    C     0.24962   0.00058   0.89806   0.00000  Uiso   1.00
C52    C     0.25040   0.49940   0.10196   0.00000  Uiso   1.00
C53    C     0.00059   0.24962   0.89806   0.00000  Uiso   1.00
C54    C     0.49940   0.25040   0.10196   0.00000  Uiso   1.00
C55    C     0.48003   0.18647   0.47998   0.00000  Uiso   1.00
C56    C     0.01989   0.31354   0.51998   0.00000  Uiso   1.00
C57    C     0.31589   0.01095   0.48063   0.00000  Uiso   1.00
C58    C     0.18414   0.48886   0.51936   0.00000  Uiso   1.00
C59    C     0.01136   0.31583   0.48064   0.00000  Uiso   1.00
C60    C     0.21789   0.49212   0.41777   0.00000  Uiso   1.00
C61    C     0.48846   0.18420   0.51934   0.00000  Uiso   1.00
C62    C     0.18634   0.48043   0.47999   0.00000  Uiso   1.00
C63    C     0.31366   0.01952   0.51996   0.00000  Uiso   1.00
C64    C     0.23057   0.43631   0.98004   0.00000  Uiso   1.00
C65    C     0.26947   0.06369   0.02001   0.00000  Uiso   1.00
C66    C     0.06588   0.26106   0.98064   0.00000  Uiso   1.00
C67    C     0.43410   0.23912   0.01937   0.00000  Uiso   1.00
C68    C     0.26103   0.06588   0.98064   0.00000  Uiso   1.00
C69    C     0.23914   0.43409   0.01937   0.00000  Uiso   1.00
C70    C     0.43632   0.23055   0.98004   0.00000  Uiso   1.00
C71    C     0.28209   0.00797   0.58221   0.00000  Uiso   1.00
C72    C     0.06368   0.26949   0.02001   0.00000  Uiso   1.00
C73    C     0.25046   0.49995   0.35577   0.00000  Uiso   1.00
C74    C     0.24954   0.00004   0.64422   0.00000  Uiso   1.00
C75    C     0.49996   0.25048   0.35577   0.00000  Uiso   1.00
C76    C     0.00004   0.24952   0.64422   0.00000  Uiso   1.00
C77    C     0.00046   0.24996   0.85578   0.00000  Uiso   1.00
C78    C     0.49954   0.25004   0.14423   0.00000  Uiso   1.00
C79    C     0.24996   0.00046   0.85578   0.00000  Uiso   1.00
C80    C     0.25005   0.49954   0.14423   0.00000  Uiso   1.00
C81    C     0.18003   0.06998   0.25000   0.00000  Uiso   1.00
C82    C     0.49190   0.21796   0.41776   0.00000  Uiso   1.00
C83    C     0.31998   0.43002   0.75000   0.00000  Uiso   1.00
C84    C     0.43002   0.18004   0.25001   0.00000  Uiso   1.00
C85    C     0.06998   0.31996   0.74999   0.00000  Uiso   1.00
C86    C     0.32000   0.43000   0.24998   0.00000  Uiso   1.00
C87    C     0.18001   0.07001   0.75000   0.00000  Uiso   1.00
C88    C     0.06997   0.31997   0.24999   0.00000  Uiso   1.00
C89    C     0.43004   0.18002   0.75001   0.00000  Uiso   1.00
C90    C     0.18002   0.43004   0.75001   0.00000  Uiso   1.00
C91    C     0.31998   0.06996   0.24999   0.00000  Uiso   1.00
C92    C     0.43003   0.31998   0.75000   0.00000  Uiso   1.00
C93    C     0.00815   0.28203   0.58222   0.00000  Uiso   1.00
C94    C     0.06998   0.18003   0.25000   0.00000  Uiso   1.00
C95    C     0.31996   0.06998   0.74999   0.00000  Uiso   1.00
C96    C     0.18004   0.43002   0.25001   0.00000  Uiso   1.00
C97    C     0.07012   0.18011   0.75021   0.00000  Uiso   1.00
C98    C     0.42986   0.31987   0.24984   0.00000  Uiso   1.00
C99    C     0.11571   0.41119   0.26039   0.00000  Uiso   1.00
C100   C     0.38435   0.08876   0.73989   0.00000  Uiso   1.00
C101   C     0.08854   0.11543   0.25907   0.00000  Uiso   1.00
C102   C     0.38255   0.35567   0.78470   0.00000  Uiso   1.00
C103   C     0.38431   0.08876   0.26022   0.00000  Uiso   1.00
C104   C     0.28310   0.00743   0.41800   0.00000  Uiso   1.00
C105   C     0.11567   0.41125   0.73984   0.00000  Uiso   1.00
C106   C     0.38397   0.35729   0.21423   0.00000  Uiso   1.00
C107   C     0.08799   0.11564   0.74621   0.00000  Uiso   1.00
C108   C     0.11493   0.08835   0.74473   0.00000  Uiso   1.00
C109   C     0.35714   0.38418   0.21447   0.00000  Uiso   1.00
C110   C     0.08878   0.38433   0.73980   0.00000  Uiso   1.00
C111   C     0.41122   0.11568   0.26024   0.00000  Uiso   1.00
C112   C     0.35567   0.38255   0.78470   0.00000  Uiso   1.00
C113   C     0.11543   0.08854   0.25907   0.00000  Uiso   1.00
C114   C     0.41127   0.11564   0.73994   0.00000  Uiso   1.00
C115   C     0.21696   0.49236   0.58197   0.00000  Uiso   1.00
C116   C     0.08880   0.38428   0.26038   0.00000  Uiso   1.00
C117   C     0.36566   0.16123   0.76011   0.00000  Uiso   1.00
C118   C     0.13430   0.33881   0.23960   0.00000  Uiso   1.00
C119   C     0.36745   0.39433   0.71530   0.00000  Uiso   1.00
C120   C     0.16146   0.13458   0.24093   0.00000  Uiso   1.00
C121   C     0.13433   0.33875   0.76016   0.00000  Uiso   1.00
C122   C     0.36569   0.16124   0.23978   0.00000  Uiso   1.00
C123   C     0.16219   0.13514   0.75591   0.00000  Uiso   1.00
C124   C     0.36562   0.39220   0.28505   0.00000  Uiso   1.00
C125   C     0.39176   0.36411   0.28481   0.00000  Uiso   1.00
C126   C     0.25759   0.03305   0.91803   0.00000  Uiso   1.00
C127   C     0.13550   0.16217   0.75595   0.00000  Uiso   1.00
C128   C     0.33878   0.13432   0.23977   0.00000  Uiso   1.00
C129   C     0.16122   0.36568   0.76019   0.00000  Uiso   1.00
C130   C     0.13458   0.16146   0.24092   0.00000  Uiso   1.00
C131   C     0.39433   0.36745   0.71530   0.00000  Uiso   1.00
C132   C     0.16121   0.36572   0.23961   0.00000  Uiso   1.00
C133   C     0.33874   0.13434   0.76007   0.00000  Uiso   1.00
C134   C     0.48955   0.21806   0.45873   0.00000  Uiso   1.00
C135   C     0.01042   0.28194   0.54124   0.00000  Uiso   1.00
C136   C     0.28364   0.00524   0.45902   0.00000  Uiso   1.00
H137   H     0.12694   0.46087   0.27836   0.00000  Uiso   1.00
H138   H     0.31566   0.40265   0.18439   0.00000  Uiso   1.00
H139   H     0.03913   0.37314   0.72175   0.00000  Uiso   1.00
H140   H     0.46090   0.12686   0.27820   0.00000  Uiso   1.00
H141   H     0.31363   0.40095   0.81416   0.00000  Uiso   1.00
H142   H     0.12614   0.03869   0.27675   0.00000  Uiso   1.00
H143   H     0.46107   0.12679   0.72215   0.00000  Uiso   1.00
H144   H     0.03910   0.37300   0.27839   0.00000  Uiso   1.00
H145   H     0.37682   0.21089   0.77814   0.00000  Uiso   1.00
H146   H     0.12306   0.28912   0.22166   0.00000  Uiso   1.00
H147   H     0.34906   0.43638   0.68585   0.00000  Uiso   1.00
H148   H     0.37318   0.03910   0.72186   0.00000  Uiso   1.00
H149   H     0.21131   0.12385   0.22325   0.00000  Uiso   1.00
H150   H     0.12313   0.28902   0.77809   0.00000  Uiso   1.00
H151   H     0.37691   0.21094   0.22178   0.00000  Uiso   1.00
H152   H     0.21228   0.12538   0.77291   0.00000  Uiso   1.00
H153   H     0.34871   0.43458   0.31477   0.00000  Uiso   1.00
H154   H     0.39987   0.36630   0.34123   0.00000  Uiso   1.00
H155   H     0.12611   0.21263   0.77189   0.00000  Uiso   1.00
H156   H     0.28910   0.12314   0.22180   0.00000  Uiso   1.00
H157   H     0.21087   0.37686   0.77825   0.00000  Uiso   1.00
H158   H     0.12385   0.21132   0.22326   0.00000  Uiso   1.00
H159   H     0.03871   0.12615   0.27679   0.00000  Uiso   1.00
H160   H     0.43638   0.34905   0.68584   0.00000  Uiso   1.00
H161   H     0.21091   0.37700   0.22161   0.00000  Uiso   1.00
H162   H     0.28901   0.12318   0.77801   0.00000  Uiso   1.00
H163   H     0.40095   0.31363   0.81416   0.00000  Uiso   1.00
H164   H     0.37309   0.03906   0.27822   0.00000  Uiso   1.00
H165   H     0.12685   0.46101   0.72196   0.00000  Uiso   1.00
H166   H     0.40312   0.31651   0.18356   0.00000  Uiso   1.00
H167   H     0.04745   0.08103   0.73950   0.00000  Uiso   1.00
H168   H     0.12459   0.03881   0.72592   0.00000  Uiso   1.00
I169   I     0.43876   0.14880   0.46147   0.00000  Uiso   1.00
I170   I     0.31043   0.10168   0.03853   0.00000  Uiso   1.00
I171   I     0.11809   0.24050   0.96310   0.00000  Uiso   1.00
I172   I     0.38193   0.25992   0.03672   0.00000  Uiso   1.00
I173   I     0.24046   0.11808   0.96310   0.00000  Uiso   1.00
I174   I     0.25996   0.38194   0.03672   0.00000  Uiso   1.00
I175   I     0.39841   0.18943   0.96174   0.00000  Uiso   1.00
I176   I     0.10166   0.31047   0.03852   0.00000  Uiso   1.00
I177   I     0.03392   0.32594   0.38507   0.00000  Uiso   1.00
I178   I     0.46560   0.17425   0.61487   0.00000  Uiso   1.00
I179   I     0.16826   0.49835   0.38457   0.00000  Uiso   1.00
I180   I     0.06125   0.35118   0.53831   0.00000  Uiso   1.00
I181   I     0.33173   0.00207   0.61545   0.00000  Uiso   1.00
I182   I     0.49783   0.16829   0.38456   0.00000  Uiso   1.00
I183   I     0.00247   0.33171   0.61545   0.00000  Uiso   1.00
I184   I     0.32617   0.03333   0.38500   0.00000  Uiso   1.00
I185   I     0.17408   0.46606   0.61490   0.00000  Uiso   1.00
I186   I     0.28383   0.07596   0.88510   0.00000  Uiso   1.00
I187   I     0.21679   0.42379   0.11501   0.00000  Uiso   1.00
I188   I     0.41826   0.24801   0.88455   0.00000  Uiso   1.00
I189   I     0.08174   0.25155   0.11543   0.00000  Uiso   1.00
I190   I     0.24803   0.41826   0.88455   0.00000  Uiso   1.00
I191   I     0.36808   0.49020   0.46328   0.00000  Uiso   1.00
I192   I     0.25152   0.08174   0.11543   0.00000  Uiso   1.00
I193   I     0.07595   0.28386   0.88510   0.00000  Uiso   1.00
I194   I     0.42380   0.21675   0.11500   0.00000  Uiso   1.00
I195   I     0.13190   0.00936   0.53689   0.00000  Uiso   1.00
I196   I     0.49094   0.36814   0.46327   0.00000  Uiso   1.00
I197   I     0.00866   0.13184   0.53685   0.00000  Uiso   1.00
I198   I     0.14842   0.43940   0.46148   0.00000  Uiso   1.00
I199   I     0.35153   0.06067   0.53826   0.00000  Uiso   1.00
I200   I     0.18947   0.39838   0.96174   0.00000  Uiso   1.00
O201   O     0.25000  -0.00000   0.25000   0.00000  Uiso   1.00
O202   O     0.25000   0.46963   0.66245   0.00000  Uiso   1.00
O203   O     0.46964   0.25000   0.33755   0.00000  Uiso   1.00
O204   O     0.03037   0.25000   0.66245   0.00000  Uiso   1.00
O205   O     0.00000   0.21963   0.83755   0.00000  Uiso   1.00
O206   O     0.00000   0.28036   0.16245   0.00000  Uiso   1.00
O207   O     0.28037  -0.00000   0.83755   0.00000  Uiso   1.00
O208   O     0.21964  -0.00000   0.16245   0.00000  Uiso   1.00
O209   O     0.00000   0.28036   0.83755   0.00000  Uiso   1.00
O210   O     0.00000   0.21963   0.16245   0.00000  Uiso   1.00
O211   O     0.21964  -0.00000   0.83755   0.00000  Uiso   1.00
O212   O     0.25000  -0.00000   0.75000   0.00000  Uiso   1.00
O213   O     0.28037  -0.00000   0.16245   0.00000  Uiso   1.00
O214   O     0.20725   0.07307   0.27302   0.00000  Uiso   1.00
O215   O     0.29276   0.42692   0.72698   0.00000  Uiso   1.00
O216   O     0.42693   0.20724   0.27302   0.00000  Uiso   1.00
O217   O     0.07308   0.29275   0.72698   0.00000  Uiso   1.00
O218   O     0.29276   0.42692   0.27302   0.00000  Uiso   1.00
O219   O     0.20725   0.07307   0.72698   0.00000  Uiso   1.00
O220   O     0.07308   0.29275   0.27302   0.00000  Uiso   1.00
O221   O     0.42693   0.20724   0.72698   0.00000  Uiso   1.00
O222   O     0.20725   0.42692   0.72698   0.00000  Uiso   1.00
O223   O     0.00000   0.25000   0.25000   0.00000  Uiso   1.00
O224   O     0.29276   0.07307   0.27302   0.00000  Uiso   1.00
O225   O     0.42693   0.29275   0.72698   0.00000  Uiso   1.00
O226   O     0.07308   0.20724   0.27302   0.00000  Uiso   1.00
O227   O     0.29276   0.07307   0.72698   0.00000  Uiso   1.00
O228   O     0.20725   0.42692   0.27302   0.00000  Uiso   1.00
O229   O     0.07308   0.20724   0.72698   0.00000  Uiso   1.00
O230   O     0.42693   0.29275   0.27302   0.00000  Uiso   1.00
O231   O     0.45725   0.32307   0.77302   0.00000  Uiso   1.00
O232   O     0.04276   0.17692   0.22698   0.00000  Uiso   1.00
O233   O     0.17693   0.45724   0.77302   0.00000  Uiso   1.00
O234   O     0.00000   0.25000   0.75000   0.00000  Uiso   1.00
O235   O     0.32308   0.04275   0.22698   0.00000  Uiso   1.00
O236   O     0.04276   0.17692   0.77302   0.00000  Uiso   1.00
O237   O     0.45725   0.32307   0.22698   0.00000  Uiso   1.00
O238   O     0.32308   0.04275   0.77302   0.00000  Uiso   1.00
O239   O     0.17693   0.45724   0.22698   0.00000  Uiso   1.00
O240   O     0.45725   0.17692   0.22698   0.00000  Uiso   1.00
O241   O     0.04276   0.32307   0.77302   0.00000  Uiso   1.00
O242   O     0.17693   0.04275   0.22698   0.00000  Uiso   1.00
O243   O     0.32308   0.45724   0.77302   0.00000  Uiso   1.00
O244   O     0.04276   0.32307   0.22698   0.00000  Uiso   1.00
O245   O     0.25000   0.46963   0.33755   0.00000  Uiso   1.00
O246   O     0.45725   0.17692   0.77302   0.00000  Uiso   1.00
O247   O     0.32308   0.45724   0.22698   0.00000  Uiso   1.00
O248   O     0.17693   0.04275   0.77302   0.00000  Uiso   1.00
O249   O     0.10529   0.44592   0.27188   0.00000  Uiso   1.00
O250   O     0.39481   0.05397   0.72864   0.00000  Uiso   1.00
O251   O     0.05352   0.10471   0.26933   0.00000  Uiso   1.00
O252   O     0.38798   0.33682   0.81917   0.00000  Uiso   1.00
O253   O     0.39474   0.05399   0.27158   0.00000  Uiso   1.00
O254   O     0.10522   0.44605   0.72856   0.00000  Uiso   1.00
O255   O     0.39123   0.34038   0.17906   0.00000  Uiso   1.00
O256   O     0.25000   0.03036   0.66245   0.00000  Uiso   1.00
O257   O     0.05125   0.10774   0.74125   0.00000  Uiso   1.00
O258   O     0.10408   0.05278   0.73729   0.00000  Uiso   1.00
O259   O     0.33980   0.39145   0.17953   0.00000  Uiso   1.00
O260   O     0.05401   0.39478   0.72848   0.00000  Uiso   1.00
O261   O     0.44598   0.10523   0.27158   0.00000  Uiso   1.00
O262   O     0.33682   0.38798   0.81917   0.00000  Uiso   1.00
O263   O     0.10470   0.05352   0.26933   0.00000  Uiso   1.00
O264   O     0.44609   0.10516   0.72875   0.00000  Uiso   1.00
O265   O     0.05405   0.39468   0.27188   0.00000  Uiso   1.00
O266   O     0.35520   0.19602   0.77135   0.00000  Uiso   1.00
O267   O     0.03037   0.25000   0.33755   0.00000  Uiso   1.00
O268   O     0.14472   0.30408   0.22811   0.00000  Uiso   1.00
O269   O     0.36201   0.41318   0.68083   0.00000  Uiso   1.00
O270   O     0.19648   0.14530   0.23066   0.00000  Uiso   1.00
O271   O     0.14478   0.30396   0.77145   0.00000  Uiso   1.00
O272   O     0.35526   0.19601   0.22842   0.00000  Uiso   1.00
O273   O     0.19779   0.14614   0.76288   0.00000  Uiso   1.00
O274   O     0.35860   0.40990   0.31986   0.00000  Uiso   1.00
O275   O     0.40987   0.35337   0.31831   0.00000  Uiso   1.00
O276   O     0.14686   0.19770   0.76262   0.00000  Uiso   1.00
O277   O     0.30402   0.14477   0.22843   0.00000  Uiso   1.00
O278   O     0.46964   0.25000   0.66245   0.00000  Uiso   1.00
O279   O     0.19599   0.35523   0.77151   0.00000  Uiso   1.00
O280   O     0.14530   0.19648   0.23065   0.00000  Uiso   1.00
O281   O     0.41318   0.36202   0.68083   0.00000  Uiso   1.00
O282   O     0.19595   0.35532   0.22809   0.00000  Uiso   1.00
O283   O     0.30393   0.14481   0.77128   0.00000  Uiso   1.00
O284   O     0.25000   0.03036   0.33755   0.00000  Uiso   1.00
Zn285  Zn    0.20660  -0.00000   0.21735   0.00000  Uiso   1.00
Zn286  Zn    0.04341   0.25000   0.28265   0.00000  Uiso   1.00
Zn287  Zn    0.25000   0.45659   0.71735   0.00000  Uiso   1.00
Zn288  Zn    0.25000   0.04340   0.28265   0.00000  Uiso   1.00
Zn289  Zn    0.04341   0.25000   0.71735   0.00000  Uiso   1.00
Zn290  Zn    0.45660   0.25000   0.28265   0.00000  Uiso   1.00
Zn291  Zn    0.25000   0.04340   0.71735   0.00000  Uiso   1.00
Zn292  Zn    0.25000   0.45659   0.28265   0.00000  Uiso   1.00
Zn293  Zn    0.29341  -0.00000   0.78265   0.00000  Uiso   1.00
Zn294  Zn    0.00000   0.20659   0.21735   0.00000  Uiso   1.00
Zn295  Zn    0.00000   0.29340   0.78265   0.00000  Uiso   1.00
Zn296  Zn    0.29341  -0.00000   0.21735   0.00000  Uiso   1.00
Zn297  Zn    0.20660  -0.00000   0.78265   0.00000  Uiso   1.00
Zn298  Zn    0.00000   0.29340   0.21735   0.00000  Uiso   1.00
Zn299  Zn    0.00000   0.20659   0.78265   0.00000  Uiso   1.00
Zn300  Zn    0.45660   0.25000   0.71735   0.00000  Uiso   1.00
C301   C     0.50766   0.28306   0.41802   0.00000  Uiso   1.00
C302   C     0.74263   0.46689   0.08200   0.00000  Uiso   1.00
C303   C     0.71639   0.49459   0.54096   0.00000  Uiso   1.00
C304   C     0.50546   0.28361   0.45903   0.00000  Uiso   1.00
C305   C     0.99439   0.21642   0.54095   0.00000  Uiso   1.00
C306   C     0.71799   0.48975   0.45873   0.00000  Uiso   1.00
C307   C     0.78201   0.01023   0.54124   0.00000  Uiso   1.00
C308   C     0.73981   0.46797   0.95876   0.00000  Uiso   1.00
C309   C     0.76019   0.03203   0.04127   0.00000  Uiso   1.00
C310   C     0.53361   0.25536   0.95904   0.00000  Uiso   1.00
C311   C     0.96635   0.24480   0.04098   0.00000  Uiso   1.00
C312   C     0.75535   0.03362   0.95904   0.00000  Uiso   1.00
C313   C     0.96790   0.24206   0.91779   0.00000  Uiso   1.00
C314   C     0.74481   0.46635   0.04098   0.00000  Uiso   1.00
C315   C     0.96798   0.23980   0.95876   0.00000  Uiso   1.00
C316   C     0.53203   0.26020   0.04127   0.00000  Uiso   1.00
C317   C     0.59800   0.34801   0.24997   0.00000  Uiso   1.00
C318   C     0.90201   0.15197   0.75004   0.00000  Uiso   1.00
C319   C     0.65198   0.09802   0.25000   0.00000  Uiso   1.00
C320   C     0.84802   0.40198   0.75000   0.00000  Uiso   1.00
C321   C     0.90198   0.15200   0.25003   0.00000  Uiso   1.00
C322   C     0.59802   0.34800   0.74996   0.00000  Uiso   1.00
C323   C     0.84800   0.40187   0.24981   0.00000  Uiso   1.00
C324   C     0.53212   0.25784   0.08223   0.00000  Uiso   1.00
C325   C     0.65205   0.09819   0.75010   0.00000  Uiso   1.00
C326   C     0.59844   0.15232   0.75096   0.00000  Uiso   1.00
C327   C     0.90130   0.34742   0.24944   0.00000  Uiso   1.00
C328   C     0.65197   0.40201   0.75003   0.00000  Uiso   1.00
C329   C     0.84802   0.09800   0.24997   0.00000  Uiso   1.00
C330   C     0.90198   0.34802   0.75000   0.00000  Uiso   1.00
C331   C     0.59802   0.15198   0.25000   0.00000  Uiso   1.00
C332   C     0.84800   0.09802   0.74996   0.00000  Uiso   1.00
C333   C     0.65200   0.40198   0.25002   0.00000  Uiso   1.00
C334   C     0.99903   0.25035   0.47937   0.00000  Uiso   1.00
C335   C     0.74207   0.46789   0.91779   0.00000  Uiso   1.00
C336   C     0.50087   0.24967   0.52061   0.00000  Uiso   1.00
C337   C     0.75034   0.49903   0.47937   0.00000  Uiso   1.00
C338   C     0.74968   0.00088   0.52061   0.00000  Uiso   1.00
C339   C     0.74911   0.00032   0.97939   0.00000  Uiso   1.00
C340   C     0.75097   0.49966   0.02063   0.00000  Uiso   1.00
C341   C     0.50032   0.24912   0.97939   0.00000  Uiso   1.00
C342   C     0.99966   0.25097   0.02063   0.00000  Uiso   1.00
C343   C     0.75783   0.03212   0.08223   0.00000  Uiso   1.00
C344   C     0.53305   0.25760   0.91803   0.00000  Uiso   1.00
C345   C     0.96689   0.24261   0.08200   0.00000  Uiso   1.00
C346   C     0.99960   0.25061   0.39804   0.00000  Uiso   1.00
C347   C     0.50037   0.24939   0.60194   0.00000  Uiso   1.00
C348   C     0.75060   0.49960   0.39804   0.00000  Uiso   1.00
C349   C     0.99216   0.21699   0.58196   0.00000  Uiso   1.00
C350   C     0.74941   0.00038   0.60194   0.00000  Uiso   1.00
C351   C     0.74962   0.00058   0.89806   0.00000  Uiso   1.00
C352   C     0.75040   0.49940   0.10196   0.00000  Uiso   1.00
C353   C     0.50059   0.24962   0.89806   0.00000  Uiso   1.00
C354   C     0.99940   0.25040   0.10196   0.00000  Uiso   1.00
C355   C     0.98003   0.18647   0.47998   0.00000  Uiso   1.00
C356   C     0.51989   0.31354   0.51998   0.00000  Uiso   1.00
C357   C     0.81589   0.01095   0.48063   0.00000  Uiso   1.00
C358   C     0.68414   0.48886   0.51936   0.00000  Uiso   1.00
C359   C     0.51136   0.31583   0.48064   0.00000  Uiso   1.00
C360   C     0.71789   0.49212   0.41777   0.00000  Uiso   1.00
C361   C     0.98846   0.18420   0.51934   0.00000  Uiso   1.00
C362   C     0.68634   0.48043   0.47999   0.00000  Uiso   1.00
C363   C     0.81366   0.01952   0.51996   0.00000  Uiso   1.00
C364   C     0.73057   0.43631   0.98004   0.00000  Uiso   1.00
C365   C     0.76947   0.06369   0.02001   0.00000  Uiso   1.00
C366   C     0.56588   0.26106   0.98064   0.00000  Uiso   1.00
C367   C     0.93410   0.23912   0.01937   0.00000  Uiso   1.00
C368   C     0.76103   0.06588   0.98064   0.00000  Uiso   1.00
C369   C     0.73914   0.43409   0.01937   0.00000  Uiso   1.00
C370   C     0.93632   0.23055   0.98004   0.00000  Uiso   1.00
C371   C     0.78209   0.00797   0.58221   0.00000  Uiso   1.00
C372   C     0.56368   0.26949   0.02001   0.00000  Uiso   1.00
C373   C     0.75046   0.49995   0.35577   0.00000  Uiso   1.00
C374   C     0.74954   0.00004   0.64422   0.00000  Uiso   1.00
C375   C     0.99996   0.25048   0.35577   0.00000  Uiso   1.00
C376   C     0.50004   0.24952   0.64422   0.00000  Uiso   1.00
C377   C     0.50046   0.24996   0.85578   0.00000  Uiso   1.00
C378   C     0.99954   0.25004   0.14423   0.00000  Uiso   1.00
C379   C     0.74996   0.00046   0.85578   0.00000  Uiso   1.00
C380   C     0.75005   0.49954   0.14423   0.00000  Uiso   1.00
C381   C     0.68003   0.06998   0.25000   0.00000  Uiso   1.00
C382   C     0.99190   0.21796   0.41776   0.00000  Uiso   1.00
C383   C     0.81998   0.43002   0.75000   0.00000  Uiso   1.00
C384   C     0.93002   0.18004   0.25001   0.00000  Uiso   1.00
C385   C     0.56998   0.31996   0.74999   0.00000  Uiso   1.00
C386   C     0.82000   0.43000   0.24998   0.00000  Uiso   1.00
C387   C     0.68001   0.07001   0.75000   0.00000  Uiso   1.00
C388   C     0.56997   0.31997   0.24999   0.00000  Uiso   1.00
C389   C     0.93004   0.18002   0.75001   0.00000  Uiso   1.00
C390   C     0.68002   0.43004   0.75001   0.00000  Uiso   1.00
C391   C     0.81998   0.06996   0.24999   0.00000  Uiso   1.00
C392   C     0.93003   0.31998   0.75000   0.00000  Uiso   1.00
C393   C     0.50815   0.28203   0.58222   0.00000  Uiso   1.00
C394   C     0.56998   0.18003   0.25000   0.00000  Uiso   1.00
C395   C     0.81996   0.06998   0.74999   0.00000  Uiso   1.00
C396   C     0.68004   0.43002   0.25001   0.00000  Uiso   1.00
C397   C     0.57012   0.18011   0.75021   0.00000  Uiso   1.00
C398   C     0.92986   0.31987   0.24984   0.00000  Uiso   1.00
C399   C     0.61571   0.41119   0.26039   0.00000  Uiso   1.00
C400   C     0.88435   0.08876   0.73989   0.00000  Uiso   1.00
C401   C     0.58854   0.11543   0.25907   0.00000  Uiso   1.00
C402   C     0.88255   0.35567   0.78470   0.00000  Uiso   1.00
C403   C     0.88431   0.08876   0.26022   0.00000  Uiso   1.00
C404   C     0.78310   0.00743   0.41800   0.00000  Uiso   1.00
C405   C     0.61567   0.41125   0.73984   0.00000  Uiso   1.00
C406   C     0.88397   0.35729   0.21423   0.00000  Uiso   1.00
C407   C     0.58799   0.11564   0.74621   0.00000  Uiso   1.00
C408   C     0.61493   0.08835   0.74473   0.00000  Uiso   1.00
C409   C     0.85714   0.38418   0.21447   0.00000  Uiso   1.00
C410   C     0.58878   0.38433   0.73980   0.00000  Uiso   1.00
C411   C     0.91122   0.11568   0.26024   0.00000  Uiso   1.00
C412   C     0.85567   0.38255   0.78470   0.00000  Uiso   1.00
C413   C     0.61543   0.08854   0.25907   0.00000  Uiso   1.00
C414   C     0.91127   0.11564   0.73994   0.00000  Uiso   1.00
C415   C     0.71696   0.49236   0.58197   0.00000  Uiso   1.00
C416   C     0.58880   0.38428   0.26038   0.00000  Uiso   1.00
C417   C     0.86566   0.16123   0.76011   0.00000  Uiso   1.00
C418   C     0.63430   0.33881   0.23960   0.00000  Uiso   1.00
C419   C     0.86745   0.39433   0.71530   0.00000  Uiso   1.00
C420   C     0.66146   0.13458   0.24093   0.00000  Uiso   1.00
C421   C     0.63433   0.33875   0.76016   0.00000  Uiso   1.00
C422   C     0.86569   0.16124   0.23978   0.00000  Uiso   1.00
C423   C     0.66219   0.13514   0.75591   0.00000  Uiso   1.00
C424   C     0.86562   0.39220   0.28505   0.00000  Uiso   1.00
C425   C     0.89176   0.36411   0.28481   0.00000  Uiso   1.00
C426   C     0.75759   0.03305   0.91803   0.00000  Uiso   1.00
C427   C     0.63550   0.16217   0.75595   0.00000  Uiso   1.00
C428   C     0.83878   0.13432   0.23977   0.00000  Uiso   1.00
C429   C     0.66122   0.36568   0.76019   0.00000  Uiso   1.00
C430   C     0.63458   0.16146   0.24092   0.00000  Uiso   1.00
C431   C     0.89433   0.36745   0.71530   0.00000  Uiso   1.00
C432   C     0.66121   0.36572   0.23961   0.00000  Uiso   1.00
C433   C     0.83874   0.13434   0.76007   0.00000  Uiso   1.00
C434   C     0.98955   0.21806   0.45873   0.00000  Uiso   1.00
C435   C     0.51042   0.28194   0.54124   0.00000  Uiso   1.00
C436   C     0.78364   0.00524   0.45902   0.00000  Uiso   1.00
H437   H     0.62694   0.46087   0.27836   0.00000  Uiso   1.00
H438   H     0.81566   0.40265   0.18439   0.00000  Uiso   1.00
H439   H     0.53913   0.37314   0.72175   0.00000  Uiso   1.00
H440   H     0.96090   0.12686   0.27820   0.00000  Uiso   1.00
H441   H     0.81363   0.40095   0.81416   0.00000  Uiso   1.00
H442   H     0.62614   0.03869   0.27675   0.00000  Uiso   1.00
H443   H     0.96107   0.12679   0.72215   0.00000  Uiso   1.00
H444   H     0.53910   0.37300   0.27839   0.00000  Uiso   1.00
H445   H     0.87682   0.21089   0.77814   0.00000  Uiso   1.00
H446   H     0.62306   0.28912   0.22166   0.00000  Uiso   1.00
H447   H     0.84906   0.43638   0.68585   0.00000  Uiso   1.00
H448   H     0.87318   0.03910   0.72186   0.00000  Uiso   1.00
H449   H     0.71131   0.12385   0.22325   0.00000  Uiso   1.00
H450   H     0.62313   0.28902   0.77809   0.00000  Uiso   1.00
H451   H     0.87691   0.21094   0.22178   0.00000  Uiso   1.00
H452   H     0.71228   0.12538   0.77291   0.00000  Uiso   1.00
H453   H     0.84871   0.43458   0.31477   0.00000  Uiso   1.00
H454   H     0.89987   0.36630   0.34123   0.00000  Uiso   1.00
H455   H     0.62611   0.21263   0.77189   0.00000  Uiso   1.00
H456   H     0.78910   0.12314   0.22180   0.00000  Uiso   1.00
H457   H     0.71087   0.37686   0.77825   0.00000  Uiso   1.00
H458   H     0.62385   0.21132   0.22326   0.00000  Uiso   1.00
H459   H     0.53871   0.12615   0.27679   0.00000  Uiso   1.00
H460   H     0.93638   0.34905   0.68584   0.00000  Uiso   1.00
H461   H     0.71091   0.37700   0.22161   0.00000  Uiso   1.00
H462   H     0.78901   0.12318   0.77801   0.00000  Uiso   1.00
H463   H     0.90095   0.31363   0.81416   0.00000  Uiso   1.00
H464   H     0.87309   0.03906   0.27822   0.00000  Uiso   1.00
H465   H     0.62685   0.46101   0.72196   0.00000  Uiso   1.00
H466   H     0.90312   0.31651   0.18356   0.00000  Uiso   1.00
H467   H     0.54745   0.08103   0.73950   0.00000  Uiso   1.00
H468   H     0.62459   0.03881   0.72592   0.00000  Uiso   1.00
I469   I     0.93876   0.14880   0.46147   0.00000  Uiso   1.00
I470   I     0.81043   0.10168   0.03853   0.00000  Uiso   1.00
I471   I     0.61809   0.24050   0.96310   0.00000  Uiso   1.00
I472   I     0.88193   0.25992   0.03672   0.00000  Uiso   1.00
I473   I     0.74046   0.11808   0.96310   0.00000  Uiso   1.00
I474   I     0.75996   0.38194   0.03672   0.00000  Uiso   1.00
I475   I     0.89841   0.18943   0.96174   0.00000  Uiso   1.00
I476   I     0.60166   0.31047   0.03852   0.00000  Uiso   1.00
I477   I     0.53392   0.32594   0.38507   0.00000  Uiso   1.00
I478   I     0.96560   0.17425   0.61487   0.00000  Uiso   1.00
I479   I     0.66826   0.49835   0.38457   0.00000  Uiso   1.00
I480   I     0.56125   0.35118   0.53831   0.00000  Uiso   1.00
I481   I     0.83173   0.00207   0.61545   0.00000  Uiso   1.00
I482   I     0.99783   0.16829   0.38456   0.00000  Uiso   1.00
I483   I     0.50247   0.33171   0.61545   0.00000  Uiso   1.00
I484   I     0.82617   0.03333   0.38500   0.00000  Uiso   1.00
I485   I     0.67408   0.46606   0.61490   0.00000  Uiso   1.00
I486   I     0.78383   0.07596   0.88510   0.00000  Uiso   1.00
I487   I     0.71679   0.42379   0.11501   0.00000  Uiso   1.00
I488   I     0.91826   0.24801   0.88455   0.00000  Uiso   1.00
I489   I     0.58174   0.25155   0.11543   0.00000  Uiso   1.00
I490   I     0.74803   0.41826   0.88455   0.00000  Uiso   1.00
I491   I     0.86808   0.49020   0.46328   0.00000  Uiso   1.00
I492   I     0.75152   0.08174   0.11543   0.00000  Uiso   1.00
I493   I     0.57595   0.28386   0.88510   0.00000  Uiso   1.00
I494   I     0.92380   0.21675   0.11500   0.00000  Uiso   1.00
I495   I     0.63190   0.00936   0.53689   0.00000  Uiso   1.00
I496   I     0.99094   0.36814   0.46327   0.00000  Uiso   1.00
I497   I     0.50866   0.13184   0.53685   0.00000  Uiso   1.00
I498   I     0.64842   0.43940   0.46148   0.00000  Uiso   1.00
I499   I     0.85153   0.06067   0.53826   0.00000  Uiso   1.00
I500   I     0.68947   0.39838   0.96174   0.00000  Uiso   1.00
O501   O     0.75000  -0.00000   0.25000   0.00000  Uiso   1.00
O502   O     0.75000   0.46963   0.66245   0.00000  Uiso   1.00
O503   O     0.96964   0.25000   0.33755   0.00000  Uiso   1.00
O504   O     0.53037   0.25000   0.66245   0.00000  Uiso   1.00
O505   O     0.50000   0.21963   0.83755   0.00000  Uiso   1.00
O506   O     0.50000   0.28036   0.16245   0.00000  Uiso   1.00
O507   O     0.78037  -0.00000   0.83755   0.00000  Uiso   1.00
O508   O     0.71964  -0.00000   0.16245   0.00000  Uiso   1.00
O509   O     0.50000   0.28036   0.83755   0.00000  Uiso   1.00
O510   O     0.50000   0.21963   0.16245   0.00000  Uiso   1.00
O511   O     0.71964  -0.00000   0.83755   0.00000  Uiso   1.00
O512   O     0.75000  -0.00000   0.75000   0.00000  Uiso   1.00
O513   O     0.78037  -0.00000   0.16245   0.00000  Uiso   1.00
O514   O     0.70725   0.07307   0.27302   0.00000  Uiso   1.00
O515   O     0.79276   0.42692   0.72698   0.00000  Uiso   1.00
O516   O     0.92693   0.20724   0.27302   0.00000  Uiso   1.00
O517   O     0.57308   0.29275   0.72698   0.00000  Uiso   1.00
O518   O     0.79276   0.42692   0.27302   0.00000  Uiso   1.00
O519   O     0.70725   0.07307   0.72698   0.00000  Uiso   1.00
O520   O     0.57308   0.29275   0.27302   0.00000  Uiso   1.00
O521   O     0.92693   0.20724   0.72698   0.00000  Uiso   1.00
O522   O     0.70725   0.42692   0.72698   0.00000  Uiso   1.00
O523   O     0.50000   0.25000   0.25000   0.00000  Uiso   1.00
O524   O     0.79276   0.07307   0.27302   0.00000  Uiso   1.00
O525   O     0.92693   0.29275   0.72698   0.00000  Uiso   1.00
O526   O     0.57308   0.20724   0.27302   0.00000  Uiso   1.00
O527   O     0.79276   0.07307   0.72698   0.00000  Uiso   1.00
O528   O     0.70725   0.42692   0.27302   0.00000  Uiso   1.00
O529   O     0.57308   0.20724   0.72698   0.00000  Uiso   1.00
O530   O     0.92693   0.29275   0.27302   0.00000  Uiso   1.00
O531   O     0.95725   0.32307   0.77302   0.00000  Uiso   1.00
O532   O     0.54276   0.17692   0.22698   0.00000  Uiso   1.00
O533   O     0.67693   0.45724   0.77302   0.00000  Uiso   1.00
O534   O     0.50000   0.25000   0.75000   0.00000  Uiso   1.00
O535   O     0.82308   0.04275   0.22698   0.00000  Uiso   1.00
O536   O     0.54276   0.17692   0.77302   0.00000  Uiso   1.00
O537   O     0.95725   0.32307   0.22698   0.00000  Uiso   1.00
O538   O     0.82308   0.04275   0.77302   0.00000  Uiso   1.00
O539   O     0.67693   0.45724   0.22698   0.00000  Uiso   1.00
O540   O     0.95725   0.17692   0.22698   0.00000  Uiso   1.00
O541   O     0.54276   0.32307   0.77302   0.00000  Uiso   1.00
O542   O     0.67693   0.04275   0.22698   0.00000  Uiso   1.00
O543   O     0.82308   0.45724   0.77302   0.00000  Uiso   1.00
O544   O     0.54276   0.32307   0.22698   0.00000  Uiso   1.00
O545   O     0.75000   0.46963   0.33755   0.00000  Uiso   1.00
O546   O     0.95725   0.17692   0.77302   0.00000  Uiso   1.00
O547   O     0.82308   0.45724   0.22698   0.00000  Uiso   1.00
O548   O     0.67693   0.04275   0.77302   0.00000  Uiso   1.00
O549   O     0.60529   0.44592   0.27188   0.00000  Uiso   1.00
O550   O     0.89481   0.05397   0.72864   0.00000  Uiso   1.00
O551   O     0.55352   0.10471   0.26933   0.00000  Uiso   1.00
O552   O     0.88798   0.33682   0.81917   0.00000  Uiso   1.00
O553   O     0.89474   0.05399   0.27158   0.00000  Uiso   1.00
O554   O     0.60522   0.44605   0.72856   0.00000  Uiso   1.00
O555   O     0.89123   0.34038   0.17906   0.00000  Uiso   1.00
O556   O     0.75000   0.03036   0.66245   0.00000  Uiso   1.00
O557   O     0.55125   0.10774   0.74125   0.00000  Uiso   1.00
O558   O     0.60408   0.05278   0.73729   0.00000  Uiso   1.00
O559   O     0.83980   0.39145   0.17953   0.00000  Uiso   1.00
O560   O     0.55401   0.39478   0.72848   0.00000  Uiso   1.00
O561   O     0.94598   0.10523   0.27158   0.00000  Uiso   1.00
O562   O     0.83682   0.38798   0.81917   0.00000  Uiso   1.00
O563   O     0.60470   0.05352   0.26933   0.00000  Uiso   1.00
O564   O     0.94609   0.10516   0.72875   0.00000  Uiso   1.00
O565   O     0.55405   0.39468   0.27188   0.00000  Uiso   1.00
O566   O     0.85520   0.19602   0.77135   0.00000  Uiso   1.00
O567   O     0.53037   0.25000   0.33755   0.00000  Uiso   1.00
O568   O     0.64472   0.30408   0.22811   0.00000  Uiso   1.00
O569   O     0.86201   0.41318   0.68083   0.00000  Uiso   1.00
O570   O     0.69648   0.14530   0.23066   0.00000  Uiso   1.00
O571   O     0.64478   0.30396   0.77145   0.00000  Uiso   1.00
O572   O     0.85526   0.19601   0.22842   0.00000  Uiso   1.00
O573   O     0.69779   0.14614   0.76288   0.00000  Uiso   1.00
O574   O     0.85860   0.40990   0.31986   0.00000  Uiso   1.00
O575   O     0.90987   0.35337   0.31831   0.00000  Uiso   1.00
O576   O     0.64686   0.19770   0.76262   0.00000  Uiso   1.00
O577   O     0.80402   0.14477   0.22843   0.00000  Uiso   1.00
O578   O     0.96964   0.25000   0.66245   0.00000  Uiso   1.00
O579   O     0.69599   0.35523   0.77151   0.00000  Uiso   1.00
O580   O     0.64530   0.19648   0.23065   0.00000  Uiso   1.00
O581   O     0.91318   0.36202   0.68083   0.00000  Uiso   1.00
O582   O     0.69595   0.35532   0.22809   0.00000  Uiso   1.00
O583   O     0.80393   0.14481   0.77128   0.00000  Uiso   1.00
O584   O     0.75000   0.03036   0.33755   0.00000  Uiso   1.00
Zn585  Zn    0.70660  -0.00000   0.21735   0.00000  Uiso   1.00
Zn586  Zn    0.54341   0.25000   0.28265   0.00000  Uiso   1.00
Zn587  Zn    0.75000   0.45659   0.71735   0.00000  Uiso   1.00
Zn588  Zn    0.75000   0.04340   0.28265   0.00000  Uiso   1.00
Zn589  Zn    0.54341   0.25000   0.71735   0.00000  Uiso   1.00
Zn590  Zn    0.95660   0.25000   0.28265   0.00000  Uiso   1.00
Zn591  Zn    0.75000   0.04340   0.71735   0.00000  Uiso   1.00
Zn592  Zn    0.75000   0.45659   0.28265   0.00000  Uiso   1.00
Zn593  Zn    0.79341  -0.00000   0.78265   0.00000  Uiso   1.00
Zn594  Zn    0.50000   0.20659   0.21735   0.00000  Uiso   1.00
Zn595  Zn    0.50000   0.29340   0.78265   0.00000  Uiso   1.00
Zn596  Zn    0.79341  -0.00000   0.21735   0.00000  Uiso   1.00
Zn597  Zn    0.70660  -0.00000   0.78265   0.00000  Uiso   1.00
Zn598  Zn    0.50000   0.29340   0.21735   0.00000  Uiso   1.00
Zn599  Zn    0.50000   0.20659   0.78265   0.00000  Uiso   1.00
Zn600  Zn    0.95660   0.25000   0.71735   0.00000  Uiso   1.00
C601   C     0.00766   0.78306   0.41802   0.00000  Uiso   1.00
C602   C     0.24263   0.96689   0.08200   0.00000  Uiso   1.00
C603   C     0.21639   0.99459   0.54096   0.00000  Uiso   1.00
C604   C     0.00546   0.78361   0.45903   0.00000  Uiso   1.00
C605   C     0.49439   0.71642   0.54095   0.00000  Uiso   1.00
C606   C     0.21799   0.98975   0.45873   0.00000  Uiso   1.00
C607   C     0.28201   0.51023   0.54124   0.00000  Uiso   1.00
C608   C     0.23981   0.96797   0.95876   0.00000  Uiso   1.00
C609   C     0.26019   0.53203   0.04127   0.00000  Uiso   1.00
C610   C     0.03361   0.75536   0.95904   0.00000  Uiso   1.00
C611   C     0.46635   0.74480   0.04098   0.00000  Uiso   1.00
C612   C     0.25535   0.53362   0.95904   0.00000  Uiso   1.00
C613   C     0.46790   0.74206   0.91779   0.00000  Uiso   1.00
C614   C     0.24481   0.96635   0.04098   0.00000  Uiso   1.00
C615   C     0.46798   0.73980   0.95876   0.00000  Uiso   1.00
C616   C     0.03203   0.76020   0.04127   0.00000  Uiso   1.00
C617   C     0.09800   0.84801   0.24997   0.00000  Uiso   1.00
C618   C     0.40201   0.65197   0.75004   0.00000  Uiso   1.00
C619   C     0.15198   0.59802   0.25000   0.00000  Uiso   1.00
C620   C     0.34802   0.90198   0.75000   0.00000  Uiso   1.00
C621   C     0.40198   0.65200   0.25003   0.00000  Uiso   1.00
C622   C     0.09802   0.84800   0.74996   0.00000  Uiso   1.00
C623   C     0.34800   0.90187   0.24981   0.00000  Uiso   1.00
C624   C     0.03212   0.75784   0.08223   0.00000  Uiso   1.00
C625   C     0.15205   0.59819   0.75010   0.00000  Uiso   1.00
C626   C     0.09844   0.65232   0.75096   0.00000  Uiso   1.00
C627   C     0.40130   0.84742   0.24944   0.00000  Uiso   1.00
C628   C     0.15197   0.90201   0.75003   0.00000  Uiso   1.00
C629   C     0.34802   0.59800   0.24997   0.00000  Uiso   1.00
C630   C     0.40198   0.84802   0.75000   0.00000  Uiso   1.00
C631   C     0.09802   0.65198   0.25000   0.00000  Uiso   1.00
C632   C     0.34800   0.59802   0.74996   0.00000  Uiso   1.00
C633   C     0.15200   0.90198   0.25002   0.00000  Uiso   1.00
C634   C     0.49903   0.75035   0.47937   0.00000  Uiso   1.00
C635   C     0.24207   0.96789   0.91779   0.00000  Uiso   1.00
C636   C     0.00087   0.74967   0.52061   0.00000  Uiso   1.00
C637   C     0.25034   0.99903   0.47937   0.00000  Uiso   1.00
C638   C     0.24968   0.50088   0.52061   0.00000  Uiso   1.00
C639   C     0.24911   0.50032   0.97939   0.00000  Uiso   1.00
C640   C     0.25097   0.99966   0.02063   0.00000  Uiso   1.00
C641   C     0.00032   0.74912   0.97939   0.00000  Uiso   1.00
C642   C     0.49966   0.75097   0.02063   0.00000  Uiso   1.00
C643   C     0.25783   0.53212   0.08223   0.00000  Uiso   1.00
C644   C     0.03305   0.75760   0.91803   0.00000  Uiso   1.00
C645   C     0.46689   0.74261   0.08200   0.00000  Uiso   1.00
C646   C     0.49960   0.75061   0.39804   0.00000  Uiso   1.00
C647   C     0.00037   0.74939   0.60194   0.00000  Uiso   1.00
C648   C     0.25060   0.99960   0.39804   0.00000  Uiso   1.00
C649   C     0.49216   0.71699   0.58196   0.00000  Uiso   1.00
C650   C     0.24941   0.50038   0.60194   0.00000  Uiso   1.00
C651   C     0.24962   0.50058   0.89806   0.00000  Uiso   1.00
C652   C     0.25040   0.99940   0.10196   0.00000  Uiso   1.00
C653   C     0.00059   0.74962   0.89806   0.00000  Uiso   1.00
C654   C     0.49940   0.75040   0.10196   0.00000  Uiso   1.00
C655   C     0.48003   0.68647   0.47998   0.00000  Uiso   1.00
C656   C     0.01989   0.81354   0.51998   0.00000  Uiso   1.00
C657   C     0.31589   0.51095   0.48063   0.00000  Uiso   1.00
C658   C     0.18414   0.98886   0.51936   0.00000  Uiso   1.00
C659   C     0.01136   0.81583   0.48064   0.00000  Uiso   1.00
C660   C     0.21789   0.99212   0.41777   0.00000  Uiso   1.00
C661   C     0.48846   0.68420   0.51934   0.00000  Uiso   1.00
C662   C     0.18634   0.98043   0.47999   0.00000  Uiso   1.00
C663   C     0.31366   0.51952   0.51996   0.00000  Uiso   1.00
C664   C     0.23057   0.93631   0.98004   0.00000  Uiso   1.00
C665   C     0.26947   0.56369   0.02001   0.00000  Uiso   1.00
C666   C     0.06588   0.76106   0.98064   0.00000  Uiso   1.00
C667   C     0.43410   0.73912   0.01937   0.00000  Uiso   1.00
C668   C     0.26103   0.56588   0.98064   0.00000  Uiso   1.00
C669   C     0.23914   0.93409   0.01937   0.00000  Uiso   1.00
C670   C     0.43632   0.73055   0.98004   0.00000  Uiso   1.00
C671   C     0.28209   0.50797   0.58221   0.00000  Uiso   1.00
C672   C     0.06368   0.76949   0.02001   0.00000  Uiso   1.00
C673   C     0.25046   0.99995   0.35577   0.00000  Uiso   1.00
C674   C     0.24954   0.50004   0.64422   0.00000  Uiso   1.00
C675   C     0.49996   0.75048   0.35577   0.00000  Uiso   1.00
C676   C     0.00004   0.74952   0.64422   0.00000  Uiso   1.00
C677   C     0.00046   0.74996   0.85578   0.00000  Uiso   1.00
C678   C     0.49954   0.75004   0.14423   0.00000  Uiso   1.00
C679   C     0.24996   0.50046   0.85578   0.00000  Uiso   1.00
C680   C     0.25005   0.99954   0.14423   0.00000  Uiso   1.00
C681   C     0.18003   0.56998   0.25000   0.00000  Uiso   1.00
C682   C     0.49190   0.71796   0.41776   0.00000  Uiso   1.00
C683   C     0.31998   0.93002   0.75000   0.00000  Uiso   1.00
C684   C     0.43002   0.68004   0.25001   0.00000  Uiso   1.00
C685   C     0.06998   0.81996   0.74999   0.00000  Uiso   1.00
C686   C     0.32000   0.93000   0.24998   0.00000  Uiso   1.00
C687   C     0.18001   0.57001   0.75000   0.00000  Uiso   1.00
C688   C     0.06997   0.81997   0.24999   0.00000  Uiso   1.00
C689   C     0.43004   0.68002   0.75001   0.00000  Uiso   1.00
C690   C     0.18002   0.93004   0.75001   0.00000  Uiso   1.00
C691   C     0.31998   0.56996   0.24999   0.00000  Uiso   1.00
C692   C     0.43003   0.81998   0.75000   0.00000  Uiso   1.00
C693   C     0.00815   0.78203   0.58222   0.00000  Uiso   1.00
C694   C     0.06998   0.68003   0.25000   0.00000  Uiso   1.00
C695   C     0.31996   0.56998   0.74999   0.00000  Uiso   1.00
C696   C     0.18004   0.93002   0.25001   0.00000  Uiso   1.00
C697   C     0.07012   0.68011   0.75021   0.00000  Uiso   1.00
C698   C     0.42986   0.81987   0.24984   0.00000  Uiso   1.00
C699   C     0.11571   0.91119   0.26039   0.00000  Uiso   1.00
C700   C     0.38435   0.58876   0.73989   0.00000  Uiso   1.00
C701   C     0.08854   0.61543   0.25907   0.00000  Uiso   1.00
C702   C     0.38255   0.85567   0.78470   0.00000  Uiso   1.00
C703   C     0.38431   0.58876   0.26022   0.00000  Uiso   1.00
C704   C     0.28310   0.50743   0.41800   0.00000  Uiso   1.00
C705   C     0.11567   0.91125   0.73984   0.00000  Uiso   1.00
C706   C     0.38397   0.85729   0.21423   0.00000  Uiso   1.00
C707   C     0.08799   0.61564   0.74621   0.00000  Uiso   1.00
C708   C     0.11493   0.58835   0.74473   0.00000  Uiso   1.00
C709   C     0.35714   0.88418   0.21447   0.00000  Uiso   1.00
C710   C     0.08878   0.88433   0.73980   0.00000  Uiso   1.00
C711   C     0.41122   0.61568   0.26024   0.00000  Uiso   1.00
C712   C     0.35567   0.88255   0.78470   0.00000  Uiso   1.00
C713   C     0.11543   0.58854   0.25907   0.00000  Uiso   1.00
C714   C     0.41127   0.61564   0.73994   0.00000  Uiso   1.00
C715   C     0.21696   0.99236   0.58197   0.00000  Uiso   1.00
C716   C     0.08880   0.88428   0.26038   0.00000  Uiso   1.00
C717   C     0.36566   0.66123   0.76011   0.00000  Uiso   1.00
C718   C     0.13430   0.83881   0.23960   0.00000  Uiso   1.00
C719   C     0.36745   0.89433   0.71530   0.00000  Uiso   1.00
C720   C     0.16146   0.63458   0.24093   0.00000  Uiso   1.00
C721   C     0.13433   0.83875   0.76016   0.00000  Uiso   1.00
C722   C     0.36569   0.66124   0.23978   0.00000  Uiso   1.00
C723   C     0.16219   0.63514   0.75591   0.00000  Uiso   1.00
C724   C     0.36562   0.89220   0.28505   0.00000  Uiso   1.00
C725   C     0.39176   0.86411   0.28481   0.00000  Uiso   1.00
C726   C     0.25759   0.53305   0.91803   0.00000  Uiso   1.00
C727   C     0.13550   0.66217   0.75595   0.00000  Uiso   1.00
C728   C     0.33878   0.63432   0.23977   0.00000  Uiso   1.00
C729   C     0.16122   0.86568   0.76019   0.00000  Uiso   1.00
C730   C     0.13458   0.66146   0.24092   0.00000  Uiso   1.00
C731   C     0.39433   0.86745   0.71530   0.00000  Uiso   1.00
C732   C     0.16121   0.86572   0.23961   0.00000  Uiso   1.00
C733   C     0.33874   0.63434   0.76007   0.00000  Uiso   1.00
C734   C     0.48955   0.71806   0.45873   0.00000  Uiso   1.00
C735   C     0.01042   0.78194   0.54124   0.00000  Uiso   1.00
C736   C     0.28364   0.50524   0.45902   0.00000  Uiso   1.00
H737   H     0.12694   0.96087   0.27836   0.00000  Uiso   1.00
H738   H     0.31566   0.90265   0.18439   0.00000  Uiso   1.00
H739   H     0.03913   0.87314   0.72175   0.00000  Uiso   1.00
H740   H     0.46090   0.62686   0.27820   0.00000  Uiso   1.00
H741   H     0.31363   0.90095   0.81416   0.00000  Uiso   1.00
H742   H     0.12614   0.53869   0.27675   0.00000  Uiso   1.00
H743   H     0.46107   0.62679   0.72215   0.00000  Uiso   1.00
H744   H     0.03910   0.87300   0.27839   0.00000  Uiso   1.00
H745   H     0.37682   0.71089   0.77814   0.00000  Uiso   1.00
H746   H     0.12306   0.78912   0.22166   0.00000  Uiso   1.00
H747   H     0.34906   0.93638   0.68585   0.00000  Uiso   1.00
H748   H     0.37318   0.53910   0.72186   0.00000  Uiso   1.00
H749   H     0.21131   0.62385   0.22325   0.00000  Uiso   1.00
H750   H     0.12313   0.78902   0.77809   0.00000  Uiso   1.00
H751   H     0.37691   0.71094   0.22178   0.00000  Uiso   1.00
H752   H     0.21228   0.62538   0.77291   0.00000  Uiso   1.00
H753   H     0.34871   0.93458   0.31477   0.00000  Uiso   1.00
H754   H     0.39987   0.86630   0.34123   0.00000  Uiso   1.00
H755   H     0.12611   0.71263   0.77189   0.00000  Uiso   1.00
H756   H     0.28910   0.62314   0.22180   0.00000  Uiso   1.00
H757   H     0.21087   0.87686   0.77825   0.00000  Uiso   1.00
H758   H     0.12385   0.71132   0.22326   0.00000  Uiso   1.00
H759   H     0.03871   0.62615   0.27679   0.00000  Uiso   1.00
H760   H     0.43638   0.84905   0.68584   0.00000  Uiso   1.00
H761   H     0.21091   0.87700   0.22161   0.00000  Uiso   1.00
H762   H     0.28901   0.62318   0.77801   0.00000  Uiso   1.00
H763   H     0.40095   0.81363   0.81416   0.00000  Uiso   1.00
H764   H     0.37309   0.53906   0.27822   0.00000  Uiso   1.00
H765   H     0.12685   0.96101   0.72196   0.00000  Uiso   1.00
H766   H     0.40312   0.81651   0.18356   0.00000  Uiso   1.00
H767   H     0.04745   0.58103   0.73950   0.00000  Uiso   1.00
H768   H     0.12459   0.53881   0.72592   0.00000  Uiso   1.00
I769   I     0.43876   0.64880   0.46147   0.00000  Uiso   1.00
I770   I     0.31043   0.60168   0.03853   0.00000  Uiso   1.00
I771   I     0.11809   0.74050   0.96310   0.00000  Uiso   1.00
I772   I     0.38193   0.75992   0.03672   0.00000  Uiso   1.00
I773   I     0.24046   0.61808   0.96310   0.00000  Uiso   1.00
I774   I     0.25996   0.88194   0.03672   0.00000  Uiso   1.00
I775   I     0.39841   0.68943   0.96174   0.00000  Uiso   1.00
I776   I     0.10166   0.81047   0.03852   0.00000  Uiso   1.00
I777   I     0.03392   0.82594   0.38507   0.00000  Uiso   1.00
I778   I     0.46560   0.67425   0.61487   0.00000  Uiso   1.00
I779   I     0.16826   0.99835   0.38457   0.00000  Uiso   1.00
I780   I     0.06125   0.85118   0.53831   0.00000  Uiso   1.00
I781   I     0.33173   0.50207   0.61545   0.00000  Uiso   1.00
I782   I     0.49783   0.66829   0.38456   0.00000  Uiso   1.00
I783   I     0.00247   0.83171   0.61545   0.00000  Uiso   1.00
I784   I     0.32617   0.53333   0.38500   0.00000  Uiso   1.00
I785   I     0.17408   0.96606   0.61490   0.00000  Uiso   1.00
I786   I     0.28383   0.57596   0.88510   0.00000  Uiso   1.00
I787   I     0.21679   0.92379   0.11501   0.00000  Uiso   1.00
I788   I     0.41826   0.74801   0.88455   0.00000  Uiso   1.00
I789   I     0.08174   0.75155   0.11543   0.00000  Uiso   1.00
I790   I     0.24803   0.91826   0.88455   0.00000  Uiso   1.00
I791   I     0.36808   0.99020   0.46328   0.00000  Uiso   1.00
I792   I     0.25152   0.58174   0.11543   0.00000  Uiso   1.00
I793   I     0.07595   0.78386   0.88510   0.00000  Uiso   1.00
I794   I     0.42380   0.71675   0.11500   0.00000  Uiso   1.00
I795   I     0.13190   0.50936   0.53689   0.00000  Uiso   1.00
I796   I     0.49094   0.86814   0.46327   0.00000  Uiso   1.00
I797   I     0.00866   0.63184   0.53685   0.00000  Uiso   1.00
I798   I     0.14842   0.93940   0.46148   0.00000  Uiso   1.00
I799   I     0.35153   0.56067   0.53826   0.00000  Uiso   1.00
I800   I     0.18947   0.89838   0.96174   0.00000  Uiso   1.00
O801   O     0.25000   0.50000   0.25000   0.00000  Uiso   1.00
O802   O     0.25000   0.96963   0.66245   0.00000  Uiso   1.00
O803   O     0.46964   0.75000   0.33755   0.00000  Uiso   1.00
O804   O     0.03037   0.75000   0.66245   0.00000  Uiso   1.00
O805   O     0.00000   0.71963   0.83755   0.00000  Uiso   1.00
O806   O     0.00000   0.78036   0.16245   0.00000  Uiso   1.00
O807   O     0.28037   0.50000   0.83755   0.00000  Uiso   1.00
O808   O     0.21964   0.50000   0.16245   0.00000  Uiso   1.00
O809   O     0.00000   0.78036   0.83755   0.00000  Uiso   1.00
O810   O     0.00000   0.71963   0.16245   0.00000  Uiso   1.00
O811   O     0.21964   0.50000   0.83755   0.00000  Uiso   1.00
O812   O     0.25000   0.50000   0.75000   0.00000  Uiso   1.00
O813   O     0.28037   0.50000   0.16245   0.00000  Uiso   1.00
O814   O     0.20725   0.57307   0.27302   0.00000  Uiso   1.00
O815   O     0.29276   0.92692   0.72698   0.00000  Uiso   1.00
O816   O     0.42693   0.70724   0.27302   0.00000  Uiso   1.00
O817   O     0.07308   0.79275   0.72698   0.00000  Uiso   1.00
O818   O     0.29276   0.92692   0.27302   0.00000  Uiso   1.00
O819   O     0.20725   0.57307   0.72698   0.00000  Uiso   1.00
O820   O     0.07308   0.79275   0.27302   0.00000  Uiso   1.00
O821   O     0.42693   0.70724   0.72698   0.00000  Uiso   1.00
O822   O     0.20725   0.92692   0.72698   0.00000  Uiso   1.00
O823   O     0.00000   0.75000   0.25000   0.00000  Uiso   1.00
O824   O     0.29276   0.57307   0.27302   0.00000  Uiso   1.00
O825   O     0.42693   0.79275   0.72698   0.00000  Uiso   1.00
O826   O     0.07308   0.70724   0.27302   0.00000  Uiso   1.00
O827   O     0.29276   0.57307   0.72698   0.00000  Uiso   1.00
O828   O     0.20725   0.92692   0.27302   0.00000  Uiso   1.00
O829   O     0.07308   0.70724   0.72698   0.00000  Uiso   1.00
O830   O     0.42693   0.79275   0.27302   0.00000  Uiso   1.00
O831   O     0.45725   0.82307   0.77302   0.00000  Uiso   1.00
O832   O     0.04276   0.67692   0.22698   0.00000  Uiso   1.00
O833   O     0.17693   0.95724   0.77302   0.00000  Uiso   1.00
O834   O     0.00000   0.75000   0.75000   0.00000  Uiso   1.00
O835   O     0.32308   0.54275   0.22698   0.00000  Uiso   1.00
O836   O     0.04276   0.67692   0.77302   0.00000  Uiso   1.00
O837   O     0.45725   0.82307   0.22698   0.00000  Uiso   1.00
O838   O     0.32308   0.54275   0.77302   0.00000  Uiso   1.00
O839   O     0.17693   0.95724   0.22698   0.00000  Uiso   1.00
O840   O     0.45725   0.67692   0.22698   0.00000  Uiso   1.00
O841   O     0.04276   0.82307   0.77302   0.00000  Uiso   1.00
O842   O     0.17693   0.54275   0.22698   0.00000  Uiso   1.00
O843   O     0.32308   0.95724   0.77302   0.00000  Uiso   1.00
O844   O     0.04276   0.82307   0.22698   0.00000  Uiso   1.00
O845   O     0.25000   0.96963   0.33755   0.00000  Uiso   1.00
O846   O     0.45725   0.67692   0.77302   0.00000  Uiso   1.00
O847   O     0.32308   0.95724   0.22698   0.00000  Uiso   1.00
O848   O     0.17693   0.54275   0.77302   0.00000  Uiso   1.00
O849   O     0.10529   0.94592   0.27188   0.00000  Uiso   1.00
O850   O     0.39481   0.55397   0.72864   0.00000  Uiso   1.00
O851   O     0.05352   0.60471   0.26933   0.00000  Uiso   1.00
O852   O     0.38798   0.83682   0.81917   0.00000  Uiso   1.00
O853   O     0.39474   0.55399   0.27158   0.00000  Uiso   1.00
O854   O     0.10522   0.94605   0.72856   0.00000  Uiso   1.00
O855   O     0.39123   0.84038   0.17906   0.00000  Uiso   1.00
O856   O     0.25000   0.53036   0.66245   0.00000  Uiso   1.00
O857   O     0.05125   0.60774   0.74125   0.00000  Uiso   1.00
O858   O     0.10408   0.55278   0.73729   0.00000  Uiso   1.00
O859   O     0.33980   0.89145   0.17953   0.00000  Uiso   1.00
O860   O     0.05401   0.89478   0.72848   0.00000  Uiso   1.00
O861   O     0.44598   0.60523   0.27158   0.00000  Uiso   1.00
O862   O     0.33682   0.88798   0.81917   0.00000  Uiso   1.00
O863   O     0.10470   0.55352   0.26933   0.00000  Uiso   1.00
O864   O     0.44609   0.60516   0.72875   0.00000  Uiso   1.00
O865   O     0.05405   0.89468   0.27188   0.00000  Uiso   1.00
O866   O     0.35520   0.69602   0.77135   0.00000  Uiso   1.00
O867   O     0.03037   0.75000   0.33755   0.00000  Uiso   1.00
O868   O     0.14472   0.80408   0.22811   0.00000  Uiso   1.00
O869   O     0.36201   0.91318   0.68083   0.00000  Uiso   1.00
O870   O     0.19648   0.64530   0.23066   0.00000  Uiso   1.00
O871   O     0.14478   0.80396   0.77145   0.00000  Uiso   1.00
O872   O     0.35526   0.69601   0.22842   0.00000  Uiso   1.00
O873   O     0.19779   0.64614   0.76288   0.00000  Uiso   1.00
O874   O     0.35860   0.90990   0.31986   0.00000  Uiso   1.00
O875   O     0.40987   0.85337   0.31831   0.00000  Uiso   1.00
O876   O     0.14686   0.69770   0.76262   0.00000  Uiso   1.00
O877   O     0.30402   0.64477   0.22843   0.00000  Uiso   1.00
O878   O     0.46964   0.75000   0.66245   0.00000  Uiso   1.00
O879   O     0.19599   0.85523   0.77151   0.00000  Uiso   1.00
O880   O     0.14530   0.69648   0.23065   0.00000  Uiso   1.00
O881   O     0.41318   0.86202   0.68083   0.00000  Uiso   1.00
O882   O     0.19595   0.85532   0.22809   0.00000  Uiso   1.00
O883   O     0.30393   0.64481   0.77128   0.00000  Uiso   1.00
O884   O     0.25000   0.53036   0.33755   0.00000  Uiso   1.00
Zn885  Zn    0.20660   0.50000   0.21735   0.00000  Uiso   1.00
Zn886  Zn    0.04341   0.75000   0.28265   0.00000  Uiso   1.00
Zn887  Zn    0.25000   0.95659   0.71735   0.00000  Uiso   1.00
Zn888  Zn    0.25000   0.54340   0.28265   0.00000  Uiso   1.00
Zn889  Zn    0.04341   0.75000   0.71735   0.00000  Uiso   1.00
Zn890  Zn    0.45660   0.75000   0.28265   0.00000  Uiso   1.00
Zn891  Zn    0.25000   0.54340   0.71735   0.00000  Uiso   1.00
Zn892  Zn    0.25000   0.95659   0.28265   0.00000  Uiso   1.00
Zn893  Zn    0.29341   0.50000   0.78265   0.00000  Uiso   1.00
Zn894  Zn    0.00000   0.70659   0.21735   0.00000  Uiso   1.00
Zn895  Zn    0.00000   0.79340   0.78265   0.00000  Uiso   1.00
Zn896  Zn    0.29341   0.50000   0.21735   0.00000  Uiso   1.00
Zn897  Zn    0.20660   0.50000   0.78265   0.00000  Uiso   1.00
Zn898  Zn    0.00000   0.79340   0.21735   0.00000  Uiso   1.00
Zn899  Zn    0.00000   0.70659   0.78265   0.00000  Uiso   1.00
Zn900  Zn    0.45660   0.75000   0.71735   0.00000  Uiso   1.00
C901   C     0.50766   0.78306   0.41802   0.00000  Uiso   1.00
C902   C     0.74263   0.96689   0.08200   0.00000  Uiso   1.00
C903   C     0.71639   0.99459   0.54096   0.00000  Uiso   1.00
C904   C     0.50546   0.78361   0.45903   0.00000  Uiso   1.00
C905   C     0.99439   0.71642   0.54095   0.00000  Uiso   1.00
C906   C     0.71799   0.98975   0.45873   0.00000  Uiso   1.00
C907   C     0.78201   0.51023   0.54124   0.00000  Uiso   1.00
C908   C     0.73981   0.96797   0.95876   0.00000  Uiso   1.00
C909   C     0.76019   0.53203   0.04127   0.00000  Uiso   1.00
C910   C     0.53361   0.75536   0.95904   0.00000  Uiso   1.00
C911   C     0.96635   0.74480   0.04098   0.00000  Uiso   1.00
C912   C     0.75535   0.53362   0.95904   0.00000  Uiso   1.00
C913   C     0.96790   0.74206   0.91779   0.00000  Uiso   1.00
C914   C     0.74481   0.96635   0.04098   0.00000  Uiso   1.00
C915   C     0.96798   0.73980   0.95876   0.00000  Uiso   1.00
C916   C     0.53203   0.76020   0.04127   0.00000  Uiso   1.00
C917   C     0.59800   0.84801   0.24997   0.00000  Uiso   1.00
C918   C     0.90201   0.65197   0.75004   0.00000  Uiso   1.00
C919   C     0.65198   0.59802   0.25000   0.00000  Uiso   1.00
C920   C     0.84802   0.90198   0.75000   0.00000  Uiso   1.00
C921   C     0.90198   0.65200   0.25003   0.00000  Uiso   1.00
C922   C     0.59802   0.84800   0.74996   0.00000  Uiso   1.00
C923   C     0.84800   0.90187   0.24981   0.00000  Uiso   1.00
C924   C     0.53212   0.75784   0.08223   0.00000  Uiso   1.00
C925   C     0.65205   0.59819   0.75010   0.00000  Uiso   1.00
C926   C     0.59844   0.65232   0.75096   0.00000  Uiso   1.00
C927   C     0.90130   0.84742   0.24944   0.00000  Uiso   1.00
C928   C     0.65197   0.90201   0.75003   0.00000  Uiso   1.00
C929   C     0.84802   0.59800   0.24997   0.00000  Uiso   1.00
C930   C     0.90198   0.84802   0.75000   0.00000  Uiso   1.00
C931   C     0.59802   0.65198   0.25000   0.00000  Uiso   1.00
C932   C     0.84800   0.59802   0.74996   0.00000  Uiso   1.00
C933   C     0.65200   0.90198   0.25002   0.00000  Uiso   1.00
C934   C     0.99903   0.75035   0.47937   0.00000  Uiso   1.00
C935   C     0.74207   0.96789   0.91779   0.00000  Uiso   1.00
C936   C     0.50087   0.74967   0.52061   0.00000  Uiso   1.00
C937   C     0.75034   0.99903   0.47937   0.00000  Uiso   1.00
C938   C     0.74968   0.50088   0.52061   0.00000  Uiso   1.00
C939   C     0.74911   0.50032   0.97939   0.00000  Uiso   1.00
C940   C     0.75097   0.99966   0.02063   0.00000  Uiso   1.00
C941   C     0.50032   0.74912   0.97939   0.00000  Uiso   1.00
C942   C     0.99966   0.75097   0.02063   0.00000  Uiso   1.00
C943   C     0.75783   0.53212   0.08223   0.00000  Uiso   1.00
C944   C     0.53305   0.75760   0.91803   0.00000  Uiso   1.00
C945   C     0.96689   0.74261   0.08200   0.00000  Uiso   1.00
C946   C     0.99960   0.75061   0.39804   0.00000  Uiso   1.00
C947   C     0.50037   0.74939   0.60194   0.00000  Uiso   1.00
C948   C     0.75060   0.99960   0.39804   0.00000  Uiso   1.00
C949   C     0.99216   0.71699   0.58196   0.00000  Uiso   1.00
C950   C     0.74941   0.50038   0.60194   0.00000  Uiso   1.00
C951   C     0.74962   0.50058   0.89806   0.00000  Uiso   1.00
C952   C     0.75040   0.99940   0.10196   0.00000  Uiso   1.00
C953   C     0.50059   0.74962   0.89806   0.00000  Uiso   1.00
C954   C     0.99940   0.75040   0.10196   0.00000  Uiso   1.00
C955   C     0.98003   0.68647   0.47998   0.00000  Uiso   1.00
C956   C     0.51989   0.81354   0.51998   0.00000  Uiso   1.00
C957   C     0.81589   0.51095   0.48063   0.00000  Uiso   1.00
C958   C     0.68414   0.98886   0.51936   0.00000  Uiso   1.00
C959   C     0.51136   0.81583   0.48064   0.00000  Uiso   1.00
C960   C     0.71789   0.99212   0.41777   0.00000  Uiso   1.00
C961   C     0.98846   0.68420   0.51934   0.00000  Uiso   1.00
C962   C     0.68634   0.98043   0.47999   0.00000  Uiso   1.00
C963   C     0.81366   0.51952   0.51996   0.00000  Uiso   1.00
C964   C     0.73057   0.93631   0.98004   0.00000  Uiso   1.00
C965   C     0.76947   0.56369   0.02001   0.00000  Uiso   1.00
C966   C     0.56588   0.76106   0.98064   0.00000  Uiso   1.00
C967   C     0.93410   0.73912   0.01937   0.00000  Uiso   1.00
C968   C     0.76103   0.56588   0.98064   0.00000  Uiso   1.00
C969   C     0.73914   0.93409   0.01937   0.00000  Uiso   1.00
C970   C     0.93632   0.73055   0.98004   0.00000  Uiso   1.00
C971   C     0.78209   0.50797   0.58221   0.00000  Uiso   1.00
C972   C     0.56368   0.76949   0.02001   0.00000  Uiso   1.00
C973   C     0.75046   0.99995   0.35577   0.00000  Uiso   1.00
C974   C     0.74954   0.50004   0.64422   0.00000  Uiso   1.00
C975   C     0.99996   0.75048   0.35577   0.00000  Uiso   1.00
C976   C     0.50004   0.74952   0.64422   0.00000  Uiso   1.00
C977   C     0.50046   0.74996   0.85578   0.00000  Uiso   1.00
C978   C     0.99954   0.75004   0.14423   0.00000  Uiso   1.00
C979   C     0.74996   0.50046   0.85578   0.00000  Uiso   1.00
C980   C     0.75005   0.99954   0.14423   0.00000  Uiso   1.00
C981   C     0.68003   0.56998   0.25000   0.00000  Uiso   1.00
C982   C     0.99190   0.71796   0.41776   0.00000  Uiso   1.00
C983   C     0.81998   0.93002   0.75000   0.00000  Uiso   1.00
C984   C     0.93002   0.68004   0.25001   0.00000  Uiso   1.00
C985   C     0.56998   0.81996   0.74999   0.00000  Uiso   1.00
C986   C     0.82000   0.93000   0.24998   0.00000  Uiso   1.00
C987   C     0.68001   0.57001   0.75000   0.00000  Uiso   1.00
C988   C     0.56997   0.81997   0.24999   0.00000  Uiso   1.00
C989   C     0.93004   0.68002   0.75001   0.00000  Uiso   1.00
C990   C     0.68002   0.93004   0.75001   0.00000  Uiso   1.00
C991   C     0.81998   0.56996   0.24999   0.00000  Uiso   1.00
C992   C     0.93003   0.81998   0.75000   0.00000  Uiso   1.00
C993   C     0.50815   0.78203   0.58222   0.00000  Uiso   1.00
C994   C     0.56998   0.68003   0.25000   0.00000  Uiso   1.00
C995   C     0.81996   0.56998   0.74999   0.00000  Uiso   1.00
C996   C     0.68004   0.93002   0.25001   0.00000  Uiso   1.00
C997   C     0.57012   0.68011   0.75021   0.00000  Uiso   1.00
C998   C     0.92986   0.81987   0.24984   0.00000  Uiso   1.00
C999   C     0.61571   0.91119   0.26039   0.00000  Uiso   1.00
C1000  C     0.88435   0.58876   0.73989   0.00000  Uiso   1.00
C1001  C     0.58854   0.61543   0.25907   0.00000  Uiso   1.00
C1002  C     0.88255   0.85567   0.78470   0.00000  Uiso   1.00
C1003  C     0.88431   0.58876   0.26022   0.00000  Uiso   1.00
C1004  C     0.78310   0.50743   0.41800   0.00000  Uiso   1.00
C1005  C     0.61567   0.91125   0.73984   0.00000  Uiso   1.00
C1006  C     0.88397   0.85729   0.21423   0.00000  Uiso   1.00
C1007  C     0.58799   0.61564   0.74621   0.00000  Uiso   1.00
C1008  C     0.61493   0.58835   0.74473   0.00000  Uiso   1.00
C1009  C     0.85714   0.88418   0.21447   0.00000  Uiso   1.00
C1010  C     0.58878   0.88433   0.73980   0.00000  Uiso   1.00
C1011  C     0.91122   0.61568   0.26024   0.00000  Uiso   1.00
C1012  C     0.85567   0.88255   0.78470   0.00000  Uiso   1.00
C1013  C     0.61543   0.58854   0.25907   0.00000  Uiso   1.00
C1014  C     0.91127   0.61564   0.73994   0.00000  Uiso   1.00
C1015  C     0.71696   0.99236   0.58197   0.00000  Uiso   1.00
C1016  C     0.58880   0.88428   0.26038   0.00000  Uiso   1.00
C1017  C     0.86566   0.66123   0.76011   0.00000  Uiso   1.00
C1018  C     0.63430   0.83881   0.23960   0.00000  Uiso   1.00
C1019  C     0.86745   0.89433   0.71530   0.00000  Uiso   1.00
C1020  C     0.66146   0.63458   0.24093   0.00000  Uiso   1.00
C1021  C     0.63433   0.83875   0.76016   0.00000  Uiso   1.00
C1022  C     0.86569   0.66124   0.23978   0.00000  Uiso   1.00
C1023  C     0.66219   0.63514   0.75591   0.00000  Uiso   1.00
C1024  C     0.86562   0.89220   0.28505   0.00000  Uiso   1.00
C1025  C     0.89176   0.86411   0.28481   0.00000  Uiso   1.00
C1026  C     0.75759   0.53305   0.91803   0.00000  Uiso   1.00
C1027  C     0.63550   0.66217   0.75595   0.00000  Uiso   1.00
C1028  C     0.83878   0.63432   0.23977   0.00000  Uiso   1.00
C1029  C     0.66122   0.86568   0.76019   0.00000  Uiso   1.00
C1030  C     0.63458   0.66146   0.24092   0.00000  Uiso   1.00
C1031  C     0.89433   0.86745   0.71530   0.00000  Uiso   1.00
C1032  C     0.66121   0.86572   0.23961   0.00000  Uiso   1.00
C1033  C     0.83874   0.63434   0.76007   0.00000  Uiso   1.00
C1034  C     0.98955   0.71806   0.45873   0.00000  Uiso   1.00
C1035  C     0.51042   0.78194   0.54124   0.00000  Uiso   1.00
C1036  C     0.78364   0.50524   0.45902   0.00000  Uiso   1.00
H1037  H     0.62694   0.96087   0.27836   0.00000  Uiso   1.00
H1038  H     0.81566   0.90265   0.18439   0.00000  Uiso   1.00
H1039  H     0.53913   0.87314   0.72175   0.00000  Uiso   1.00
H1040  H     0.96090   0.62686   0.27820   0.00000  Uiso   1.00
H1041  H     0.81363   0.90095   0.81416   0.00000  Uiso   1.00
H1042  H     0.62614   0.53869   0.27675   0.00000  Uiso   1.00
H1043  H     0.96107   0.62679   0.72215   0.00000  Uiso   1.00
H1044  H     0.53910   0.87300   0.27839   0.00000  Uiso   1.00
H1045  H     0.87682   0.71089   0.77814   0.00000  Uiso   1.00
H1046  H     0.62306   0.78912   0.22166   0.00000  Uiso   1.00
H1047  H     0.84906   0.93638   0.68585   0.00000  Uiso   1.00
H1048  H     0.87318   0.53910   0.72186   0.00000  Uiso   1.00
H1049  H     0.71131   0.62385   0.22325   0.00000  Uiso   1.00
H1050  H     0.62313   0.78902   0.77809   0.00000  Uiso   1.00
H1051  H     0.87691   0.71094   0.22178   0.00000  Uiso   1.00
H1052  H     0.71228   0.62538   0.77291   0.00000  Uiso   1.00
H1053  H     0.84871   0.93458   0.31477   0.00000  Uiso   1.00
H1054  H     0.89987   0.86630   0.34123   0.00000  Uiso   1.00
H1055  H     0.62611   0.71263   0.77189   0.00000  Uiso   1.00
H1056  H     0.78910   0.62314   0.22180   0.00000  Uiso   1.00
H1057  H     0.71087   0.87686   0.77825   0.00000  Uiso   1.00
H1058  H     0.62385   0.71132   0.22326   0.00000  Uiso   1.00
H1059  H     0.53871   0.62615   0.27679   0.00000  Uiso   1.00
H1060  H     0.93638   0.84905   0.68584   0.00000  Uiso   1.00
H1061  H     0.71091   0.87700   0.22161   0.00000  Uiso   1.00
H1062  H     0.78901   0.62318   0.77801   0.00000  Uiso   1.00
H1063  H     0.90095   0.81363   0.81416   0.00000  Uiso   1.00
H1064  H     0.87309   0.53906   0.27822   0.00000  Uiso   1.00
H1065  H     0.62685   0.96101   0.72196   0.00000  Uiso   1.00
H1066  H     0.90312   0.81651   0.18356   0.00000  Uiso   1.00
H1067  H     0.54745   0.58103   0.73950   0.00000  Uiso   1.00
H1068  H     0.62459   0.53881   0.72592   0.00000  Uiso   1.00
I1069  I     0.93876   0.64880   0.46147   0.00000  Uiso   1.00
I1070  I     0.81043   0.60168   0.03853   0.00000  Uiso   1.00
I1071  I     0.61809   0.74050   0.96310   0.00000  Uiso   1.00
I1072  I     0.88193   0.75992   0.03672   0.00000  Uiso   1.00
I1073  I     0.74046   0.61808   0.96310   0.00000  Uiso   1.00
I1074  I     0.75996   0.88194   0.03672   0.00000  Uiso   1.00
I1075  I     0.89841   0.68943   0.96174   0.00000  Uiso   1.00
I1076  I     0.60166   0.81047   0.03852   0.00000  Uiso   1.00
I1077  I     0.53392   0.82594   0.38507   0.00000  Uiso   1.00
I1078  I     0.96560   0.67425   0.61487   0.00000  Uiso   1.00
I1079  I     0.66826   0.99835   0.38457   0.00000  Uiso   1.00
I1080  I     0.56125   0.85118   0.53831   0.00000  Uiso   1.00
I1081  I     0.83173   0.50207   0.61545   0.00000  Uiso   1.00
I1082  I     0.99783   0.66829   0.38456   0.00000  Uiso   1.00
I1083  I     0.50247   0.83171   0.61545   0.00000  Uiso   1.00
I1084  I     0.82617   0.53333   0.38500   0.00000  Uiso   1.00
I1085  I     0.67408   0.96606   0.61490   0.00000  Uiso   1.00
I1086  I     0.78383   0.57596   0.88510   0.00000  Uiso   1.00
I1087  I     0.71679   0.92379   0.11501   0.00000  Uiso   1.00
I1088  I     0.91826   0.74801   0.88455   0.00000  Uiso   1.00
I1089  I     0.58174   0.75155   0.11543   0.00000  Uiso   1.00
I1090  I     0.74803   0.91826   0.88455   0.00000  Uiso   1.00
I1091  I     0.86808   0.99020   0.46328   0.00000  Uiso   1.00
I1092  I     0.75152   0.58174   0.11543   0.00000  Uiso   1.00
I1093  I     0.57595   0.78386   0.88510   0.00000  Uiso   1.00
I1094  I     0.92380   0.71675   0.11500   0.00000  Uiso   1.00
I1095  I     0.63190   0.50936   0.53689   0.00000  Uiso   1.00
I1096  I     0.99094   0.86814   0.46327   0.00000  Uiso   1.00
I1097  I     0.50866   0.63184   0.53685   0.00000  Uiso   1.00
I1098  I     0.64842   0.93940   0.46148   0.00000  Uiso   1.00
I1099  I     0.85153   0.56067   0.53826   0.00000  Uiso   1.00
I1100  I     0.68947   0.89838   0.96174   0.00000  Uiso   1.00
O1101  O     0.75000   0.50000   0.25000   0.00000  Uiso   1.00
O1102  O     0.75000   0.96963   0.66245   0.00000  Uiso   1.00
O1103  O     0.96964   0.75000   0.33755   0.00000  Uiso   1.00
O1104  O     0.53037   0.75000   0.66245   0.00000  Uiso   1.00
O1105  O     0.50000   0.71963   0.83755   0.00000  Uiso   1.00
O1106  O     0.50000   0.78036   0.16245   0.00000  Uiso   1.00
O1107  O     0.78037   0.50000   0.83755   0.00000  Uiso   1.00
O1108  O     0.71964   0.50000   0.16245   0.00000  Uiso   1.00
O1109  O     0.50000   0.78036   0.83755   0.00000  Uiso   1.00
O1110  O     0.50000   0.71963   0.16245   0.00000  Uiso   1.00
O1111  O     0.71964   0.50000   0.83755   0.00000  Uiso   1.00
O1112  O     0.75000   0.50000   0.75000   0.00000  Uiso   1.00
O1113  O     0.78037   0.50000   0.16245   0.00000  Uiso   1.00
O1114  O     0.70725   0.57307   0.27302   0.00000  Uiso   1.00
O1115  O     0.79276   0.92692   0.72698   0.00000  Uiso   1.00
O1116  O     0.92693   0.70724   0.27302   0.00000  Uiso   1.00
O1117  O     0.57308   0.79275   0.72698   0.00000  Uiso   1.00
O1118  O     0.79276   0.92692   0.27302   0.00000  Uiso   1.00
O1119  O     0.70725   0.57307   0.72698   0.00000  Uiso   1.00
O1120  O     0.57308   0.79275   0.27302   0.00000  Uiso   1.00
O1121  O     0.92693   0.70724   0.72698   0.00000  Uiso   1.00
O1122  O     0.70725   0.92692   0.72698   0.00000  Uiso   1.00
O1123  O     0.50000   0.75000   0.25000   0.00000  Uiso   1.00
O1124  O     0.79276   0.57307   0.27302   0.00000  Uiso   1.00
O1125  O     0.92693   0.79275   0.72698   0.00000  Uiso   1.00
O1126  O     0.57308   0.70724   0.27302   0.00000  Uiso   1.00
O1127  O     0.79276   0.57307   0.72698   0.00000  Uiso   1.00
O1128  O     0.70725   0.92692   0.27302   0.00000  Uiso   1.00
O1129  O     0.57308   0.70724   0.72698   0.00000  Uiso   1.00
O1130  O     0.92693   0.79275   0.27302   0.00000  Uiso   1.00
O1131  O     0.95725   0.82307   0.77302   0.00000  Uiso   1.00
O1132  O     0.54276   0.67692   0.22698   0.00000  Uiso   1.00
O1133  O     0.67693   0.95724   0.77302   0.00000  Uiso   1.00
O1134  O     0.50000   0.75000   0.75000   0.00000  Uiso   1.00
O1135  O     0.82308   0.54275   0.22698   0.00000  Uiso   1.00
O1136  O     0.54276   0.67692   0.77302   0.00000  Uiso   1.00
O1137  O     0.95725   0.82307   0.22698   0.00000  Uiso   1.00
O1138  O     0.82308   0.54275   0.77302   0.00000  Uiso   1.00
O1139  O     0.67693   0.95724   0.22698   0.00000  Uiso   1.00
O1140  O     0.95725   0.67692   0.22698   0.00000  Uiso   1.00
O1141  O     0.54276   0.82307   0.77302   0.00000  Uiso   1.00
O1142  O     0.67693   0.54275   0.22698   0.00000  Uiso   1.00
O1143  O     0.82308   0.95724   0.77302   0.00000  Uiso   1.00
O1144  O     0.54276   0.82307   0.22698   0.00000  Uiso   1.00
O1145  O     0.75000   0.96963   0.33755   0.00000  Uiso   1.00
O1146  O     0.95725   0.67692   0.77302   0.00000  Uiso   1.00
O1147  O     0.82308   0.95724   0.22698   0.00000  Uiso   1.00
O1148  O     0.67693   0.54275   0.77302   0.00000  Uiso   1.00
O1149  O     0.60529   0.94592   0.27188   0.00000  Uiso   1.00
O1150  O     0.89481   0.55397   0.72864   0.00000  Uiso   1.00
O1151  O     0.55352   0.60471   0.26933   0.00000  Uiso   1.00
O1152  O     0.88798   0.83682   0.81917   0.00000  Uiso   1.00
O1153  O     0.89474   0.55399   0.27158   0.00000  Uiso   1.00
O1154  O     0.60522   0.94605   0.72856   0.00000  Uiso   1.00
O1155  O     0.89123   0.84038   0.17906   0.00000  Uiso   1.00
O1156  O     0.75000   0.53036   0.66245   0.00000  Uiso   1.00
O1157  O     0.55125   0.60774   0.74125   0.00000  Uiso   1.00
O1158  O     0.60408   0.55278   0.73729   0.00000  Uiso   1.00
O1159  O     0.83980   0.89145   0.17953   0.00000  Uiso   1.00
O1160  O     0.55401   0.89478   0.72848   0.00000  Uiso   1.00
O1161  O     0.94598   0.60523   0.27158   0.00000  Uiso   1.00
O1162  O     0.83682   0.88798   0.81917   0.00000  Uiso   1.00
O1163  O     0.60470   0.55352   0.26933   0.00000  Uiso   1.00
O1164  O     0.94609   0.60516   0.72875   0.00000  Uiso   1.00
O1165  O     0.55405   0.89468   0.27188   0.00000  Uiso   1.00
O1166  O     0.85520   0.69602   0.77135   0.00000  Uiso   1.00
O1167  O     0.53037   0.75000   0.33755   0.00000  Uiso   1.00
O1168  O     0.64472   0.80408   0.22811   0.00000  Uiso   1.00
O1169  O     0.86201   0.91318   0.68083   0.00000  Uiso   1.00
O1170  O     0.69648   0.64530   0.23066   0.00000  Uiso   1.00
O1171  O     0.64478   0.80396   0.77145   0.00000  Uiso   1.00
O1172  O     0.85526   0.69601   0.22842   0.00000  Uiso   1.00
O1173  O     0.69779   0.64614   0.76288   0.00000  Uiso   1.00
O1174  O     0.85860   0.90990   0.31986   0.00000  Uiso   1.00
O1175  O     0.90987   0.85337   0.31831   0.00000  Uiso   1.00
O1176  O     0.64686   0.69770   0.76262   0.00000  Uiso   1.00
O1177  O     0.80402   0.64477   0.22843   0.00000  Uiso   1.00
O1178  O     0.96964   0.75000   0.66245   0.00000  Uiso   1.00
O1179  O     0.69599   0.85523   0.77151   0.00000  Uiso   1.00
O1180  O     0.64530   0.69648   0.23065   0.00000  Uiso   1.00
O1181  O     0.91318   0.86202   0.68083   0.00000  Uiso   1.00
O1182  O     0.69595   0.85532   0.22809   0.00000  Uiso   1.00
O1183  O     0.80393   0.64481   0.77128   0.00000  Uiso   1.00
O1184  O     0.75000   0.53036   0.33755   0.00000  Uiso   1.00
Zn1185 Zn    0.70660   0.50000   0.21735   0.00000  Uiso   1.00
Zn1186 Zn    0.54341   0.75000   0.28265   0.00000  Uiso   1.00
Zn1187 Zn    0.75000   0.95659   0.71735   0.00000  Uiso   1.00
Zn1188 Zn    0.75000   0.54340   0.28265   0.00000  Uiso   1.00
Zn1189 Zn    0.54341   0.75000   0.71735   0.00000  Uiso   1.00
Zn1190 Zn    0.95660   0.75000   0.28265   0.00000  Uiso   1.00
Zn1191 Zn    0.75000   0.54340   0.71735   0.00000  Uiso   1.00
Zn1192 Zn    0.75000   0.95659   0.28265   0.00000  Uiso   1.00
Zn1193 Zn    0.79341   0.50000   0.78265   0.00000  Uiso   1.00
Zn1194 Zn    0.50000   0.70659   0.21735   0.00000  Uiso   1.00
Zn1195 Zn    0.50000   0.79340   0.78265   0.00000  Uiso   1.00
Zn1196 Zn    0.79341   0.50000   0.21735   0.00000  Uiso   1.00
Zn1197 Zn    0.70660   0.50000   0.78265   0.00000  Uiso   1.00
Zn1198 Zn    0.50000   0.79340   0.21735   0.00000  Uiso   1.00
Zn1199 Zn    0.50000   0.70659   0.78265   0.00000  Uiso   1.00
Zn1200 Zn    0.95660   0.75000   0.71735   0.00000  Uiso   1.00
loop_
_geom_bond_atom_site_label_1
_geom_bond_atom_site_label_2
_geom_bond_distance
_geom_bond_site_symmetry_2
_ccdc_geom_bond_type
C1     I177    2.158   .     S
C1     C4      1.412   .     A
C1     C346    1.403   1_455 S
C2     C52     1.403   .     A
C2     C14     1.412   .     A
C2     I187    2.158   .     S
C3     C115    1.412   .     A
C3     C58     1.411   .     A
C3     C638    1.422   .     S
C4     C59     1.411   .     A
C4     C334    1.422   1_455 S
C5     C49     1.412   .     A
C5     C61     1.411   .     A
C5     C336    1.422   .     S
C6     C62     1.410   .     A
C6     C60     1.410   .     A
C6     C37     1.422   .     A
C7     C63     1.410   .     A
C7     C71     1.410   .     A
C7     C38     1.422   .     A
C8     C35     1.410   .     A
C8     C64     1.410   .     A
C8     C639    1.422   .     S
C9     C65     1.410   .     A
C9     C43     1.410   .     A
C9     C640    1.422   1_545 S
C10    C41     1.422   .     A
C10    C66     1.411   .     A
C10    C44     1.412   .     A
C11    C42     1.422   .     A
C11    C45     1.412   .     A
C11    C67     1.411   .     A
C12    C126    1.412   .     A
C12    C68     1.411   .     A
C12    C39     1.422   .     A
C13    I188    2.158   .     S
C13    C15     1.410   .     A
C13    C353    1.402   .     S
C14    C69     1.411   .     A
C14    C40     1.422   .     A
C15    C70     1.410   .     A
C15    C341    1.422   .     S
C16    C72     1.410   .     A
C16    C24     1.410   .     A
C16    C342    1.422   1_455 S
C17    C118    1.416   .     A
C17    C88     1.450   .     S
C17    C116    1.416   .     A
C18    C89     1.450   .     S
C18    C117    1.416   .     A
C18    C114    1.416   .     A
C19    C113    1.416   .     A
C19    C120    1.416   .     A
C19    C81     1.452   .     S
C20    C112    1.416   .     A
C20    C119    1.416   .     A
C20    C83     1.452   .     S
C21    C122    1.416   .     A
C21    C111    1.416   .     A
C21    C84     1.450   .     S
C22    C85     1.450   .     S
C22    C110    1.416   .     A
C22    C121    1.416   .     A
C23    C86     1.454   .     S
C23    C109    1.417   .     A
C23    C124    1.417   .     A
C24    I189    2.158   .     S
C24    C354    1.401   1_455 S
C25    C123    1.417   .     A
C25    C87     1.454   .     S
C25    C108    1.417   .     A
C26    C127    1.414   .     A
C26    C97     1.453   .     S
C26    C107    1.405   .     A
C27    C106    1.414   .     A
C27    C125    1.405   .     A
C27    C98     1.453   .     S
C28    C105    1.416   .     A
C28    C90     1.450   .     S
C28    C129    1.416   .     A
C29    C91     1.450   .     S
C29    C103    1.416   .     A
C29    C128    1.416   .     A
C30    C131    1.416   .     A
C30    C102    1.416   .     A
C30    C92     1.452   .     S
C31    C101    1.416   .     A
C31    C130    1.416   .     A
C31    C94     1.452   .     S
C32    C133    1.416   .     A
C32    C100    1.416   .     A
C32    C95     1.450   .     S
C33    C99     1.416   .     A
C33    C132    1.416   .     A
C33    C96     1.450   .     S
C34    C134    1.422   .     A
C34    C304    1.422   .     S
C34    C336    1.419   .     S
C35    I190    2.158   .     S
C35    C651    1.402   .     S
C36    C135    1.422   .     A
C36    C334    1.419   1_455 S
C36    C305    1.422   1_455 S
C37    C638    1.419   .     S
C37    C736    1.422   .     S
C38    C637    1.419   1_545 S
C38    C603    1.422   1_545 S
C39    C608    1.422   1_545 S
C39    C640    1.419   1_546 S
C40    C609    1.422   .     S
C40    C639    1.419   1_554 S
C41    C315    1.422   1_455 S
C41    C342    1.419   1_456 S
C42    C316    1.422   .     S
C42    C341    1.419   1_554 S
C43    I192    2.158   .     S
C43    C652    1.401   1_545 S
C44    C53     1.403   .     A
C44    I193    2.158   .     S
C45    I194    2.158   .     S
C45    C54     1.403   .     A
C46    C75     1.452   .     S
C46    C82     1.401   .     A
C46    C301    1.403   .     S
C47    C76     1.453   .     S
C47    C93     1.402   .     A
C47    C349    1.403   1_455 S
C48    C73     1.452   .     S
C48    C60     1.401   .     A
C48    C704    1.403   .     S
C49    I178    2.158   .     S
C49    C347    1.403   .     S
C50    C74     1.453   .     S
C50    C71     1.402   .     A
C50    C715    1.403   1_545 S
C51    C126    1.403   .     A
C51    C79     1.453   .     S
C51    C635    1.402   1_545 S
C52    C80     1.452   .     S
C52    C643    1.401   .     S
C53    C77     1.453   .     S
C53    C313    1.402   1_455 S
C54    C78     1.452   .     S
C54    C324    1.401   .     S
C55    C61     1.390   .     A
C55    C134    1.410   .     A
C55    I169    2.141   .     S
C56    C59     1.390   .     A
C56    I180    2.141   .     S
C56    C135    1.410   .     A
C57    C63     1.390   .     A
C57    C136    1.411   .     A
C57    I791    2.140   1_545 S
C58    C62     1.390   .     A
C58    I795    2.141   .     S
C59    I496    2.141   1_455 S
C60    I179    2.158   .     S
C61    I497    2.141   .     S
C62    I198    2.141   .     S
C63    I199    2.141   .     S
C64    I200    2.141   .     S
C64    C69     1.390   1_556 S
C65    I170    2.141   .     S
C65    C68     1.390   1_554 S
C66    I171    2.141   .     S
C66    C72     1.390   1_556 S
C67    I172    2.141   .     S
C67    C70     1.390   1_554 S
C68    I173    2.141   .     S
C68    C65     1.390   1_556 S
C69    I174    2.140   .     S
C69    C64     1.390   1_554 S
C70    I175    2.141   .     S
C70    C67     1.390   1_556 S
C71    I181    2.158   .     S
C72    I176    2.141   .     S
C72    C66     1.390   1_554 S
C73    O245    1.275   .     A
C73    O884    1.277   .     S
C74    O256    1.275   .     A
C74    O802    1.277   1_545 S
C75    O203    1.275   .     A
C75    O567    1.277   .     S
C76    O204    1.275   .     A
C76    O578    1.276   1_455 S
C77    O205    1.275   .     A
C77    O209    1.277   .     A
C78    O510    1.277   .     A
C78    O506    1.275   .     S
C79    O207    1.277   .     S
C79    O211    1.275   .     S
C80    O808    1.277   .     A
C80    O813    1.275   .     A
C81    O242    1.278   .     A
C81    O214    1.278   .     A
C82    C134    1.410   .     A
C82    I182    2.158   .     S
C83    O215    1.278   .     A
C83    O243    1.278   .     A
C84    O240    1.277   .     A
C84    O216    1.277   .     A
C85    O241    1.277   .     A
C85    O217    1.277   .     A
C86    O247    1.276   .     A
C86    O218    1.277   .     A
C87    O248    1.277   .     A
C87    O219    1.276   .     A
C88    O220    1.277   .     A
C88    O244    1.277   .     A
C89    O221    1.277   .     A
C89    O246    1.277   .     A
C90    O233    1.277   .     A
C90    O222    1.277   .     A
C91    O224    1.277   .     A
C91    O235    1.277   .     A
C92    O231    1.278   .     A
C92    O225    1.278   .     A
C93    I183    2.158   .     S
C93    C135    1.410   .     A
C94    O232    1.278   .     A
C94    O226    1.278   .     A
C95    O227    1.277   .     A
C95    O238    1.277   .     A
C96    O239    1.277   .     A
C96    O228    1.277   .     A
C97    O236    1.276   .     A
C97    O229    1.278   .     A
C98    O237    1.278   .     A
C98    O230    1.276   .     A
C99    C116    1.392   .     A
C99    O249    1.385   .     S
C100   C114    1.392   .     A
C100   O250    1.385   .     S
C101   C113    1.392   .     A
C101   O251    1.385   .     S
C102   C112    1.392   .     A
C102   O252    1.385   .     S
C103   C111    1.392   .     A
C103   O253    1.385   .     S
C104   C136    1.412   .     A
C104   I184    2.158   .     S
C104   C648    1.403   1_545 S
C105   C110    1.392   .     A
C105   O254    1.385   .     S
C106   C109    1.391   .     A
C106   O255    1.384   .     S
C107   C108    1.405   .     A
C107   O257    1.386   .     S
C108   O258    1.385   .     S
C109   O259    1.384   .     S
C110   O260    1.385   .     S
C111   O261    1.385   .     S
C112   O262    1.385   .     S
C113   O263    1.385   .     S
C114   O264    1.385   .     S
C115   I185    2.158   .     S
C115   C650    1.403   .     S
C116   O265    1.385   .     S
C117   C133    1.392   .     A
C117   O266    1.385   .     S
C118   C132    1.392   .     A
C118   O268    1.385   .     S
C119   C131    1.392   .     A
C119   O269    1.385   .     S
C120   O270    1.385   .     S
C120   C130    1.392   .     A
C121   O271    1.385   .     S
C121   C129    1.392   .     A
C122   O272    1.385   .     S
C122   C128    1.392   .     A
C123   C127    1.391   .     A
C123   O273    1.384   .     S
C124   O274    1.385   .     S
C124   C125    1.405   .     A
C125   O275    1.386   .     S
C126   I186    2.158   .     S
C127   O276    1.384   .     S
C128   O277    1.385   .     S
C129   O279    1.385   .     S
C130   O280    1.385   .     S
C131   O281    1.385   .     S
C132   O282    1.385   .     S
C133   O283    1.385   .     S
C136   C637    1.422   1_545 S
H137   O249    0.988   .     S
H138   O259    0.989   .     S
H139   O260    0.988   .     S
H140   O261    0.988   .     S
H141   O262    0.988   .     S
H142   O263    0.988   .     S
H143   O264    0.988   .     S
H144   O265    0.988   .     S
H145   O266    0.988   .     S
H146   O268    0.988   .     S
H147   O269    0.988   .     S
H148   O250    0.988   .     S
H149   O270    0.988   .     S
H150   O271    0.988   .     S
H151   O272    0.988   .     S
H152   O273    0.989   .     S
H153   O274    0.989   .     S
H154   O275    0.989   .     S
H155   O276    0.989   .     S
H156   O277    0.988   .     S
H157   O279    0.988   .     S
H158   O280    0.988   .     S
H159   O251    0.988   .     S
H160   O281    0.988   .     S
H161   O282    0.989   .     S
H162   O283    0.988   .     S
H163   O252    0.988   .     S
H164   O253    0.988   .     S
H165   O254    0.988   .     S
H166   O255    0.989   .     S
H167   O257    0.989   .     S
H168   O258    0.989   .     S
I191   C657    2.140   .     S
I195   C658    2.141   1_545 S
I196   C359    2.141   .     S
I197   C361    2.141   1_455 S
O201   Zn288   1.946   .     S
O201   Zn285   1.946   .     S
O201   Zn892   1.944   1_545 S
O201   Zn296   1.944   .     S
O202   Zn287   1.945   .     S
O202   C674    1.277   .     S
O203   Zn290   1.946   .     S
O204   Zn289   1.946   .     S
O205   Zn299   1.946   .     S
O206   Zn298   1.946   .     S
O206   C378    1.275   1_455 S
O207   Zn293   1.945   .     S
O208   C680    1.277   1_545 A
O208   Zn285   1.945   .     S
O209   Zn295   1.945   .     S
O210   C378    1.277   1_455 A
O210   Zn294   1.945   .     S
O211   Zn297   1.946   .     S
O212   Zn887   1.946   1_545 S
O212   Zn291   1.944   .     S
O212   Zn293   1.946   .     S
O212   Zn297   1.944   .     S
O213   C680    1.275   1_545 A
O213   Zn296   1.946   .     S
O214   Zn288   1.934   .     S
O215   Zn287   1.934   .     S
O216   Zn290   1.932   .     S
O217   Zn289   1.932   .     S
O218   Zn292   1.934   .     S
O219   Zn291   1.934   .     S
O220   Zn286   1.932   .     S
O221   Zn300   1.932   .     S
O222   Zn287   1.932   .     S
O223   Zn298   1.944   .     S
O223   Zn286   1.946   .     S
O223   Zn294   1.946   .     S
O223   Zn590   1.944   1_455 S
O224   Zn288   1.932   .     S
O225   Zn300   1.934   .     S
O226   Zn286   1.934   .     S
O227   Zn291   1.932   .     S
O228   Zn292   1.932   .     S
O229   Zn289   1.934   .     S
O230   Zn290   1.934   .     S
O231   Zn595   1.934   .     S
O232   Zn294   1.934   .     S
O233   Zn897   1.932   .     S
O234   Zn295   1.946   .     S
O234   Zn299   1.944   .     S
O234   Zn289   1.944   .     S
O234   Zn600   1.946   1_455 S
O235   Zn296   1.932   .     S
O236   Zn299   1.934   .     S
O237   Zn598   1.934   .     S
O238   Zn293   1.932   .     S
O239   Zn885   1.932   .     S
O240   Zn594   1.932   .     S
O241   Zn295   1.932   .     S
O242   Zn285   1.934   .     S
O243   Zn893   1.934   .     S
O244   Zn298   1.932   .     S
O245   Zn292   1.946   .     S
O246   Zn599   1.932   .     S
O247   Zn896   1.934   .     S
O248   Zn297   1.934   .     S
O256   Zn291   1.946   .     S
O267   Zn286   1.945   .     S
O267   C375    1.277   1_455 S
O278   Zn300   1.945   .     S
O278   C376    1.276   .     S
O284   Zn288   1.945   .     S
O284   C673    1.277   1_545 S
Zn285  O839    1.932   1_545 S
Zn287  O812    1.946   .     S
Zn290  O523    1.944   .     S
Zn292  O801    1.944   .     S
Zn293  O843    1.934   1_545 S
Zn294  O540    1.932   1_455 S
Zn295  O531    1.934   1_455 S
Zn296  O847    1.934   1_545 S
Zn297  O833    1.932   1_545 S
Zn298  O537    1.934   1_455 S
Zn299  O546    1.932   1_455 S
Zn300  O534    1.946   .     S
C301   I477    2.158   .     S
C301   C304    1.412   .     A
C302   C352    1.403   .     A
C302   C314    1.412   .     A
C302   I487    2.158   .     S
C303   C415    1.412   .     A
C303   C358    1.411   .     A
C303   C938    1.422   .     S
C304   C359    1.411   .     A
C305   C349    1.412   .     A
C305   C361    1.411   .     A
C305   C36     1.422   1_655 S
C306   C362    1.410   .     A
C306   C360    1.410   .     A
C306   C337    1.422   .     A
C307   C363    1.410   .     A
C307   C371    1.410   .     A
C307   C338    1.422   .     A
C308   C335    1.410   .     A
C308   C364    1.410   .     A
C308   C939    1.422   .     S
C309   C365    1.410   .     A
C309   C343    1.410   .     A
C309   C940    1.422   1_545 S
C310   C341    1.422   .     A
C310   C366    1.411   .     A
C310   C344    1.412   .     A
C311   C342    1.422   .     A
C311   C345    1.412   .     A
C311   C367    1.411   .     A
C312   C426    1.412   .     A
C312   C368    1.411   .     A
C312   C339    1.422   .     A
C313   I488    2.158   .     S
C313   C315    1.410   .     A
C313   C53     1.402   1_655 S
C314   C369    1.411   .     A
C314   C340    1.422   .     A
C315   C370    1.410   .     A
C315   C41     1.422   1_655 S
C316   C372    1.410   .     A
C316   C324    1.410   .     A
C317   C418    1.416   .     A
C317   C388    1.450   .     S
C317   C416    1.416   .     A
C318   C389    1.450   .     S
C318   C417    1.416   .     A
C318   C414    1.416   .     A
C319   C413    1.416   .     A
C319   C420    1.416   .     A
C319   C381    1.452   .     S
C320   C412    1.416   .     A
C320   C419    1.416   .     A
C320   C383    1.452   .     S
C321   C422    1.416   .     A
C321   C411    1.416   .     A
C321   C384    1.450   .     S
C322   C385    1.450   .     S
C322   C410    1.416   .     A
C322   C421    1.416   .     A
C323   C386    1.454   .     S
C323   C409    1.417   .     A
C323   C424    1.417   .     A
C324   I489    2.158   .     S
C325   C423    1.417   .     A
C325   C387    1.454   .     S
C325   C408    1.417   .     A
C326   C427    1.414   .     A
C326   C397    1.453   .     S
C326   C407    1.405   .     A
C327   C406    1.414   .     A
C327   C425    1.405   .     A
C327   C398    1.453   .     S
C328   C405    1.416   .     A
C328   C390    1.450   .     S
C328   C429    1.416   .     A
C329   C391    1.450   .     S
C329   C403    1.416   .     A
C329   C428    1.416   .     A
C330   C431    1.416   .     A
C330   C402    1.416   .     A
C330   C392    1.452   .     S
C331   C401    1.416   .     A
C331   C430    1.416   .     A
C331   C394    1.452   .     S
C332   C433    1.416   .     A
C332   C400    1.416   .     A
C332   C395    1.450   .     S
C333   C399    1.416   .     A
C333   C432    1.416   .     A
C333   C396    1.450   .     S
C334   C434    1.422   .     A
C334   C4      1.422   1_655 S
C334   C36     1.419   1_655 S
C335   I490    2.158   .     S
C335   C951    1.402   .     S
C336   C435    1.422   .     A
C337   C938    1.419   .     S
C337   C1036   1.422   .     S
C338   C937    1.419   1_545 S
C338   C903    1.422   1_545 S
C339   C908    1.422   1_545 S
C339   C940    1.419   1_546 S
C340   C909    1.422   .     S
C340   C939    1.419   1_554 S
C341   C42     1.419   1_556 S
C342   C16     1.422   1_655 S
C342   C41     1.419   1_654 S
C343   I492    2.158   .     S
C343   C952    1.401   1_545 S
C344   C353    1.403   .     A
C344   I493    2.158   .     S
C345   I494    2.158   .     S
C345   C354    1.403   .     A
C346   C375    1.452   .     S
C346   C382    1.401   .     A
C346   C1      1.403   1_655 S
C347   C376    1.453   .     S
C347   C393    1.402   .     A
C348   C373    1.452   .     S
C348   C360    1.401   .     A
C348   C1004   1.403   .     S
C349   I478    2.158   .     S
C349   C47     1.403   1_655 S
C350   C374    1.453   .     S
C350   C371    1.402   .     A
C350   C1015   1.403   1_545 S
C351   C426    1.403   .     A
C351   C379    1.453   .     S
C351   C935    1.402   1_545 S
C352   C380    1.452   .     S
C352   C943    1.401   .     S
C353   C377    1.453   .     S
C354   C378    1.452   .     S
C354   C24     1.401   1_655 S
C355   C361    1.390   .     A
C355   C434    1.410   .     A
C355   I469    2.141   .     S
C356   C359    1.390   .     A
C356   I480    2.141   .     S
C356   C435    1.410   .     A
C357   C363    1.390   .     A
C357   C436    1.411   .     A
C357   I1091   2.140   1_545 S
C358   C362    1.390   .     A
C358   I1095   2.141   .     S
C360   I479    2.158   .     S
C361   I197    2.141   1_655 S
C362   I498    2.141   .     S
C363   I499    2.141   .     S
C364   I500    2.141   .     S
C364   C369    1.390   1_556 S
C365   I470    2.141   .     S
C365   C368    1.390   1_554 S
C366   I471    2.141   .     S
C366   C372    1.390   1_556 S
C367   I472    2.141   .     S
C367   C370    1.390   1_554 S
C368   I473    2.141   .     S
C368   C365    1.390   1_556 S
C369   I474    2.140   .     S
C369   C364    1.390   1_554 S
C370   I475    2.141   .     S
C370   C367    1.390   1_556 S
C371   I481    2.158   .     S
C372   I476    2.141   .     S
C372   C366    1.390   1_554 S
C373   O545    1.275   .     A
C373   O1184   1.277   .     S
C374   O556    1.275   .     A
C374   O1102   1.277   1_545 S
C375   O503    1.275   .     A
C375   O267    1.277   1_655 S
C376   O504    1.275   .     A
C377   O505    1.275   .     A
C377   O509    1.277   .     A
C378   O210    1.277   1_655 A
C378   O206    1.275   1_655 S
C379   O507    1.277   .     S
C379   O511    1.275   .     S
C380   O1108   1.277   .     A
C380   O1113   1.275   .     A
C381   O542    1.278   .     A
C381   O514    1.278   .     A
C382   C434    1.410   .     A
C382   I482    2.158   .     S
C383   O515    1.278   .     A
C383   O543    1.278   .     A
C384   O540    1.277   .     A
C384   O516    1.277   .     A
C385   O541    1.277   .     A
C385   O517    1.277   .     A
C386   O547    1.276   .     A
C386   O518    1.277   .     A
C387   O548    1.277   .     A
C387   O519    1.276   .     A
C388   O520    1.277   .     A
C388   O544    1.277   .     A
C389   O521    1.277   .     A
C389   O546    1.277   .     A
C390   O533    1.277   .     A
C390   O522    1.277   .     A
C391   O524    1.277   .     A
C391   O535    1.277   .     A
C392   O531    1.278   .     A
C392   O525    1.278   .     A
C393   I483    2.158   .     S
C393   C435    1.410   .     A
C394   O532    1.278   .     A
C394   O526    1.278   .     A
C395   O527    1.277   .     A
C395   O538    1.277   .     A
C396   O539    1.277   .     A
C396   O528    1.277   .     A
C397   O536    1.276   .     A
C397   O529    1.278   .     A
C398   O537    1.278   .     A
C398   O530    1.276   .     A
C399   C416    1.392   .     A
C399   O549    1.385   .     S
C400   C414    1.392   .     A
C400   O550    1.385   .     S
C401   C413    1.392   .     A
C401   O551    1.385   .     S
C402   C412    1.392   .     A
C402   O552    1.385   .     S
C403   C411    1.392   .     A
C403   O553    1.385   .     S
C404   C436    1.412   .     A
C404   I484    2.158   .     S
C404   C948    1.403   1_545 S
C405   C410    1.392   .     A
C405   O554    1.385   .     S
C406   C409    1.391   .     A
C406   O555    1.384   .     S
C407   C408    1.405   .     A
C407   O557    1.386   .     S
C408   O558    1.385   .     S
C409   O559    1.384   .     S
C410   O560    1.385   .     S
C411   O561    1.385   .     S
C412   O562    1.385   .     S
C413   O563    1.385   .     S
C414   O564    1.385   .     S
C415   I485    2.158   .     S
C415   C950    1.403   .     S
C416   O565    1.385   .     S
C417   C433    1.392   .     A
C417   O566    1.385   .     S
C418   C432    1.392   .     A
C418   O568    1.385   .     S
C419   C431    1.392   .     A
C419   O569    1.385   .     S
C420   O570    1.385   .     S
C420   C430    1.392   .     A
C421   O571    1.385   .     S
C421   C429    1.392   .     A
C422   O572    1.385   .     S
C422   C428    1.392   .     A
C423   C427    1.391   .     A
C423   O573    1.384   .     S
C424   O574    1.385   .     S
C424   C425    1.405   .     A
C425   O575    1.386   .     S
C426   I486    2.158   .     S
C427   O576    1.384   .     S
C428   O577    1.385   .     S
C429   O579    1.385   .     S
C430   O580    1.385   .     S
C431   O581    1.385   .     S
C432   O582    1.385   .     S
C433   O583    1.385   .     S
C436   C937    1.422   1_545 S
H437   O549    0.988   .     S
H438   O559    0.989   .     S
H439   O560    0.988   .     S
H440   O561    0.988   .     S
H441   O562    0.988   .     S
H442   O563    0.988   .     S
H443   O564    0.988   .     S
H444   O565    0.988   .     S
H445   O566    0.988   .     S
H446   O568    0.988   .     S
H447   O569    0.988   .     S
H448   O550    0.988   .     S
H449   O570    0.988   .     S
H450   O571    0.988   .     S
H451   O572    0.988   .     S
H452   O573    0.989   .     S
H453   O574    0.989   .     S
H454   O575    0.989   .     S
H455   O576    0.989   .     S
H456   O577    0.988   .     S
H457   O579    0.988   .     S
H458   O580    0.988   .     S
H459   O551    0.988   .     S
H460   O581    0.988   .     S
H461   O582    0.989   .     S
H462   O583    0.988   .     S
H463   O552    0.988   .     S
H464   O553    0.988   .     S
H465   O554    0.988   .     S
H466   O555    0.989   .     S
H467   O557    0.989   .     S
H468   O558    0.989   .     S
I491   C957    2.140   .     S
I495   C958    2.141   1_545 S
I496   C59     2.141   1_655 S
O501   Zn588   1.946   .     S
O501   Zn585   1.946   .     S
O501   Zn1192  1.944   1_545 S
O501   Zn596   1.944   .     S
O502   Zn587   1.945   .     S
O502   C974    1.277   .     S
O503   Zn590   1.946   .     S
O504   Zn589   1.946   .     S
O505   Zn599   1.946   .     S
O506   Zn598   1.946   .     S
O507   Zn593   1.945   .     S
O508   C980    1.277   1_545 A
O508   Zn585   1.945   .     S
O509   Zn595   1.945   .     S
O510   Zn594   1.945   .     S
O511   Zn597   1.946   .     S
O512   Zn1187  1.946   1_545 S
O512   Zn591   1.944   .     S
O512   Zn593   1.946   .     S
O512   Zn597   1.944   .     S
O513   C980    1.275   1_545 A
O513   Zn596   1.946   .     S
O514   Zn588   1.934   .     S
O515   Zn587   1.934   .     S
O516   Zn590   1.932   .     S
O517   Zn589   1.932   .     S
O518   Zn592   1.934   .     S
O519   Zn591   1.934   .     S
O520   Zn586   1.932   .     S
O521   Zn600   1.932   .     S
O522   Zn587   1.932   .     S
O523   Zn598   1.944   .     S
O523   Zn586   1.946   .     S
O523   Zn594   1.946   .     S
O524   Zn588   1.932   .     S
O525   Zn600   1.934   .     S
O526   Zn586   1.934   .     S
O527   Zn591   1.932   .     S
O528   Zn592   1.932   .     S
O529   Zn589   1.934   .     S
O530   Zn590   1.934   .     S
O531   Zn295   1.934   1_655 S
O532   Zn594   1.934   .     S
O533   Zn1197  1.932   .     S
O534   Zn595   1.946   .     S
O534   Zn599   1.944   .     S
O534   Zn589   1.944   .     S
O535   Zn596   1.932   .     S
O536   Zn599   1.934   .     S
O537   Zn298   1.934   1_655 S
O538   Zn593   1.932   .     S
O539   Zn1185  1.932   .     S
O540   Zn294   1.932   1_655 S
O541   Zn595   1.932   .     S
O542   Zn585   1.934   .     S
O543   Zn1193  1.934   .     S
O544   Zn598   1.932   .     S
O545   Zn592   1.946   .     S
O546   Zn299   1.932   1_655 S
O547   Zn1196  1.934   .     S
O548   Zn597   1.934   .     S
O556   Zn591   1.946   .     S
O567   Zn586   1.945   .     S
O578   Zn600   1.945   .     S
O578   C76     1.276   1_655 S
O584   Zn588   1.945   .     S
O584   C973    1.277   1_545 S
Zn585  O1139   1.932   1_545 S
Zn587  O1112   1.946   .     S
Zn590  O223    1.944   1_655 S
Zn592  O1101   1.944   .     S
Zn593  O1143   1.934   1_545 S
Zn596  O1147   1.934   1_545 S
Zn597  O1133   1.932   1_545 S
Zn600  O234    1.946   1_655 S
C601   I777    2.158   .     S
C601   C604    1.412   .     A
C601   C946    1.403   1_455 S
C602   C652    1.403   .     A
C602   C614    1.412   .     A
C602   I787    2.158   .     S
C603   C715    1.412   .     A
C603   C658    1.411   .     A
C603   C38     1.422   1_565 S
C604   C659    1.411   .     A
C604   C934    1.422   1_455 S
C605   C649    1.412   .     A
C605   C661    1.411   .     A
C605   C936    1.422   .     S
C606   C662    1.410   .     A
C606   C660    1.410   .     A
C606   C637    1.422   .     A
C607   C663    1.410   .     A
C607   C671    1.410   .     A
C607   C638    1.422   .     A
C608   C635    1.410   .     A
C608   C664    1.410   .     A
C608   C39     1.422   1_565 S
C609   C665    1.410   .     A
C609   C643    1.410   .     A
C610   C641    1.422   .     A
C610   C666    1.411   .     A
C610   C644    1.412   .     A
C611   C642    1.422   .     A
C611   C645    1.412   .     A
C611   C667    1.411   .     A
C612   C726    1.412   .     A
C612   C668    1.411   .     A
C612   C639    1.422   .     A
C613   I788    2.158   .     S
C613   C615    1.410   .     A
C613   C953    1.402   .     S
C614   C669    1.411   .     A
C614   C640    1.422   .     A
C615   C670    1.410   .     A
C615   C941    1.422   .     S
C616   C672    1.410   .     A
C616   C624    1.410   .     A
C616   C942    1.422   1_455 S
C617   C718    1.416   .     A
C617   C688    1.450   .     S
C617   C716    1.416   .     A
C618   C689    1.450   .     S
C618   C717    1.416   .     A
C618   C714    1.416   .     A
C619   C713    1.416   .     A
C619   C720    1.416   .     A
C619   C681    1.452   .     S
C620   C712    1.416   .     A
C620   C719    1.416   .     A
C620   C683    1.452   .     S
C621   C722    1.416   .     A
C621   C711    1.416   .     A
C621   C684    1.450   .     S
C622   C685    1.450   .     S
C622   C710    1.416   .     A
C622   C721    1.416   .     A
C623   C686    1.454   .     S
C623   C709    1.417   .     A
C623   C724    1.417   .     A
C624   I789    2.158   .     S
C624   C954    1.401   1_455 S
C625   C723    1.417   .     A
C625   C687    1.454   .     S
C625   C708    1.417   .     A
C626   C727    1.414   .     A
C626   C697    1.453   .     S
C626   C707    1.405   .     A
C627   C706    1.414   .     A
C627   C725    1.405   .     A
C627   C698    1.453   .     S
C628   C705    1.416   .     A
C628   C690    1.450   .     S
C628   C729    1.416   .     A
C629   C691    1.450   .     S
C629   C703    1.416   .     A
C629   C728    1.416   .     A
C630   C731    1.416   .     A
C630   C702    1.416   .     A
C630   C692    1.452   .     S
C631   C701    1.416   .     A
C631   C730    1.416   .     A
C631   C694    1.452   .     S
C632   C733    1.416   .     A
C632   C700    1.416   .     A
C632   C695    1.450   .     S
C633   C699    1.416   .     A
C633   C732    1.416   .     A
C633   C696    1.450   .     S
C634   C734    1.422   .     A
C634   C904    1.422   .     S
C634   C936    1.419   .     S
C635   I790    2.158   .     S
C635   C51     1.402   1_565 S
C636   C735    1.422   .     A
C636   C934    1.419   1_455 S
C636   C905    1.422   1_455 S
C637   C38     1.419   1_565 S
C637   C136    1.422   1_565 S
C639   C40     1.419   1_556 S
C640   C9      1.422   1_565 S
C640   C39     1.419   1_564 S
C641   C915    1.422   1_455 S
C641   C942    1.419   1_456 S
C642   C916    1.422   .     S
C642   C941    1.419   1_554 S
C643   I792    2.158   .     S
C644   C653    1.403   .     A
C644   I793    2.158   .     S
C645   I794    2.158   .     S
C645   C654    1.403   .     A
C646   C675    1.452   .     S
C646   C682    1.401   .     A
C646   C901    1.403   .     S
C647   C676    1.453   .     S
C647   C693    1.402   .     A
C647   C949    1.403   1_455 S
C648   C673    1.452   .     S
C648   C660    1.401   .     A
C648   C104    1.403   1_565 S
C649   I778    2.158   .     S
C649   C947    1.403   .     S
C650   C674    1.453   .     S
C650   C671    1.402   .     A
C651   C726    1.403   .     A
C651   C679    1.453   .     S
C652   C680    1.452   .     S
C652   C43     1.401   1_565 S
C653   C677    1.453   .     S
C653   C913    1.402   1_455 S
C654   C678    1.452   .     S
C654   C924    1.401   .     S
C655   C661    1.390   .     A
C655   C734    1.410   .     A
C655   I769    2.141   .     S
C656   C659    1.390   .     A
C656   I780    2.141   .     S
C656   C735    1.410   .     A
C657   C663    1.390   .     A
C657   C736    1.411   .     A
C658   C662    1.390   .     A
C658   I195    2.141   1_565 S
C659   I1096   2.141   1_455 S
C660   I779    2.158   .     S
C661   I1097   2.141   .     S
C662   I798    2.141   .     S
C663   I799    2.141   .     S
C664   I800    2.141   .     S
C664   C669    1.390   1_556 S
C665   I770    2.141   .     S
C665   C668    1.390   1_554 S
C666   I771    2.141   .     S
C666   C672    1.390   1_556 S
C667   I772    2.141   .     S
C667   C670    1.390   1_554 S
C668   I773    2.141   .     S
C668   C665    1.390   1_556 S
C669   I774    2.140   .     S
C669   C664    1.390   1_554 S
C670   I775    2.141   .     S
C670   C667    1.390   1_556 S
C671   I781    2.158   .     S
C672   I776    2.141   .     S
C672   C666    1.390   1_554 S
C673   O845    1.275   .     A
C673   O284    1.277   1_565 S
C674   O856    1.275   .     A
C675   O803    1.275   .     A
C675   O1167   1.277   .     S
C676   O804    1.275   .     A
C676   O1178   1.276   1_455 S
C677   O805    1.275   .     A
C677   O809    1.277   .     A
C678   O1110   1.277   .     A
C678   O1106   1.275   .     S
C679   O807    1.277   .     S
C679   O811    1.275   .     S
C680   O208    1.277   1_565 A
C680   O213    1.275   1_565 A
C681   O842    1.278   .     A
C681   O814    1.278   .     A
C682   C734    1.410   .     A
C682   I782    2.158   .     S
C683   O815    1.278   .     A
C683   O843    1.278   .     A
C684   O840    1.277   .     A
C684   O816    1.277   .     A
C685   O841    1.277   .     A
C685   O817    1.277   .     A
C686   O847    1.276   .     A
C686   O818    1.277   .     A
C687   O848    1.277   .     A
C687   O819    1.276   .     A
C688   O820    1.277   .     A
C688   O844    1.277   .     A
C689   O821    1.277   .     A
C689   O846    1.277   .     A
C690   O833    1.277   .     A
C690   O822    1.277   .     A
C691   O824    1.277   .     A
C691   O835    1.277   .     A
C692   O831    1.278   .     A
C692   O825    1.278   .     A
C693   I783    2.158   .     S
C693   C735    1.410   .     A
C694   O832    1.278   .     A
C694   O826    1.278   .     A
C695   O827    1.277   .     A
C695   O838    1.277   .     A
C696   O839    1.277   .     A
C696   O828    1.277   .     A
C697   O836    1.276   .     A
C697   O829    1.278   .     A
C698   O837    1.278   .     A
C698   O830    1.276   .     A
C699   C716    1.392   .     A
C699   O849    1.385   .     S
C700   C714    1.392   .     A
C700   O850    1.385   .     S
C701   C713    1.392   .     A
C701   O851    1.385   .     S
C702   C712    1.392   .     A
C702   O852    1.385   .     S
C703   C711    1.392   .     A
C703   O853    1.385   .     S
C704   C736    1.412   .     A
C704   I784    2.158   .     S
C705   C710    1.392   .     A
C705   O854    1.385   .     S
C706   C709    1.391   .     A
C706   O855    1.384   .     S
C707   C708    1.405   .     A
C707   O857    1.386   .     S
C708   O858    1.385   .     S
C709   O859    1.384   .     S
C710   O860    1.385   .     S
C711   O861    1.385   .     S
C712   O862    1.385   .     S
C713   O863    1.385   .     S
C714   O864    1.385   .     S
C715   I785    2.158   .     S
C715   C50     1.403   1_565 S
C716   O865    1.385   .     S
C717   C733    1.392   .     A
C717   O866    1.385   .     S
C718   C732    1.392   .     A
C718   O868    1.385   .     S
C719   C731    1.392   .     A
C719   O869    1.385   .     S
C720   O870    1.385   .     S
C720   C730    1.392   .     A
C721   O871    1.385   .     S
C721   C729    1.392   .     A
C722   O872    1.385   .     S
C722   C728    1.392   .     A
C723   C727    1.391   .     A
C723   O873    1.384   .     S
C724   O874    1.385   .     S
C724   C725    1.405   .     A
C725   O875    1.386   .     S
C726   I786    2.158   .     S
C727   O876    1.384   .     S
C728   O877    1.385   .     S
C729   O879    1.385   .     S
C730   O880    1.385   .     S
C731   O881    1.385   .     S
C732   O882    1.385   .     S
C733   O883    1.385   .     S
H737   O849    0.988   .     S
H738   O859    0.989   .     S
H739   O860    0.988   .     S
H740   O861    0.988   .     S
H741   O862    0.988   .     S
H742   O863    0.988   .     S
H743   O864    0.988   .     S
H744   O865    0.988   .     S
H745   O866    0.988   .     S
H746   O868    0.988   .     S
H747   O869    0.988   .     S
H748   O850    0.988   .     S
H749   O870    0.988   .     S
H750   O871    0.988   .     S
H751   O872    0.988   .     S
H752   O873    0.989   .     S
H753   O874    0.989   .     S
H754   O875    0.989   .     S
H755   O876    0.989   .     S
H756   O877    0.988   .     S
H757   O879    0.988   .     S
H758   O880    0.988   .     S
H759   O851    0.988   .     S
H760   O881    0.988   .     S
H761   O882    0.989   .     S
H762   O883    0.988   .     S
H763   O852    0.988   .     S
H764   O853    0.988   .     S
H765   O854    0.988   .     S
H766   O855    0.989   .     S
H767   O857    0.989   .     S
H768   O858    0.989   .     S
I791   C57     2.140   1_565 S
I796   C959    2.141   .     S
I797   C961    2.141   1_455 S
O801   Zn888   1.946   .     S
O801   Zn885   1.946   .     S
O801   Zn896   1.944   .     S
O802   Zn887   1.945   .     S
O802   C74     1.277   1_565 S
O803   Zn890   1.946   .     S
O804   Zn889   1.946   .     S
O805   Zn899   1.946   .     S
O806   Zn898   1.946   .     S
O806   C978    1.275   1_455 S
O807   Zn893   1.945   .     S
O808   Zn885   1.945   .     S
O809   Zn895   1.945   .     S
O810   C978    1.277   1_455 A
O810   Zn894   1.945   .     S
O811   Zn897   1.946   .     S
O812   Zn891   1.944   .     S
O812   Zn893   1.946   .     S
O812   Zn897   1.944   .     S
O813   Zn896   1.946   .     S
O814   Zn888   1.934   .     S
O815   Zn887   1.934   .     S
O816   Zn890   1.932   .     S
O817   Zn889   1.932   .     S
O818   Zn892   1.934   .     S
O819   Zn891   1.934   .     S
O820   Zn886   1.932   .     S
O821   Zn900   1.932   .     S
O822   Zn887   1.932   .     S
O823   Zn898   1.944   .     S
O823   Zn886   1.946   .     S
O823   Zn894   1.946   .     S
O823   Zn1190  1.944   1_455 S
O824   Zn888   1.932   .     S
O825   Zn900   1.934   .     S
O826   Zn886   1.934   .     S
O827   Zn891   1.932   .     S
O828   Zn892   1.932   .     S
O829   Zn889   1.934   .     S
O830   Zn890   1.934   .     S
O831   Zn1195  1.934   .     S
O832   Zn894   1.934   .     S
O833   Zn297   1.932   1_565 S
O834   Zn895   1.946   .     S
O834   Zn899   1.944   .     S
O834   Zn889   1.944   .     S
O834   Zn1200  1.946   1_455 S
O835   Zn896   1.932   .     S
O836   Zn899   1.934   .     S
O837   Zn1198  1.934   .     S
O838   Zn893   1.932   .     S
O839   Zn285   1.932   1_565 S
O840   Zn1194  1.932   .     S
O841   Zn895   1.932   .     S
O842   Zn885   1.934   .     S
O843   Zn293   1.934   1_565 S
O844   Zn898   1.932   .     S
O845   Zn892   1.946   .     S
O846   Zn1199  1.932   .     S
O847   Zn296   1.934   1_565 S
O848   Zn897   1.934   .     S
O856   Zn891   1.946   .     S
O867   Zn886   1.945   .     S
O867   C975    1.277   1_455 S
O878   Zn900   1.945   .     S
O878   C976    1.276   .     S
O884   Zn888   1.945   .     S
Zn887  O212    1.946   1_565 S
Zn890  O1123   1.944   .     S
Zn892  O201    1.944   1_565 S
Zn894  O1140   1.932   1_455 S
Zn895  O1131   1.934   1_455 S
Zn898  O1137   1.934   1_455 S
Zn899  O1146   1.932   1_455 S
Zn900  O1134   1.946   .     S
C901   I1077   2.158   .     S
C901   C904    1.412   .     A
C902   C952    1.403   .     A
C902   C914    1.412   .     A
C902   I1087   2.158   .     S
C903   C1015   1.412   .     A
C903   C958    1.411   .     A
C903   C338    1.422   1_565 S
C904   C959    1.411   .     A
C905   C949    1.412   .     A
C905   C961    1.411   .     A
C905   C636    1.422   1_655 S
C906   C962    1.410   .     A
C906   C960    1.410   .     A
C906   C937    1.422   .     A
C907   C963    1.410   .     A
C907   C971    1.410   .     A
C907   C938    1.422   .     A
C908   C935    1.410   .     A
C908   C964    1.410   .     A
C908   C339    1.422   1_565 S
C909   C965    1.410   .     A
C909   C943    1.410   .     A
C910   C941    1.422   .     A
C910   C966    1.411   .     A
C910   C944    1.412   .     A
C911   C942    1.422   .     A
C911   C945    1.412   .     A
C911   C967    1.411   .     A
C912   C1026   1.412   .     A
C912   C968    1.411   .     A
C912   C939    1.422   .     A
C913   I1088   2.158   .     S
C913   C915    1.410   .     A
C913   C653    1.402   1_655 S
C914   C969    1.411   .     A
C914   C940    1.422   .     A
C915   C970    1.410   .     A
C915   C641    1.422   1_655 S
C916   C972    1.410   .     A
C916   C924    1.410   .     A
C917   C1018   1.416   .     A
C917   C988    1.450   .     S
C917   C1016   1.416   .     A
C918   C989    1.450   .     S
C918   C1017   1.416   .     A
C918   C1014   1.416   .     A
C919   C1013   1.416   .     A
C919   C1020   1.416   .     A
C919   C981    1.452   .     S
C920   C1012   1.416   .     A
C920   C1019   1.416   .     A
C920   C983    1.452   .     S
C921   C1022   1.416   .     A
C921   C1011   1.416   .     A
C921   C984    1.450   .     S
C922   C985    1.450   .     S
C922   C1010   1.416   .     A
C922   C1021   1.416   .     A
C923   C986    1.454   .     S
C923   C1009   1.417   .     A
C923   C1024   1.417   .     A
C924   I1089   2.158   .     S
C925   C1023   1.417   .     A
C925   C987    1.454   .     S
C925   C1008   1.417   .     A
C926   C1027   1.414   .     A
C926   C997    1.453   .     S
C926   C1007   1.405   .     A
C927   C1006   1.414   .     A
C927   C1025   1.405   .     A
C927   C998    1.453   .     S
C928   C1005   1.416   .     A
C928   C990    1.450   .     S
C928   C1029   1.416   .     A
C929   C991    1.450   .     S
C929   C1003   1.416   .     A
C929   C1028   1.416   .     A
C930   C1031   1.416   .     A
C930   C1002   1.416   .     A
C930   C992    1.452   .     S
C931   C1001   1.416   .     A
C931   C1030   1.416   .     A
C931   C994    1.452   .     S
C932   C1033   1.416   .     A
C932   C1000   1.416   .     A
C932   C995    1.450   .     S
C933   C999    1.416   .     A
C933   C1032   1.416   .     A
C933   C996    1.450   .     S
C934   C1034   1.422   .     A
C934   C604    1.422   1_655 S
C934   C636    1.419   1_655 S
C935   I1090   2.158   .     S
C935   C351    1.402   1_565 S
C936   C1035   1.422   .     A
C937   C338    1.419   1_565 S
C937   C436    1.422   1_565 S
C939   C340    1.419   1_556 S
C940   C309    1.422   1_565 S
C940   C339    1.419   1_564 S
C941   C642    1.419   1_556 S
C942   C616    1.422   1_655 S
C942   C641    1.419   1_654 S
C943   I1092   2.158   .     S
C944   C953    1.403   .     A
C944   I1093   2.158   .     S
C945   I1094   2.158   .     S
C945   C954    1.403   .     A
C946   C975    1.452   .     S
C946   C982    1.401   .     A
C946   C601    1.403   1_655 S
C947   C976    1.453   .     S
C947   C993    1.402   .     A
C948   C973    1.452   .     S
C948   C960    1.401   .     A
C948   C404    1.403   1_565 S
C949   I1078   2.158   .     S
C949   C647    1.403   1_655 S
C950   C974    1.453   .     S
C950   C971    1.402   .     A
C951   C1026   1.403   .     A
C951   C979    1.453   .     S
C952   C980    1.452   .     S
C952   C343    1.401   1_565 S
C953   C977    1.453   .     S
C954   C978    1.452   .     S
C954   C624    1.401   1_655 S
C955   C961    1.390   .     A
C955   C1034   1.410   .     A
C955   I1069   2.141   .     S
C956   C959    1.390   .     A
C956   I1080   2.141   .     S
C956   C1035   1.410   .     A
C957   C963    1.390   .     A
C957   C1036   1.411   .     A
C958   C962    1.390   .     A
C958   I495    2.141   1_565 S
C960   I1079   2.158   .     S
C961   I797    2.141   1_655 S
C962   I1098   2.141   .     S
C963   I1099   2.141   .     S
C964   I1100   2.141   .     S
C964   C969    1.390   1_556 S
C965   I1070   2.141   .     S
C965   C968    1.390   1_554 S
C966   I1071   2.141   .     S
C966   C972    1.390   1_556 S
C967   I1072   2.141   .     S
C967   C970    1.390   1_554 S
C968   I1073   2.141   .     S
C968   C965    1.390   1_556 S
C969   I1074   2.140   .     S
C969   C964    1.390   1_554 S
C970   I1075   2.141   .     S
C970   C967    1.390   1_556 S
C971   I1081   2.158   .     S
C972   I1076   2.141   .     S
C972   C966    1.390   1_554 S
C973   O1145   1.275   .     A
C973   O584    1.277   1_565 S
C974   O1156   1.275   .     A
C975   O1103   1.275   .     A
C975   O867    1.277   1_655 S
C976   O1104   1.275   .     A
C977   O1105   1.275   .     A
C977   O1109   1.277   .     A
C978   O810    1.277   1_655 A
C978   O806    1.275   1_655 S
C979   O1107   1.277   .     S
C979   O1111   1.275   .     S
C980   O508    1.277   1_565 A
C980   O513    1.275   1_565 A
C981   O1142   1.278   .     A
C981   O1114   1.278   .     A
C982   C1034   1.410   .     A
C982   I1082   2.158   .     S
C983   O1115   1.278   .     A
C983   O1143   1.278   .     A
C984   O1140   1.277   .     A
C984   O1116   1.277   .     A
C985   O1141   1.277   .     A
C985   O1117   1.277   .     A
C986   O1147   1.276   .     A
C986   O1118   1.277   .     A
C987   O1148   1.277   .     A
C987   O1119   1.276   .     A
C988   O1120   1.277   .     A
C988   O1144   1.277   .     A
C989   O1121   1.277   .     A
C989   O1146   1.277   .     A
C990   O1133   1.277   .     A
C990   O1122   1.277   .     A
C991   O1124   1.277   .     A
C991   O1135   1.277   .     A
C992   O1131   1.278   .     A
C992   O1125   1.278   .     A
C993   I1083   2.158   .     S
C993   C1035   1.410   .     A
C994   O1132   1.278   .     A
C994   O1126   1.278   .     A
C995   O1127   1.277   .     A
C995   O1138   1.277   .     A
C996   O1139   1.277   .     A
C996   O1128   1.277   .     A
C997   O1136   1.276   .     A
C997   O1129   1.278   .     A
C998   O1137   1.278   .     A
C998   O1130   1.276   .     A
C999   C1016   1.392   .     A
C999   O1149   1.385   .     S
C1000  C1014   1.392   .     A
C1000  O1150   1.385   .     S
C1001  C1013   1.392   .     A
C1001  O1151   1.385   .     S
C1002  C1012   1.392   .     A
C1002  O1152   1.385   .     S
C1003  C1011   1.392   .     A
C1003  O1153   1.385   .     S
C1004  C1036   1.412   .     A
C1004  I1084   2.158   .     S
C1005  C1010   1.392   .     A
C1005  O1154   1.385   .     S
C1006  C1009   1.391   .     A
C1006  O1155   1.384   .     S
C1007  C1008   1.405   .     A
C1007  O1157   1.386   .     S
C1008  O1158   1.385   .     S
C1009  O1159   1.384   .     S
C1010  O1160   1.385   .     S
C1011  O1161   1.385   .     S
C1012  O1162   1.385   .     S
C1013  O1163   1.385   .     S
C1014  O1164   1.385   .     S
C1015  I1085   2.158   .     S
C1015  C350    1.403   1_565 S
C1016  O1165   1.385   .     S
C1017  C1033   1.392   .     A
C1017  O1166   1.385   .     S
C1018  C1032   1.392   .     A
C1018  O1168   1.385   .     S
C1019  C1031   1.392   .     A
C1019  O1169   1.385   .     S
C1020  O1170   1.385   .     S
C1020  C1030   1.392   .     A
C1021  O1171   1.385   .     S
C1021  C1029   1.392   .     A
C1022  O1172   1.385   .     S
C1022  C1028   1.392   .     A
C1023  C1027   1.391   .     A
C1023  O1173   1.384   .     S
C1024  O1174   1.385   .     S
C1024  C1025   1.405   .     A
C1025  O1175   1.386   .     S
C1026  I1086   2.158   .     S
C1027  O1176   1.384   .     S
C1028  O1177   1.385   .     S
C1029  O1179   1.385   .     S
C1030  O1180   1.385   .     S
C1031  O1181   1.385   .     S
C1032  O1182   1.385   .     S
C1033  O1183   1.385   .     S
H1037  O1149   0.988   .     S
H1038  O1159   0.989   .     S
H1039  O1160   0.988   .     S
H1040  O1161   0.988   .     S
H1041  O1162   0.988   .     S
H1042  O1163   0.988   .     S
H1043  O1164   0.988   .     S
H1044  O1165   0.988   .     S
H1045  O1166   0.988   .     S
H1046  O1168   0.988   .     S
H1047  O1169   0.988   .     S
H1048  O1150   0.988   .     S
H1049  O1170   0.988   .     S
H1050  O1171   0.988   .     S
H1051  O1172   0.988   .     S
H1052  O1173   0.989   .     S
H1053  O1174   0.989   .     S
H1054  O1175   0.989   .     S
H1055  O1176   0.989   .     S
H1056  O1177   0.988   .     S
H1057  O1179   0.988   .     S
H1058  O1180   0.988   .     S
H1059  O1151   0.988   .     S
H1060  O1181   0.988   .     S
H1061  O1182   0.989   .     S
H1062  O1183   0.988   .     S
H1063  O1152   0.988   .     S
H1064  O1153   0.988   .     S
H1065  O1154   0.988   .     S
H1066  O1155   0.989   .     S
H1067  O1157   0.989   .     S
H1068  O1158   0.989   .     S
I1091  C357    2.140   1_565 S
I1096  C659    2.141   1_655 S
O1101  Zn1188  1.946   .     S
O1101  Zn1185  1.946   .     S
O1101  Zn1196  1.944   .     S
O1102  Zn1187  1.945   .     S
O1102  C374    1.277   1_565 S
O1103  Zn1190  1.946   .     S
O1104  Zn1189  1.946   .     S
O1105  Zn1199  1.946   .     S
O1106  Zn1198  1.946   .     S
O1107  Zn1193  1.945   .     S
O1108  Zn1185  1.945   .     S
O1109  Zn1195  1.945   .     S
O1110  Zn1194  1.945   .     S
O1111  Zn1197  1.946   .     S
O1112  Zn1191  1.944   .     S
O1112  Zn1193  1.946   .     S
O1112  Zn1197  1.944   .     S
O1113  Zn1196  1.946   .     S
O1114  Zn1188  1.934   .     S
O1115  Zn1187  1.934   .     S
O1116  Zn1190  1.932   .     S
O1117  Zn1189  1.932   .     S
O1118  Zn1192  1.934   .     S
O1119  Zn1191  1.934   .     S
O1120  Zn1186  1.932   .     S
O1121  Zn1200  1.932   .     S
O1122  Zn1187  1.932   .     S
O1123  Zn1198  1.944   .     S
O1123  Zn1186  1.946   .     S
O1123  Zn1194  1.946   .     S
O1124  Zn1188  1.932   .     S
O1125  Zn1200  1.934   .     S
O1126  Zn1186  1.934   .     S
O1127  Zn1191  1.932   .     S
O1128  Zn1192  1.932   .     S
O1129  Zn1189  1.934   .     S
O1130  Zn1190  1.934   .     S
O1131  Zn895   1.934   1_655 S
O1132  Zn1194  1.934   .     S
O1133  Zn597   1.932   1_565 S
O1134  Zn1195  1.946   .     S
O1134  Zn1199  1.944   .     S
O1134  Zn1189  1.944   .     S
O1135  Zn1196  1.932   .     S
O1136  Zn1199  1.934   .     S
O1137  Zn898   1.934   1_655 S
O1138  Zn1193  1.932   .     S
O1139  Zn585   1.932   1_565 S
O1140  Zn894   1.932   1_655 S
O1141  Zn1195  1.932   .     S
O1142  Zn1185  1.934   .     S
O1143  Zn593   1.934   1_565 S
O1144  Zn1198  1.932   .     S
O1145  Zn1192  1.946   .     S
O1146  Zn899   1.932   1_655 S
O1147  Zn596   1.934   1_565 S
O1148  Zn1197  1.934   .     S
O1156  Zn1191  1.946   .     S
O1167  Zn1186  1.945   .     S
O1178  Zn1200  1.945   .     S
O1178  C676    1.276   1_655 S
O1184  Zn1188  1.945   .     S
Zn1187 O512    1.946   1_565 S
Zn1190 O823    1.944   1_655 S
Zn1192 O501    1.944   1_565 S
Zn1200 O834    1.946   1_655 S
