data_str_m3_o2_o10_pcu_sym.197
_audit_creation_date              2020-01-03
_audit_creation_method            'Materials Studio'
_symmetry_space_group_name_H-M    'P1'
_symmetry_Int_Tables_number       1
_symmetry_cell_setting            triclinic
loop_
_symmetry_equiv_pos_as_xyz
  x,y,z
_cell_length_a                    25.6909
_cell_length_b                    29.9769
_cell_length_c                    28.3925
_cell_angle_alpha                 89.6592
_cell_angle_beta                  97.6910
_cell_angle_gamma                 90.9412
loop_
_atom_site_label
_atom_site_type_symbol
_atom_site_fract_x
_atom_site_fract_y
_atom_site_fract_z
_atom_site_U_iso_or_equiv
_atom_site_adp_type
_atom_site_occupancy
C1     C     0.16652   0.16417   0.25001   0.00000  Uiso   1.00
C2     C     0.16408   0.33634   0.24960   0.00000  Uiso   1.00
C3     C     0.11976   0.24085   0.04726   0.00000  Uiso   1.00
C4     C     0.18793   0.28663   0.44944   0.00000  Uiso   1.00
C5     C     0.12164   0.23935   0.09704   0.00000  Uiso   1.00
C6     C     0.18960   0.28466   0.40016   0.00000  Uiso   1.00
C7     C     0.21080   0.26277   0.10670   0.00000  Uiso   1.00
C8     C     0.14123   0.21653   0.39521   0.00000  Uiso   1.00
C9     C     0.21138   0.26145   0.05686   0.00000  Uiso   1.00
C10    C     0.14243   0.21560   0.44537   0.00000  Uiso   1.00
C11    C     0.16490   0.25203   0.02627   0.00000  Uiso   1.00
C12    C     0.16432   0.25182   0.47299   0.00000  Uiso   1.00
C13    C     0.06716   0.24959   0.23782   0.00000  Uiso   1.00
C14    C     0.26622   0.25068   0.26224   0.00000  Uiso   1.00
C15    C     0.01240   0.24766   0.23140   0.00000  Uiso   1.00
C16    C     0.32106   0.25316   0.26886   0.00000  Uiso   1.00
C17    C     0.12135   0.04752   0.26151   0.00000  Uiso   1.00
C18    C     0.16630   0.45650   0.21193   0.00000  Uiso   1.00
C19    C     0.12061   0.09343   0.25879   0.00000  Uiso   1.00
C20    C     0.16317   0.41063   0.20837   0.00000  Uiso   1.00
C21    C     0.16609   0.11660   0.25008   0.00000  Uiso   1.00
C22    C     0.15913   0.38484   0.24966   0.00000  Uiso   1.00
C23    C     0.21139   0.09421   0.24146   0.00000  Uiso   1.00
C24    C     0.15107   0.40645   0.29246   0.00000  Uiso   1.00
C25    C     0.21304   0.04802   0.24726   0.00000  Uiso   1.00
C26    C     0.15654   0.45256   0.29583   0.00000  Uiso   1.00
C27    C     0.16745   0.02505   0.25661   0.00000  Uiso   1.00
C28    C     0.16499   0.47711   0.25553   0.00000  Uiso   1.00
H29    H     0.32595   0.24111   0.19590   0.00000  Uiso   1.00
H30    H     0.00768   0.25994   0.30442   0.00000  Uiso   1.00
H31    H     0.08583   0.02917   0.26671   0.00000  Uiso   1.00
H32    H     0.16972   0.47645   0.18045   0.00000  Uiso   1.00
H33    H     0.08314   0.23313   0.02526   0.00000  Uiso   1.00
H34    H     0.20537   0.31520   0.46909   0.00000  Uiso   1.00
H35    H     0.08658   0.23006   0.11221   0.00000  Uiso   1.00
H36    H     0.20856   0.31143   0.38285   0.00000  Uiso   1.00
N37    N     0.16667   0.24999   0.12624   0.00000  Uiso   1.00
N38    N     0.16667   0.25001   0.37377   0.00000  Uiso   1.00
O39    O     0.16667   0.18453   0.28974   0.00000  Uiso   1.00
O40    O     0.16666   0.31546   0.21026   0.00000  Uiso   1.00
O41    O     0.16667   0.18453   0.21026   0.00000  Uiso   1.00
O42    O     0.16666   0.31547   0.28974   0.00000  Uiso   1.00
O43    O     0.09058   0.25000   0.28045   0.00000  Uiso   1.00
O44    O     0.24275   0.25000   0.21956   0.00000  Uiso   1.00
O45    O     0.09058   0.24999   0.20097   0.00000  Uiso   1.00
O46    O     0.24275   0.25000   0.29904   0.00000  Uiso   1.00
Zn47   Zn    0.16667   0.25000   0.30307   0.00000  Uiso   1.00
Zn48   Zn    0.16667   0.24999   0.19693   0.00000  Uiso   1.00
Cl49   Cl    0.06106   0.12063   0.26222   0.00000  Uiso   1.00
Cl50   Cl    0.16195   0.38869   0.15070   0.00000  Uiso   1.00
O51    O     0.25366   0.11790   0.22778   0.00000  Uiso   1.00
C52    C     0.25214   0.11390   0.17790   0.00000  Uiso   1.00
H53    H     0.21140   0.11572   0.15851   0.00000  Uiso   1.00
H54    H     0.26953   0.08178   0.16920   0.00000  Uiso   1.00
C55    C     0.28403   0.15166   0.15928   0.00000  Uiso   1.00
H56    H     0.32448   0.15266   0.17870   0.00000  Uiso   1.00
H57    H     0.28622   0.14664   0.12090   0.00000  Uiso   1.00
H58    H     0.26470   0.18384   0.16371   0.00000  Uiso   1.00
O59    O     0.13858   0.38270   0.33151   0.00000  Uiso   1.00
C60    C     0.08340   0.37657   0.32649   0.00000  Uiso   1.00
H61    H     0.06799   0.36089   0.29177   0.00000  Uiso   1.00
H62    H     0.06384   0.40913   0.32941   0.00000  Uiso   1.00
C63    C     0.06897   0.34591   0.36578   0.00000  Uiso   1.00
H64    H     0.02556   0.34308   0.36367   0.00000  Uiso   1.00
H65    H     0.08476   0.31215   0.36165   0.00000  Uiso   1.00
H66    H     0.08531   0.35945   0.40111   0.00000  Uiso   1.00
Cl67   Cl    0.27212   0.01956   0.24384   0.00000  Uiso   1.00
Cl68   Cl    0.15316   0.47886   0.35087   0.00000  Uiso   1.00
O69    O     0.25647   0.27420   0.13568   0.00000  Uiso   1.00
C70    C     0.26572   0.32086   0.13405   0.00000  Uiso   1.00
H71    H     0.25542   0.33576   0.16723   0.00000  Uiso   1.00
H72    H     0.24284   0.33826   0.10328   0.00000  Uiso   1.00
C73    C     0.32379   0.33025   0.13188   0.00000  Uiso   1.00
H74    H     0.00270   0.31452   0.09991   0.00000  Uiso   1.00
H75    H     0.33094   0.36682   0.13003   0.00000  Uiso   1.00
H76    H     0.01461   0.31707   0.16407   0.00000  Uiso   1.00
O77    O     0.11710   0.18201   0.36800   0.00000  Uiso   1.00
C78    C     0.06175   0.18361   0.36668   0.00000  Uiso   1.00
H79    H     0.04441   0.18977   0.32945   0.00000  Uiso   1.00
H80    H     0.04737   0.21046   0.38862   0.00000  Uiso   1.00
C81    C     0.04034   0.13873   0.38169   0.00000  Uiso   1.00
H82    H     0.04973   0.13384   0.42056   0.00000  Uiso   1.00
H83    H     0.33028   0.13758   0.37240   0.00000  Uiso   1.00
H84    H     0.05743   0.11105   0.36333   0.00000  Uiso   1.00
O85    O     0.25773   0.26958   0.03827   0.00000  Uiso   1.00
C86    C     0.28760   0.23014   0.04033   0.00000  Uiso   1.00
H87    H     0.26635   0.19934   0.05013   0.00000  Uiso   1.00
H88    H     0.32276   0.23464   0.06733   0.00000  Uiso   1.00
C89    C     0.30561   0.22230   0.49213   0.00000  Uiso   1.00
H90    H     0.32769   0.25199   0.48137   0.00000  Uiso   1.00
H91    H     0.33143   0.19281   0.49404   0.00000  Uiso   1.00
H92    H     0.27112   0.21598   0.46488   0.00000  Uiso   1.00
O93    O     0.12163   0.17942   0.46719   0.00000  Uiso   1.00
C94    C     0.16066   0.14669   0.47601   0.00000  Uiso   1.00
H95    H     0.19828   0.16096   0.49437   0.00000  Uiso   1.00
H96    H     0.16791   0.13099   0.44210   0.00000  Uiso   1.00
C97    C     0.14196   0.11073   0.00811   0.00000  Uiso   1.00
H98    H     0.10500   0.09491   0.49070   0.00000  Uiso   1.00
H99    H     0.17236   0.08476   0.01533   0.00000  Uiso   1.00
H100   H     0.13482   0.12563   0.04237   0.00000  Uiso   1.00
C101   C     0.49986   0.16417   0.25001   0.00000  Uiso   1.00
C102   C     0.49741   0.33634   0.24960   0.00000  Uiso   1.00
C103   C     0.45310   0.24085   0.04726   0.00000  Uiso   1.00
C104   C     0.52126   0.28663   0.44944   0.00000  Uiso   1.00
C105   C     0.45497   0.23935   0.09704   0.00000  Uiso   1.00
C106   C     0.52293   0.28466   0.40016   0.00000  Uiso   1.00
C107   C     0.54413   0.26277   0.10670   0.00000  Uiso   1.00
C108   C     0.47457   0.21653   0.39521   0.00000  Uiso   1.00
C109   C     0.54471   0.26145   0.05686   0.00000  Uiso   1.00
C110   C     0.47576   0.21560   0.44537   0.00000  Uiso   1.00
C111   C     0.49823   0.25203   0.02627   0.00000  Uiso   1.00
C112   C     0.49765   0.25182   0.47299   0.00000  Uiso   1.00
C113   C     0.40049   0.24959   0.23782   0.00000  Uiso   1.00
C114   C     0.59955   0.25068   0.26224   0.00000  Uiso   1.00
C115   C     0.34573   0.24766   0.23140   0.00000  Uiso   1.00
C116   C     0.65440   0.25316   0.26886   0.00000  Uiso   1.00
C117   C     0.45469   0.04752   0.26151   0.00000  Uiso   1.00
C118   C     0.49963   0.45650   0.21193   0.00000  Uiso   1.00
C119   C     0.45395   0.09343   0.25879   0.00000  Uiso   1.00
C120   C     0.49651   0.41063   0.20837   0.00000  Uiso   1.00
C121   C     0.49942   0.11660   0.25008   0.00000  Uiso   1.00
C122   C     0.49247   0.38484   0.24966   0.00000  Uiso   1.00
C123   C     0.54472   0.09421   0.24146   0.00000  Uiso   1.00
C124   C     0.48441   0.40645   0.29246   0.00000  Uiso   1.00
C125   C     0.54638   0.04802   0.24726   0.00000  Uiso   1.00
C126   C     0.48987   0.45256   0.29583   0.00000  Uiso   1.00
C127   C     0.50079   0.02505   0.25661   0.00000  Uiso   1.00
C128   C     0.49832   0.47711   0.25553   0.00000  Uiso   1.00
H129   H     0.65929   0.24111   0.19590   0.00000  Uiso   1.00
H130   H     0.34101   0.25994   0.30442   0.00000  Uiso   1.00
H131   H     0.41916   0.02917   0.26671   0.00000  Uiso   1.00
H132   H     0.50305   0.47645   0.18045   0.00000  Uiso   1.00
H133   H     0.41647   0.23313   0.02526   0.00000  Uiso   1.00
H134   H     0.53871   0.31520   0.46909   0.00000  Uiso   1.00
H135   H     0.41991   0.23006   0.11221   0.00000  Uiso   1.00
H136   H     0.54190   0.31143   0.38285   0.00000  Uiso   1.00
N137   N     0.50000   0.24999   0.12624   0.00000  Uiso   1.00
N138   N     0.50000   0.25001   0.37377   0.00000  Uiso   1.00
O139   O     0.50000   0.18453   0.28974   0.00000  Uiso   1.00
O140   O     0.50000   0.31546   0.21026   0.00000  Uiso   1.00
O141   O     0.50000   0.18453   0.21026   0.00000  Uiso   1.00
O142   O     0.50000   0.31547   0.28974   0.00000  Uiso   1.00
O143   O     0.42392   0.25000   0.28045   0.00000  Uiso   1.00
O144   O     0.57608   0.25000   0.21956   0.00000  Uiso   1.00
O145   O     0.42392   0.24999   0.20097   0.00000  Uiso   1.00
O146   O     0.57608   0.25000   0.29904   0.00000  Uiso   1.00
Zn147  Zn    0.50000   0.25000   0.30307   0.00000  Uiso   1.00
Zn148  Zn    0.50000   0.24999   0.19693   0.00000  Uiso   1.00
Cl149  Cl    0.39439   0.12063   0.26222   0.00000  Uiso   1.00
Cl150  Cl    0.49529   0.38869   0.15070   0.00000  Uiso   1.00
O151   O     0.58700   0.11790   0.22778   0.00000  Uiso   1.00
C152   C     0.58547   0.11390   0.17790   0.00000  Uiso   1.00
H153   H     0.54473   0.11572   0.15851   0.00000  Uiso   1.00
H154   H     0.60286   0.08178   0.16920   0.00000  Uiso   1.00
C155   C     0.61736   0.15166   0.15928   0.00000  Uiso   1.00
H156   H     0.65781   0.15266   0.17870   0.00000  Uiso   1.00
H157   H     0.61955   0.14664   0.12090   0.00000  Uiso   1.00
H158   H     0.59803   0.18384   0.16371   0.00000  Uiso   1.00
O159   O     0.47191   0.38270   0.33151   0.00000  Uiso   1.00
C160   C     0.41674   0.37657   0.32649   0.00000  Uiso   1.00
H161   H     0.40132   0.36089   0.29177   0.00000  Uiso   1.00
H162   H     0.39717   0.40913   0.32941   0.00000  Uiso   1.00
C163   C     0.40230   0.34591   0.36578   0.00000  Uiso   1.00
H164   H     0.35890   0.34308   0.36367   0.00000  Uiso   1.00
H165   H     0.41810   0.31215   0.36165   0.00000  Uiso   1.00
H166   H     0.41865   0.35945   0.40111   0.00000  Uiso   1.00
Cl167  Cl    0.60546   0.01956   0.24384   0.00000  Uiso   1.00
Cl168  Cl    0.48649   0.47886   0.35087   0.00000  Uiso   1.00
O169   O     0.58980   0.27420   0.13568   0.00000  Uiso   1.00
C170   C     0.59905   0.32086   0.13405   0.00000  Uiso   1.00
H171   H     0.58876   0.33576   0.16723   0.00000  Uiso   1.00
H172   H     0.57617   0.33826   0.10328   0.00000  Uiso   1.00
C173   C     0.65712   0.33025   0.13188   0.00000  Uiso   1.00
H174   H     0.33604   0.31452   0.09991   0.00000  Uiso   1.00
H175   H     0.66427   0.36682   0.13003   0.00000  Uiso   1.00
H176   H     0.34795   0.31707   0.16407   0.00000  Uiso   1.00
O177   O     0.45043   0.18201   0.36800   0.00000  Uiso   1.00
C178   C     0.39508   0.18361   0.36668   0.00000  Uiso   1.00
H179   H     0.37774   0.18977   0.32945   0.00000  Uiso   1.00
H180   H     0.38071   0.21046   0.38862   0.00000  Uiso   1.00
C181   C     0.37368   0.13873   0.38169   0.00000  Uiso   1.00
H182   H     0.38307   0.13384   0.42056   0.00000  Uiso   1.00
H183   H     0.66362   0.13758   0.37240   0.00000  Uiso   1.00
H184   H     0.39077   0.11105   0.36333   0.00000  Uiso   1.00
O185   O     0.59106   0.26958   0.03827   0.00000  Uiso   1.00
C186   C     0.62094   0.23014   0.04033   0.00000  Uiso   1.00
H187   H     0.59968   0.19934   0.05013   0.00000  Uiso   1.00
H188   H     0.65610   0.23464   0.06733   0.00000  Uiso   1.00
C189   C     0.63894   0.22230   0.49213   0.00000  Uiso   1.00
H190   H     0.66102   0.25199   0.48137   0.00000  Uiso   1.00
H191   H     0.66476   0.19281   0.49404   0.00000  Uiso   1.00
H192   H     0.60446   0.21598   0.46488   0.00000  Uiso   1.00
O193   O     0.45496   0.17942   0.46719   0.00000  Uiso   1.00
C194   C     0.49400   0.14669   0.47601   0.00000  Uiso   1.00
H195   H     0.53161   0.16096   0.49437   0.00000  Uiso   1.00
H196   H     0.50124   0.13099   0.44210   0.00000  Uiso   1.00
C197   C     0.47530   0.11073   0.00811   0.00000  Uiso   1.00
H198   H     0.43834   0.09491   0.49070   0.00000  Uiso   1.00
H199   H     0.50569   0.08476   0.01533   0.00000  Uiso   1.00
H200   H     0.46816   0.12563   0.04237   0.00000  Uiso   1.00
C201   C     0.83319   0.16417   0.25001   0.00000  Uiso   1.00
C202   C     0.83075   0.33634   0.24960   0.00000  Uiso   1.00
C203   C     0.78643   0.24085   0.04726   0.00000  Uiso   1.00
C204   C     0.85460   0.28663   0.44944   0.00000  Uiso   1.00
C205   C     0.78830   0.23935   0.09704   0.00000  Uiso   1.00
C206   C     0.85626   0.28466   0.40016   0.00000  Uiso   1.00
C207   C     0.87747   0.26277   0.10670   0.00000  Uiso   1.00
C208   C     0.80790   0.21653   0.39521   0.00000  Uiso   1.00
C209   C     0.87805   0.26145   0.05686   0.00000  Uiso   1.00
C210   C     0.80910   0.21560   0.44537   0.00000  Uiso   1.00
C211   C     0.83156   0.25203   0.02627   0.00000  Uiso   1.00
C212   C     0.83099   0.25182   0.47299   0.00000  Uiso   1.00
C213   C     0.73383   0.24959   0.23782   0.00000  Uiso   1.00
C214   C     0.93288   0.25068   0.26224   0.00000  Uiso   1.00
C215   C     0.67907   0.24766   0.23140   0.00000  Uiso   1.00
C216   C     0.98773   0.25316   0.26886   0.00000  Uiso   1.00
C217   C     0.78802   0.04752   0.26151   0.00000  Uiso   1.00
C218   C     0.83297   0.45650   0.21193   0.00000  Uiso   1.00
C219   C     0.78728   0.09343   0.25879   0.00000  Uiso   1.00
C220   C     0.82984   0.41063   0.20837   0.00000  Uiso   1.00
C221   C     0.83275   0.11660   0.25008   0.00000  Uiso   1.00
C222   C     0.82580   0.38484   0.24966   0.00000  Uiso   1.00
C223   C     0.87805   0.09421   0.24146   0.00000  Uiso   1.00
C224   C     0.81774   0.40645   0.29246   0.00000  Uiso   1.00
C225   C     0.87971   0.04802   0.24726   0.00000  Uiso   1.00
C226   C     0.82321   0.45256   0.29583   0.00000  Uiso   1.00
C227   C     0.83412   0.02505   0.25661   0.00000  Uiso   1.00
C228   C     0.83165   0.47711   0.25553   0.00000  Uiso   1.00
H229   H     0.99262   0.24111   0.19590   0.00000  Uiso   1.00
H230   H     0.67434   0.25994   0.30442   0.00000  Uiso   1.00
H231   H     0.75249   0.02917   0.26671   0.00000  Uiso   1.00
H232   H     0.83639   0.47645   0.18045   0.00000  Uiso   1.00
H233   H     0.74981   0.23313   0.02526   0.00000  Uiso   1.00
H234   H     0.87204   0.31520   0.46909   0.00000  Uiso   1.00
H235   H     0.75325   0.23006   0.11221   0.00000  Uiso   1.00
H236   H     0.87523   0.31143   0.38285   0.00000  Uiso   1.00
N237   N     0.83333   0.24999   0.12624   0.00000  Uiso   1.00
N238   N     0.83333   0.25001   0.37377   0.00000  Uiso   1.00
O239   O     0.83334   0.18453   0.28974   0.00000  Uiso   1.00
O240   O     0.83333   0.31546   0.21026   0.00000  Uiso   1.00
O241   O     0.83334   0.18453   0.21026   0.00000  Uiso   1.00
O242   O     0.83333   0.31547   0.28974   0.00000  Uiso   1.00
O243   O     0.75725   0.25000   0.28045   0.00000  Uiso   1.00
O244   O     0.90942   0.25000   0.21956   0.00000  Uiso   1.00
O245   O     0.75725   0.24999   0.20097   0.00000  Uiso   1.00
O246   O     0.90942   0.25000   0.29904   0.00000  Uiso   1.00
Zn247  Zn    0.83333   0.25000   0.30307   0.00000  Uiso   1.00
Zn248  Zn    0.83333   0.24999   0.19693   0.00000  Uiso   1.00
Cl249  Cl    0.72772   0.12063   0.26222   0.00000  Uiso   1.00
Cl250  Cl    0.82862   0.38869   0.15070   0.00000  Uiso   1.00
O251   O     0.92033   0.11790   0.22778   0.00000  Uiso   1.00
C252   C     0.91881   0.11390   0.17790   0.00000  Uiso   1.00
H253   H     0.87807   0.11572   0.15851   0.00000  Uiso   1.00
H254   H     0.93620   0.08178   0.16920   0.00000  Uiso   1.00
C255   C     0.95069   0.15166   0.15928   0.00000  Uiso   1.00
H256   H     0.99114   0.15266   0.17870   0.00000  Uiso   1.00
H257   H     0.95288   0.14664   0.12090   0.00000  Uiso   1.00
H258   H     0.93136   0.18384   0.16371   0.00000  Uiso   1.00
O259   O     0.80524   0.38270   0.33151   0.00000  Uiso   1.00
C260   C     0.75007   0.37657   0.32649   0.00000  Uiso   1.00
H261   H     0.73465   0.36089   0.29177   0.00000  Uiso   1.00
H262   H     0.73051   0.40913   0.32941   0.00000  Uiso   1.00
C263   C     0.73564   0.34591   0.36578   0.00000  Uiso   1.00
H264   H     0.69223   0.34308   0.36367   0.00000  Uiso   1.00
H265   H     0.75143   0.31215   0.36165   0.00000  Uiso   1.00
H266   H     0.75198   0.35945   0.40111   0.00000  Uiso   1.00
Cl267  Cl    0.93879   0.01956   0.24384   0.00000  Uiso   1.00
Cl268  Cl    0.81983   0.47886   0.35087   0.00000  Uiso   1.00
O269   O     0.92313   0.27420   0.13568   0.00000  Uiso   1.00
C270   C     0.93238   0.32086   0.13405   0.00000  Uiso   1.00
H271   H     0.92209   0.33576   0.16723   0.00000  Uiso   1.00
H272   H     0.90950   0.33826   0.10328   0.00000  Uiso   1.00
C273   C     0.99045   0.33025   0.13188   0.00000  Uiso   1.00
H274   H     0.66937   0.31452   0.09991   0.00000  Uiso   1.00
H275   H     0.99760   0.36682   0.13003   0.00000  Uiso   1.00
H276   H     0.68128   0.31707   0.16407   0.00000  Uiso   1.00
O277   O     0.78377   0.18201   0.36800   0.00000  Uiso   1.00
C278   C     0.72841   0.18361   0.36668   0.00000  Uiso   1.00
H279   H     0.71108   0.18977   0.32945   0.00000  Uiso   1.00
H280   H     0.71404   0.21046   0.38862   0.00000  Uiso   1.00
C281   C     0.70701   0.13873   0.38169   0.00000  Uiso   1.00
H282   H     0.71640   0.13384   0.42056   0.00000  Uiso   1.00
H283   H     0.99695   0.13758   0.37240   0.00000  Uiso   1.00
H284   H     0.72410   0.11105   0.36333   0.00000  Uiso   1.00
O285   O     0.92439   0.26958   0.03827   0.00000  Uiso   1.00
C286   C     0.95427   0.23014   0.04033   0.00000  Uiso   1.00
H287   H     0.93301   0.19934   0.05013   0.00000  Uiso   1.00
H288   H     0.98943   0.23464   0.06733   0.00000  Uiso   1.00
C289   C     0.97228   0.22230   0.49213   0.00000  Uiso   1.00
H290   H     0.99436   0.25199   0.48137   0.00000  Uiso   1.00
H291   H     0.99809   0.19281   0.49404   0.00000  Uiso   1.00
H292   H     0.93779   0.21598   0.46488   0.00000  Uiso   1.00
O293   O     0.78830   0.17942   0.46719   0.00000  Uiso   1.00
C294   C     0.82733   0.14669   0.47601   0.00000  Uiso   1.00
H295   H     0.86494   0.16096   0.49437   0.00000  Uiso   1.00
H296   H     0.83458   0.13099   0.44210   0.00000  Uiso   1.00
C297   C     0.80863   0.11073   0.00811   0.00000  Uiso   1.00
H298   H     0.77167   0.09491   0.49070   0.00000  Uiso   1.00
H299   H     0.83903   0.08476   0.01533   0.00000  Uiso   1.00
H300   H     0.80149   0.12563   0.04237   0.00000  Uiso   1.00
C301   C     0.16652   0.66417   0.25001   0.00000  Uiso   1.00
C302   C     0.16408   0.83634   0.24960   0.00000  Uiso   1.00
C303   C     0.11976   0.74085   0.04726   0.00000  Uiso   1.00
C304   C     0.18793   0.78663   0.44944   0.00000  Uiso   1.00
C305   C     0.12164   0.73935   0.09704   0.00000  Uiso   1.00
C306   C     0.18960   0.78466   0.40016   0.00000  Uiso   1.00
C307   C     0.21080   0.76277   0.10670   0.00000  Uiso   1.00
C308   C     0.14123   0.71653   0.39521   0.00000  Uiso   1.00
C309   C     0.21138   0.76145   0.05686   0.00000  Uiso   1.00
C310   C     0.14243   0.71560   0.44537   0.00000  Uiso   1.00
C311   C     0.16490   0.75203   0.02627   0.00000  Uiso   1.00
C312   C     0.16432   0.75182   0.47299   0.00000  Uiso   1.00
C313   C     0.06716   0.74959   0.23782   0.00000  Uiso   1.00
C314   C     0.26622   0.75068   0.26224   0.00000  Uiso   1.00
C315   C     0.01240   0.74766   0.23140   0.00000  Uiso   1.00
C316   C     0.32106   0.75316   0.26886   0.00000  Uiso   1.00
C317   C     0.12135   0.54752   0.26151   0.00000  Uiso   1.00
C318   C     0.16630   0.95650   0.21193   0.00000  Uiso   1.00
C319   C     0.12061   0.59343   0.25879   0.00000  Uiso   1.00
C320   C     0.16317   0.91063   0.20837   0.00000  Uiso   1.00
C321   C     0.16609   0.61660   0.25008   0.00000  Uiso   1.00
C322   C     0.15913   0.88484   0.24966   0.00000  Uiso   1.00
C323   C     0.21139   0.59421   0.24146   0.00000  Uiso   1.00
C324   C     0.15107   0.90645   0.29246   0.00000  Uiso   1.00
C325   C     0.21304   0.54802   0.24726   0.00000  Uiso   1.00
C326   C     0.15654   0.95256   0.29583   0.00000  Uiso   1.00
C327   C     0.16745   0.52505   0.25661   0.00000  Uiso   1.00
C328   C     0.16499   0.97711   0.25553   0.00000  Uiso   1.00
H329   H     0.32595   0.74111   0.19590   0.00000  Uiso   1.00
H330   H     0.00768   0.75994   0.30442   0.00000  Uiso   1.00
H331   H     0.08583   0.52917   0.26671   0.00000  Uiso   1.00
H332   H     0.16972   0.97645   0.18045   0.00000  Uiso   1.00
H333   H     0.08314   0.73313   0.02526   0.00000  Uiso   1.00
H334   H     0.20537   0.81520   0.46909   0.00000  Uiso   1.00
H335   H     0.08658   0.73006   0.11221   0.00000  Uiso   1.00
H336   H     0.20856   0.81143   0.38285   0.00000  Uiso   1.00
N337   N     0.16667   0.74999   0.12624   0.00000  Uiso   1.00
N338   N     0.16667   0.75001   0.37377   0.00000  Uiso   1.00
O339   O     0.16667   0.68453   0.28974   0.00000  Uiso   1.00
O340   O     0.16666   0.81546   0.21026   0.00000  Uiso   1.00
O341   O     0.16667   0.68453   0.21026   0.00000  Uiso   1.00
O342   O     0.16666   0.81547   0.28974   0.00000  Uiso   1.00
O343   O     0.09058   0.75000   0.28045   0.00000  Uiso   1.00
O344   O     0.24275   0.75000   0.21956   0.00000  Uiso   1.00
O345   O     0.09058   0.74999   0.20097   0.00000  Uiso   1.00
O346   O     0.24275   0.75000   0.29904   0.00000  Uiso   1.00
Zn347  Zn    0.16667   0.75000   0.30307   0.00000  Uiso   1.00
Zn348  Zn    0.16667   0.74999   0.19693   0.00000  Uiso   1.00
Cl349  Cl    0.06106   0.62063   0.26222   0.00000  Uiso   1.00
Cl350  Cl    0.16195   0.88869   0.15070   0.00000  Uiso   1.00
O351   O     0.25366   0.61790   0.22778   0.00000  Uiso   1.00
C352   C     0.25214   0.61390   0.17790   0.00000  Uiso   1.00
H353   H     0.21140   0.61572   0.15851   0.00000  Uiso   1.00
H354   H     0.26953   0.58178   0.16920   0.00000  Uiso   1.00
C355   C     0.28403   0.65166   0.15928   0.00000  Uiso   1.00
H356   H     0.32448   0.65266   0.17870   0.00000  Uiso   1.00
H357   H     0.28622   0.64664   0.12090   0.00000  Uiso   1.00
H358   H     0.26470   0.68384   0.16371   0.00000  Uiso   1.00
O359   O     0.13858   0.88270   0.33151   0.00000  Uiso   1.00
C360   C     0.08340   0.87657   0.32649   0.00000  Uiso   1.00
H361   H     0.06799   0.86089   0.29177   0.00000  Uiso   1.00
H362   H     0.06384   0.90913   0.32941   0.00000  Uiso   1.00
C363   C     0.06897   0.84591   0.36578   0.00000  Uiso   1.00
H364   H     0.02556   0.84308   0.36367   0.00000  Uiso   1.00
H365   H     0.08476   0.81215   0.36165   0.00000  Uiso   1.00
H366   H     0.08531   0.85945   0.40111   0.00000  Uiso   1.00
Cl367  Cl    0.27212   0.51956   0.24384   0.00000  Uiso   1.00
Cl368  Cl    0.15316   0.97886   0.35087   0.00000  Uiso   1.00
O369   O     0.25647   0.77420   0.13568   0.00000  Uiso   1.00
C370   C     0.26572   0.82086   0.13405   0.00000  Uiso   1.00
H371   H     0.25542   0.83576   0.16723   0.00000  Uiso   1.00
H372   H     0.24284   0.83826   0.10328   0.00000  Uiso   1.00
C373   C     0.32379   0.83025   0.13188   0.00000  Uiso   1.00
H374   H     0.00270   0.81452   0.09991   0.00000  Uiso   1.00
H375   H     0.33094   0.86682   0.13003   0.00000  Uiso   1.00
H376   H     0.01461   0.81707   0.16407   0.00000  Uiso   1.00
O377   O     0.11710   0.68201   0.36800   0.00000  Uiso   1.00
C378   C     0.06175   0.68361   0.36668   0.00000  Uiso   1.00
H379   H     0.04441   0.68977   0.32945   0.00000  Uiso   1.00
H380   H     0.04737   0.71046   0.38862   0.00000  Uiso   1.00
C381   C     0.04034   0.63873   0.38169   0.00000  Uiso   1.00
H382   H     0.04973   0.63384   0.42056   0.00000  Uiso   1.00
H383   H     0.33028   0.63758   0.37240   0.00000  Uiso   1.00
H384   H     0.05743   0.61105   0.36333   0.00000  Uiso   1.00
O385   O     0.25773   0.76958   0.03827   0.00000  Uiso   1.00
C386   C     0.28760   0.73014   0.04033   0.00000  Uiso   1.00
H387   H     0.26635   0.69934   0.05013   0.00000  Uiso   1.00
H388   H     0.32276   0.73464   0.06733   0.00000  Uiso   1.00
C389   C     0.30561   0.72230   0.49213   0.00000  Uiso   1.00
H390   H     0.32769   0.75199   0.48137   0.00000  Uiso   1.00
H391   H     0.33143   0.69281   0.49404   0.00000  Uiso   1.00
H392   H     0.27112   0.71598   0.46488   0.00000  Uiso   1.00
O393   O     0.12163   0.67942   0.46719   0.00000  Uiso   1.00
C394   C     0.16066   0.64669   0.47601   0.00000  Uiso   1.00
H395   H     0.19828   0.66096   0.49437   0.00000  Uiso   1.00
H396   H     0.16791   0.63099   0.44210   0.00000  Uiso   1.00
C397   C     0.14196   0.61073   0.00811   0.00000  Uiso   1.00
H398   H     0.10500   0.59491   0.49070   0.00000  Uiso   1.00
H399   H     0.17236   0.58476   0.01533   0.00000  Uiso   1.00
H400   H     0.13482   0.62563   0.04237   0.00000  Uiso   1.00
C401   C     0.49986   0.66417   0.25001   0.00000  Uiso   1.00
C402   C     0.49741   0.83634   0.24960   0.00000  Uiso   1.00
C403   C     0.45310   0.74085   0.04726   0.00000  Uiso   1.00
C404   C     0.52126   0.78663   0.44944   0.00000  Uiso   1.00
C405   C     0.45497   0.73935   0.09704   0.00000  Uiso   1.00
C406   C     0.52293   0.78466   0.40016   0.00000  Uiso   1.00
C407   C     0.54413   0.76277   0.10670   0.00000  Uiso   1.00
C408   C     0.47457   0.71653   0.39521   0.00000  Uiso   1.00
C409   C     0.54471   0.76145   0.05686   0.00000  Uiso   1.00
C410   C     0.47576   0.71560   0.44537   0.00000  Uiso   1.00
C411   C     0.49823   0.75203   0.02627   0.00000  Uiso   1.00
C412   C     0.49765   0.75182   0.47299   0.00000  Uiso   1.00
C413   C     0.40049   0.74959   0.23782   0.00000  Uiso   1.00
C414   C     0.59955   0.75068   0.26224   0.00000  Uiso   1.00
C415   C     0.34573   0.74766   0.23140   0.00000  Uiso   1.00
C416   C     0.65440   0.75316   0.26886   0.00000  Uiso   1.00
C417   C     0.45469   0.54752   0.26151   0.00000  Uiso   1.00
C418   C     0.49963   0.95650   0.21193   0.00000  Uiso   1.00
C419   C     0.45395   0.59343   0.25879   0.00000  Uiso   1.00
C420   C     0.49651   0.91063   0.20837   0.00000  Uiso   1.00
C421   C     0.49942   0.61660   0.25008   0.00000  Uiso   1.00
C422   C     0.49247   0.88484   0.24966   0.00000  Uiso   1.00
C423   C     0.54472   0.59421   0.24146   0.00000  Uiso   1.00
C424   C     0.48441   0.90645   0.29246   0.00000  Uiso   1.00
C425   C     0.54638   0.54802   0.24726   0.00000  Uiso   1.00
C426   C     0.48987   0.95256   0.29583   0.00000  Uiso   1.00
C427   C     0.50079   0.52505   0.25661   0.00000  Uiso   1.00
C428   C     0.49832   0.97711   0.25553   0.00000  Uiso   1.00
H429   H     0.65929   0.74111   0.19590   0.00000  Uiso   1.00
H430   H     0.34101   0.75994   0.30442   0.00000  Uiso   1.00
H431   H     0.41916   0.52917   0.26671   0.00000  Uiso   1.00
H432   H     0.50305   0.97645   0.18045   0.00000  Uiso   1.00
H433   H     0.41647   0.73313   0.02526   0.00000  Uiso   1.00
H434   H     0.53871   0.81520   0.46909   0.00000  Uiso   1.00
H435   H     0.41991   0.73006   0.11221   0.00000  Uiso   1.00
H436   H     0.54190   0.81143   0.38285   0.00000  Uiso   1.00
N437   N     0.50000   0.74999   0.12624   0.00000  Uiso   1.00
N438   N     0.50000   0.75001   0.37377   0.00000  Uiso   1.00
O439   O     0.50000   0.68453   0.28974   0.00000  Uiso   1.00
O440   O     0.50000   0.81546   0.21026   0.00000  Uiso   1.00
O441   O     0.50000   0.68453   0.21026   0.00000  Uiso   1.00
O442   O     0.50000   0.81547   0.28974   0.00000  Uiso   1.00
O443   O     0.42392   0.75000   0.28045   0.00000  Uiso   1.00
O444   O     0.57608   0.75000   0.21956   0.00000  Uiso   1.00
O445   O     0.42392   0.74999   0.20097   0.00000  Uiso   1.00
O446   O     0.57608   0.75000   0.29904   0.00000  Uiso   1.00
Zn447  Zn    0.50000   0.75000   0.30307   0.00000  Uiso   1.00
Zn448  Zn    0.50000   0.74999   0.19693   0.00000  Uiso   1.00
Cl449  Cl    0.39439   0.62063   0.26222   0.00000  Uiso   1.00
Cl450  Cl    0.49529   0.88869   0.15070   0.00000  Uiso   1.00
O451   O     0.58700   0.61790   0.22778   0.00000  Uiso   1.00
C452   C     0.58547   0.61390   0.17790   0.00000  Uiso   1.00
H453   H     0.54473   0.61572   0.15851   0.00000  Uiso   1.00
H454   H     0.60286   0.58178   0.16920   0.00000  Uiso   1.00
C455   C     0.61736   0.65166   0.15928   0.00000  Uiso   1.00
H456   H     0.65781   0.65266   0.17870   0.00000  Uiso   1.00
H457   H     0.61955   0.64664   0.12090   0.00000  Uiso   1.00
H458   H     0.59803   0.68384   0.16371   0.00000  Uiso   1.00
O459   O     0.47191   0.88270   0.33151   0.00000  Uiso   1.00
C460   C     0.41674   0.87657   0.32649   0.00000  Uiso   1.00
H461   H     0.40132   0.86089   0.29177   0.00000  Uiso   1.00
H462   H     0.39717   0.90913   0.32941   0.00000  Uiso   1.00
C463   C     0.40230   0.84591   0.36578   0.00000  Uiso   1.00
H464   H     0.35890   0.84308   0.36367   0.00000  Uiso   1.00
H465   H     0.41810   0.81215   0.36165   0.00000  Uiso   1.00
H466   H     0.41865   0.85945   0.40111   0.00000  Uiso   1.00
Cl467  Cl    0.60546   0.51956   0.24384   0.00000  Uiso   1.00
Cl468  Cl    0.48649   0.97886   0.35087   0.00000  Uiso   1.00
O469   O     0.58980   0.77420   0.13568   0.00000  Uiso   1.00
C470   C     0.59905   0.82086   0.13405   0.00000  Uiso   1.00
H471   H     0.58876   0.83576   0.16723   0.00000  Uiso   1.00
H472   H     0.57617   0.83826   0.10328   0.00000  Uiso   1.00
C473   C     0.65712   0.83025   0.13188   0.00000  Uiso   1.00
H474   H     0.33604   0.81452   0.09991   0.00000  Uiso   1.00
H475   H     0.66427   0.86682   0.13003   0.00000  Uiso   1.00
H476   H     0.34795   0.81707   0.16407   0.00000  Uiso   1.00
O477   O     0.45043   0.68201   0.36800   0.00000  Uiso   1.00
C478   C     0.39508   0.68361   0.36668   0.00000  Uiso   1.00
H479   H     0.37774   0.68977   0.32945   0.00000  Uiso   1.00
H480   H     0.38071   0.71046   0.38862   0.00000  Uiso   1.00
C481   C     0.37368   0.63873   0.38169   0.00000  Uiso   1.00
H482   H     0.38307   0.63384   0.42056   0.00000  Uiso   1.00
H483   H     0.66362   0.63758   0.37240   0.00000  Uiso   1.00
H484   H     0.39077   0.61105   0.36333   0.00000  Uiso   1.00
O485   O     0.59106   0.76958   0.03827   0.00000  Uiso   1.00
C486   C     0.62094   0.73014   0.04033   0.00000  Uiso   1.00
H487   H     0.59968   0.69934   0.05013   0.00000  Uiso   1.00
H488   H     0.65610   0.73464   0.06733   0.00000  Uiso   1.00
C489   C     0.63894   0.72230   0.49213   0.00000  Uiso   1.00
H490   H     0.66102   0.75199   0.48137   0.00000  Uiso   1.00
H491   H     0.66476   0.69281   0.49404   0.00000  Uiso   1.00
H492   H     0.60446   0.71598   0.46488   0.00000  Uiso   1.00
O493   O     0.45496   0.67942   0.46719   0.00000  Uiso   1.00
C494   C     0.49400   0.64669   0.47601   0.00000  Uiso   1.00
H495   H     0.53161   0.66096   0.49437   0.00000  Uiso   1.00
H496   H     0.50124   0.63099   0.44210   0.00000  Uiso   1.00
C497   C     0.47530   0.61073   0.00811   0.00000  Uiso   1.00
H498   H     0.43834   0.59491   0.49070   0.00000  Uiso   1.00
H499   H     0.50569   0.58476   0.01533   0.00000  Uiso   1.00
H500   H     0.46816   0.62563   0.04237   0.00000  Uiso   1.00
C501   C     0.83319   0.66417   0.25001   0.00000  Uiso   1.00
C502   C     0.83075   0.83634   0.24960   0.00000  Uiso   1.00
C503   C     0.78643   0.74085   0.04726   0.00000  Uiso   1.00
C504   C     0.85460   0.78663   0.44944   0.00000  Uiso   1.00
C505   C     0.78830   0.73935   0.09704   0.00000  Uiso   1.00
C506   C     0.85626   0.78466   0.40016   0.00000  Uiso   1.00
C507   C     0.87747   0.76277   0.10670   0.00000  Uiso   1.00
C508   C     0.80790   0.71653   0.39521   0.00000  Uiso   1.00
C509   C     0.87805   0.76145   0.05686   0.00000  Uiso   1.00
C510   C     0.80910   0.71560   0.44537   0.00000  Uiso   1.00
C511   C     0.83156   0.75203   0.02627   0.00000  Uiso   1.00
C512   C     0.83099   0.75182   0.47299   0.00000  Uiso   1.00
C513   C     0.73383   0.74959   0.23782   0.00000  Uiso   1.00
C514   C     0.93288   0.75068   0.26224   0.00000  Uiso   1.00
C515   C     0.67907   0.74766   0.23140   0.00000  Uiso   1.00
C516   C     0.98773   0.75316   0.26886   0.00000  Uiso   1.00
C517   C     0.78802   0.54752   0.26151   0.00000  Uiso   1.00
C518   C     0.83297   0.95650   0.21193   0.00000  Uiso   1.00
C519   C     0.78728   0.59343   0.25879   0.00000  Uiso   1.00
C520   C     0.82984   0.91063   0.20837   0.00000  Uiso   1.00
C521   C     0.83275   0.61660   0.25008   0.00000  Uiso   1.00
C522   C     0.82580   0.88484   0.24966   0.00000  Uiso   1.00
C523   C     0.87805   0.59421   0.24146   0.00000  Uiso   1.00
C524   C     0.81774   0.90645   0.29246   0.00000  Uiso   1.00
C525   C     0.87971   0.54802   0.24726   0.00000  Uiso   1.00
C526   C     0.82321   0.95256   0.29583   0.00000  Uiso   1.00
C527   C     0.83412   0.52505   0.25661   0.00000  Uiso   1.00
C528   C     0.83165   0.97711   0.25553   0.00000  Uiso   1.00
H529   H     0.99262   0.74111   0.19590   0.00000  Uiso   1.00
H530   H     0.67434   0.75994   0.30442   0.00000  Uiso   1.00
H531   H     0.75249   0.52917   0.26671   0.00000  Uiso   1.00
H532   H     0.83639   0.97645   0.18045   0.00000  Uiso   1.00
H533   H     0.74981   0.73313   0.02526   0.00000  Uiso   1.00
H534   H     0.87204   0.81520   0.46909   0.00000  Uiso   1.00
H535   H     0.75325   0.73006   0.11221   0.00000  Uiso   1.00
H536   H     0.87523   0.81143   0.38285   0.00000  Uiso   1.00
N537   N     0.83333   0.74999   0.12624   0.00000  Uiso   1.00
N538   N     0.83333   0.75001   0.37377   0.00000  Uiso   1.00
O539   O     0.83334   0.68453   0.28974   0.00000  Uiso   1.00
O540   O     0.83333   0.81546   0.21026   0.00000  Uiso   1.00
O541   O     0.83334   0.68453   0.21026   0.00000  Uiso   1.00
O542   O     0.83333   0.81547   0.28974   0.00000  Uiso   1.00
O543   O     0.75725   0.75000   0.28045   0.00000  Uiso   1.00
O544   O     0.90942   0.75000   0.21956   0.00000  Uiso   1.00
O545   O     0.75725   0.74999   0.20097   0.00000  Uiso   1.00
O546   O     0.90942   0.75000   0.29904   0.00000  Uiso   1.00
Zn547  Zn    0.83333   0.75000   0.30307   0.00000  Uiso   1.00
Zn548  Zn    0.83333   0.74999   0.19693   0.00000  Uiso   1.00
Cl549  Cl    0.72772   0.62063   0.26222   0.00000  Uiso   1.00
Cl550  Cl    0.82862   0.88869   0.15070   0.00000  Uiso   1.00
O551   O     0.92033   0.61790   0.22778   0.00000  Uiso   1.00
C552   C     0.91881   0.61390   0.17790   0.00000  Uiso   1.00
H553   H     0.87807   0.61572   0.15851   0.00000  Uiso   1.00
H554   H     0.93620   0.58178   0.16920   0.00000  Uiso   1.00
C555   C     0.95069   0.65166   0.15928   0.00000  Uiso   1.00
H556   H     0.99114   0.65266   0.17870   0.00000  Uiso   1.00
H557   H     0.95288   0.64664   0.12090   0.00000  Uiso   1.00
H558   H     0.93136   0.68384   0.16371   0.00000  Uiso   1.00
O559   O     0.80524   0.88270   0.33151   0.00000  Uiso   1.00
C560   C     0.75007   0.87657   0.32649   0.00000  Uiso   1.00
H561   H     0.73465   0.86089   0.29177   0.00000  Uiso   1.00
H562   H     0.73051   0.90913   0.32941   0.00000  Uiso   1.00
C563   C     0.73564   0.84591   0.36578   0.00000  Uiso   1.00
H564   H     0.69223   0.84308   0.36367   0.00000  Uiso   1.00
H565   H     0.75143   0.81215   0.36165   0.00000  Uiso   1.00
H566   H     0.75198   0.85945   0.40111   0.00000  Uiso   1.00
Cl567  Cl    0.93879   0.51956   0.24384   0.00000  Uiso   1.00
Cl568  Cl    0.81983   0.97886   0.35087   0.00000  Uiso   1.00
O569   O     0.92313   0.77420   0.13568   0.00000  Uiso   1.00
C570   C     0.93238   0.82086   0.13405   0.00000  Uiso   1.00
H571   H     0.92209   0.83576   0.16723   0.00000  Uiso   1.00
H572   H     0.90950   0.83826   0.10328   0.00000  Uiso   1.00
C573   C     0.99045   0.83025   0.13188   0.00000  Uiso   1.00
H574   H     0.66937   0.81452   0.09991   0.00000  Uiso   1.00
H575   H     0.99760   0.86682   0.13003   0.00000  Uiso   1.00
H576   H     0.68128   0.81707   0.16407   0.00000  Uiso   1.00
O577   O     0.78377   0.68201   0.36800   0.00000  Uiso   1.00
C578   C     0.72841   0.68361   0.36668   0.00000  Uiso   1.00
H579   H     0.71108   0.68977   0.32945   0.00000  Uiso   1.00
H580   H     0.71404   0.71046   0.38862   0.00000  Uiso   1.00
C581   C     0.70701   0.63873   0.38169   0.00000  Uiso   1.00
H582   H     0.71640   0.63384   0.42056   0.00000  Uiso   1.00
H583   H     0.99695   0.63758   0.37240   0.00000  Uiso   1.00
H584   H     0.72410   0.61105   0.36333   0.00000  Uiso   1.00
O585   O     0.92439   0.76958   0.03827   0.00000  Uiso   1.00
C586   C     0.95427   0.73014   0.04033   0.00000  Uiso   1.00
H587   H     0.93301   0.69934   0.05013   0.00000  Uiso   1.00
H588   H     0.98943   0.73464   0.06733   0.00000  Uiso   1.00
C589   C     0.97228   0.72230   0.49213   0.00000  Uiso   1.00
H590   H     0.99436   0.75199   0.48137   0.00000  Uiso   1.00
H591   H     0.99809   0.69281   0.49404   0.00000  Uiso   1.00
H592   H     0.93779   0.71598   0.46488   0.00000  Uiso   1.00
O593   O     0.78830   0.67942   0.46719   0.00000  Uiso   1.00
C594   C     0.82733   0.64669   0.47601   0.00000  Uiso   1.00
H595   H     0.86494   0.66096   0.49437   0.00000  Uiso   1.00
H596   H     0.83458   0.63099   0.44210   0.00000  Uiso   1.00
C597   C     0.80863   0.61073   0.00811   0.00000  Uiso   1.00
H598   H     0.77167   0.59491   0.49070   0.00000  Uiso   1.00
H599   H     0.83903   0.58476   0.01533   0.00000  Uiso   1.00
H600   H     0.80149   0.62563   0.04237   0.00000  Uiso   1.00
C601   C     0.16652   0.16417   0.75001   0.00000  Uiso   1.00
C602   C     0.16408   0.33634   0.74960   0.00000  Uiso   1.00
C603   C     0.11976   0.24085   0.54726   0.00000  Uiso   1.00
C604   C     0.18793   0.28663   0.94944   0.00000  Uiso   1.00
C605   C     0.12164   0.23935   0.59704   0.00000  Uiso   1.00
C606   C     0.18960   0.28466   0.90016   0.00000  Uiso   1.00
C607   C     0.21080   0.26277   0.60670   0.00000  Uiso   1.00
C608   C     0.14123   0.21653   0.89521   0.00000  Uiso   1.00
C609   C     0.21138   0.26145   0.55686   0.00000  Uiso   1.00
C610   C     0.14243   0.21560   0.94537   0.00000  Uiso   1.00
C611   C     0.16490   0.25203   0.52627   0.00000  Uiso   1.00
C612   C     0.16432   0.25182   0.97299   0.00000  Uiso   1.00
C613   C     0.06716   0.24959   0.73782   0.00000  Uiso   1.00
C614   C     0.26622   0.25068   0.76224   0.00000  Uiso   1.00
C615   C     0.01240   0.24766   0.73140   0.00000  Uiso   1.00
C616   C     0.32106   0.25316   0.76886   0.00000  Uiso   1.00
C617   C     0.12135   0.04752   0.76151   0.00000  Uiso   1.00
C618   C     0.16630   0.45650   0.71193   0.00000  Uiso   1.00
C619   C     0.12061   0.09343   0.75879   0.00000  Uiso   1.00
C620   C     0.16317   0.41063   0.70837   0.00000  Uiso   1.00
C621   C     0.16609   0.11660   0.75008   0.00000  Uiso   1.00
C622   C     0.15913   0.38484   0.74966   0.00000  Uiso   1.00
C623   C     0.21139   0.09421   0.74146   0.00000  Uiso   1.00
C624   C     0.15107   0.40645   0.79246   0.00000  Uiso   1.00
C625   C     0.21304   0.04802   0.74726   0.00000  Uiso   1.00
C626   C     0.15654   0.45256   0.79583   0.00000  Uiso   1.00
C627   C     0.16745   0.02505   0.75661   0.00000  Uiso   1.00
C628   C     0.16499   0.47711   0.75553   0.00000  Uiso   1.00
H629   H     0.32595   0.24111   0.69590   0.00000  Uiso   1.00
H630   H     0.00768   0.25994   0.80442   0.00000  Uiso   1.00
H631   H     0.08583   0.02917   0.76671   0.00000  Uiso   1.00
H632   H     0.16972   0.47645   0.68045   0.00000  Uiso   1.00
H633   H     0.08314   0.23313   0.52526   0.00000  Uiso   1.00
H634   H     0.20537   0.31520   0.96909   0.00000  Uiso   1.00
H635   H     0.08658   0.23006   0.61221   0.00000  Uiso   1.00
H636   H     0.20856   0.31143   0.88285   0.00000  Uiso   1.00
N637   N     0.16667   0.24999   0.62624   0.00000  Uiso   1.00
N638   N     0.16667   0.25001   0.87377   0.00000  Uiso   1.00
O639   O     0.16667   0.18453   0.78974   0.00000  Uiso   1.00
O640   O     0.16666   0.31546   0.71026   0.00000  Uiso   1.00
O641   O     0.16667   0.18453   0.71026   0.00000  Uiso   1.00
O642   O     0.16666   0.31547   0.78974   0.00000  Uiso   1.00
O643   O     0.09058   0.25000   0.78045   0.00000  Uiso   1.00
O644   O     0.24275   0.25000   0.71956   0.00000  Uiso   1.00
O645   O     0.09058   0.24999   0.70097   0.00000  Uiso   1.00
O646   O     0.24275   0.25000   0.79904   0.00000  Uiso   1.00
Zn647  Zn    0.16667   0.25000   0.80307   0.00000  Uiso   1.00
Zn648  Zn    0.16667   0.24999   0.69693   0.00000  Uiso   1.00
Cl649  Cl    0.06106   0.12063   0.76222   0.00000  Uiso   1.00
Cl650  Cl    0.16195   0.38869   0.65070   0.00000  Uiso   1.00
O651   O     0.25366   0.11790   0.72778   0.00000  Uiso   1.00
C652   C     0.25214   0.11390   0.67790   0.00000  Uiso   1.00
H653   H     0.21140   0.11572   0.65851   0.00000  Uiso   1.00
H654   H     0.26953   0.08178   0.66920   0.00000  Uiso   1.00
C655   C     0.28403   0.15166   0.65928   0.00000  Uiso   1.00
H656   H     0.32448   0.15266   0.67870   0.00000  Uiso   1.00
H657   H     0.28622   0.14664   0.62090   0.00000  Uiso   1.00
H658   H     0.26470   0.18384   0.66371   0.00000  Uiso   1.00
O659   O     0.13858   0.38270   0.83151   0.00000  Uiso   1.00
C660   C     0.08340   0.37657   0.82649   0.00000  Uiso   1.00
H661   H     0.06799   0.36089   0.79177   0.00000  Uiso   1.00
H662   H     0.06384   0.40913   0.82941   0.00000  Uiso   1.00
C663   C     0.06897   0.34591   0.86578   0.00000  Uiso   1.00
H664   H     0.02556   0.34308   0.86367   0.00000  Uiso   1.00
H665   H     0.08476   0.31215   0.86165   0.00000  Uiso   1.00
H666   H     0.08531   0.35945   0.90111   0.00000  Uiso   1.00
Cl667  Cl    0.27212   0.01956   0.74384   0.00000  Uiso   1.00
Cl668  Cl    0.15316   0.47886   0.85087   0.00000  Uiso   1.00
O669   O     0.25647   0.27420   0.63568   0.00000  Uiso   1.00
C670   C     0.26572   0.32086   0.63405   0.00000  Uiso   1.00
H671   H     0.25542   0.33576   0.66723   0.00000  Uiso   1.00
H672   H     0.24284   0.33826   0.60328   0.00000  Uiso   1.00
C673   C     0.32379   0.33025   0.63188   0.00000  Uiso   1.00
H674   H     0.00270   0.31452   0.59991   0.00000  Uiso   1.00
H675   H     0.33094   0.36682   0.63003   0.00000  Uiso   1.00
H676   H     0.01461   0.31707   0.66407   0.00000  Uiso   1.00
O677   O     0.11710   0.18201   0.86800   0.00000  Uiso   1.00
C678   C     0.06175   0.18361   0.86668   0.00000  Uiso   1.00
H679   H     0.04441   0.18977   0.82945   0.00000  Uiso   1.00
H680   H     0.04737   0.21046   0.88862   0.00000  Uiso   1.00
C681   C     0.04034   0.13873   0.88169   0.00000  Uiso   1.00
H682   H     0.04973   0.13384   0.92056   0.00000  Uiso   1.00
H683   H     0.33028   0.13758   0.87240   0.00000  Uiso   1.00
H684   H     0.05743   0.11105   0.86333   0.00000  Uiso   1.00
O685   O     0.25773   0.26958   0.53827   0.00000  Uiso   1.00
C686   C     0.28760   0.23014   0.54033   0.00000  Uiso   1.00
H687   H     0.26635   0.19934   0.55013   0.00000  Uiso   1.00
H688   H     0.32276   0.23464   0.56733   0.00000  Uiso   1.00
C689   C     0.30561   0.22230   0.99213   0.00000  Uiso   1.00
H690   H     0.32769   0.25199   0.98137   0.00000  Uiso   1.00
H691   H     0.33143   0.19281   0.99404   0.00000  Uiso   1.00
H692   H     0.27112   0.21598   0.96488   0.00000  Uiso   1.00
O693   O     0.12163   0.17942   0.96719   0.00000  Uiso   1.00
C694   C     0.16066   0.14669   0.97601   0.00000  Uiso   1.00
H695   H     0.19828   0.16096   0.99437   0.00000  Uiso   1.00
H696   H     0.16791   0.13099   0.94210   0.00000  Uiso   1.00
C697   C     0.14196   0.11073   0.50811   0.00000  Uiso   1.00
H698   H     0.10500   0.09491   0.99070   0.00000  Uiso   1.00
H699   H     0.17236   0.08476   0.51533   0.00000  Uiso   1.00
H700   H     0.13482   0.12563   0.54237   0.00000  Uiso   1.00
C701   C     0.49986   0.16417   0.75001   0.00000  Uiso   1.00
C702   C     0.49741   0.33634   0.74960   0.00000  Uiso   1.00
C703   C     0.45310   0.24085   0.54726   0.00000  Uiso   1.00
C704   C     0.52126   0.28663   0.94944   0.00000  Uiso   1.00
C705   C     0.45497   0.23935   0.59704   0.00000  Uiso   1.00
C706   C     0.52293   0.28466   0.90016   0.00000  Uiso   1.00
C707   C     0.54413   0.26277   0.60670   0.00000  Uiso   1.00
C708   C     0.47457   0.21653   0.89521   0.00000  Uiso   1.00
C709   C     0.54471   0.26145   0.55686   0.00000  Uiso   1.00
C710   C     0.47576   0.21560   0.94537   0.00000  Uiso   1.00
C711   C     0.49823   0.25203   0.52627   0.00000  Uiso   1.00
C712   C     0.49765   0.25182   0.97299   0.00000  Uiso   1.00
C713   C     0.40049   0.24959   0.73782   0.00000  Uiso   1.00
C714   C     0.59955   0.25068   0.76224   0.00000  Uiso   1.00
C715   C     0.34573   0.24766   0.73140   0.00000  Uiso   1.00
C716   C     0.65440   0.25316   0.76886   0.00000  Uiso   1.00
C717   C     0.45469   0.04752   0.76151   0.00000  Uiso   1.00
C718   C     0.49963   0.45650   0.71193   0.00000  Uiso   1.00
C719   C     0.45395   0.09343   0.75879   0.00000  Uiso   1.00
C720   C     0.49651   0.41063   0.70837   0.00000  Uiso   1.00
C721   C     0.49942   0.11660   0.75008   0.00000  Uiso   1.00
C722   C     0.49247   0.38484   0.74966   0.00000  Uiso   1.00
C723   C     0.54472   0.09421   0.74146   0.00000  Uiso   1.00
C724   C     0.48441   0.40645   0.79246   0.00000  Uiso   1.00
C725   C     0.54638   0.04802   0.74726   0.00000  Uiso   1.00
C726   C     0.48987   0.45256   0.79583   0.00000  Uiso   1.00
C727   C     0.50079   0.02505   0.75661   0.00000  Uiso   1.00
C728   C     0.49832   0.47711   0.75553   0.00000  Uiso   1.00
H729   H     0.65929   0.24111   0.69590   0.00000  Uiso   1.00
H730   H     0.34101   0.25994   0.80442   0.00000  Uiso   1.00
H731   H     0.41916   0.02917   0.76671   0.00000  Uiso   1.00
H732   H     0.50305   0.47645   0.68045   0.00000  Uiso   1.00
H733   H     0.41647   0.23313   0.52526   0.00000  Uiso   1.00
H734   H     0.53871   0.31520   0.96909   0.00000  Uiso   1.00
H735   H     0.41991   0.23006   0.61221   0.00000  Uiso   1.00
H736   H     0.54190   0.31143   0.88285   0.00000  Uiso   1.00
N737   N     0.50000   0.24999   0.62624   0.00000  Uiso   1.00
N738   N     0.50000   0.25001   0.87377   0.00000  Uiso   1.00
O739   O     0.50000   0.18453   0.78974   0.00000  Uiso   1.00
O740   O     0.50000   0.31546   0.71026   0.00000  Uiso   1.00
O741   O     0.50000   0.18453   0.71026   0.00000  Uiso   1.00
O742   O     0.50000   0.31547   0.78974   0.00000  Uiso   1.00
O743   O     0.42392   0.25000   0.78045   0.00000  Uiso   1.00
O744   O     0.57608   0.25000   0.71956   0.00000  Uiso   1.00
O745   O     0.42392   0.24999   0.70097   0.00000  Uiso   1.00
O746   O     0.57608   0.25000   0.79904   0.00000  Uiso   1.00
Zn747  Zn    0.50000   0.25000   0.80307   0.00000  Uiso   1.00
Zn748  Zn    0.50000   0.24999   0.69693   0.00000  Uiso   1.00
Cl749  Cl    0.39439   0.12063   0.76222   0.00000  Uiso   1.00
Cl750  Cl    0.49529   0.38869   0.65070   0.00000  Uiso   1.00
O751   O     0.58700   0.11790   0.72778   0.00000  Uiso   1.00
C752   C     0.58547   0.11390   0.67790   0.00000  Uiso   1.00
H753   H     0.54473   0.11572   0.65851   0.00000  Uiso   1.00
H754   H     0.60286   0.08178   0.66920   0.00000  Uiso   1.00
C755   C     0.61736   0.15166   0.65928   0.00000  Uiso   1.00
H756   H     0.65781   0.15266   0.67870   0.00000  Uiso   1.00
H757   H     0.61955   0.14664   0.62090   0.00000  Uiso   1.00
H758   H     0.59803   0.18384   0.66371   0.00000  Uiso   1.00
O759   O     0.47191   0.38270   0.83151   0.00000  Uiso   1.00
C760   C     0.41674   0.37657   0.82649   0.00000  Uiso   1.00
H761   H     0.40132   0.36089   0.79177   0.00000  Uiso   1.00
H762   H     0.39717   0.40913   0.82941   0.00000  Uiso   1.00
C763   C     0.40230   0.34591   0.86578   0.00000  Uiso   1.00
H764   H     0.35890   0.34308   0.86367   0.00000  Uiso   1.00
H765   H     0.41810   0.31215   0.86165   0.00000  Uiso   1.00
H766   H     0.41865   0.35945   0.90111   0.00000  Uiso   1.00
Cl767  Cl    0.60546   0.01956   0.74384   0.00000  Uiso   1.00
Cl768  Cl    0.48649   0.47886   0.85087   0.00000  Uiso   1.00
O769   O     0.58980   0.27420   0.63568   0.00000  Uiso   1.00
C770   C     0.59905   0.32086   0.63405   0.00000  Uiso   1.00
H771   H     0.58876   0.33576   0.66723   0.00000  Uiso   1.00
H772   H     0.57617   0.33826   0.60328   0.00000  Uiso   1.00
C773   C     0.65712   0.33025   0.63188   0.00000  Uiso   1.00
H774   H     0.33604   0.31452   0.59991   0.00000  Uiso   1.00
H775   H     0.66427   0.36682   0.63003   0.00000  Uiso   1.00
H776   H     0.34795   0.31707   0.66407   0.00000  Uiso   1.00
O777   O     0.45043   0.18201   0.86800   0.00000  Uiso   1.00
C778   C     0.39508   0.18361   0.86668   0.00000  Uiso   1.00
H779   H     0.37774   0.18977   0.82945   0.00000  Uiso   1.00
H780   H     0.38071   0.21046   0.88862   0.00000  Uiso   1.00
C781   C     0.37368   0.13873   0.88169   0.00000  Uiso   1.00
H782   H     0.38307   0.13384   0.92056   0.00000  Uiso   1.00
H783   H     0.66362   0.13758   0.87240   0.00000  Uiso   1.00
H784   H     0.39077   0.11105   0.86333   0.00000  Uiso   1.00
O785   O     0.59106   0.26958   0.53827   0.00000  Uiso   1.00
C786   C     0.62094   0.23014   0.54033   0.00000  Uiso   1.00
H787   H     0.59968   0.19934   0.55013   0.00000  Uiso   1.00
H788   H     0.65610   0.23464   0.56733   0.00000  Uiso   1.00
C789   C     0.63894   0.22230   0.99213   0.00000  Uiso   1.00
H790   H     0.66102   0.25199   0.98137   0.00000  Uiso   1.00
H791   H     0.66476   0.19281   0.99404   0.00000  Uiso   1.00
H792   H     0.60446   0.21598   0.96488   0.00000  Uiso   1.00
O793   O     0.45496   0.17942   0.96719   0.00000  Uiso   1.00
C794   C     0.49400   0.14669   0.97601   0.00000  Uiso   1.00
H795   H     0.53161   0.16096   0.99437   0.00000  Uiso   1.00
H796   H     0.50124   0.13099   0.94210   0.00000  Uiso   1.00
C797   C     0.47530   0.11073   0.50811   0.00000  Uiso   1.00
H798   H     0.43834   0.09491   0.99070   0.00000  Uiso   1.00
H799   H     0.50569   0.08476   0.51533   0.00000  Uiso   1.00
H800   H     0.46816   0.12563   0.54237   0.00000  Uiso   1.00
C801   C     0.83319   0.16417   0.75001   0.00000  Uiso   1.00
C802   C     0.83075   0.33634   0.74960   0.00000  Uiso   1.00
C803   C     0.78643   0.24085   0.54726   0.00000  Uiso   1.00
C804   C     0.85460   0.28663   0.94944   0.00000  Uiso   1.00
C805   C     0.78830   0.23935   0.59704   0.00000  Uiso   1.00
C806   C     0.85626   0.28466   0.90016   0.00000  Uiso   1.00
C807   C     0.87747   0.26277   0.60670   0.00000  Uiso   1.00
C808   C     0.80790   0.21653   0.89521   0.00000  Uiso   1.00
C809   C     0.87805   0.26145   0.55686   0.00000  Uiso   1.00
C810   C     0.80910   0.21560   0.94537   0.00000  Uiso   1.00
C811   C     0.83156   0.25203   0.52627   0.00000  Uiso   1.00
C812   C     0.83099   0.25182   0.97299   0.00000  Uiso   1.00
C813   C     0.73383   0.24959   0.73782   0.00000  Uiso   1.00
C814   C     0.93288   0.25068   0.76224   0.00000  Uiso   1.00
C815   C     0.67907   0.24766   0.73140   0.00000  Uiso   1.00
C816   C     0.98773   0.25316   0.76886   0.00000  Uiso   1.00
C817   C     0.78802   0.04752   0.76151   0.00000  Uiso   1.00
C818   C     0.83297   0.45650   0.71193   0.00000  Uiso   1.00
C819   C     0.78728   0.09343   0.75879   0.00000  Uiso   1.00
C820   C     0.82984   0.41063   0.70837   0.00000  Uiso   1.00
C821   C     0.83275   0.11660   0.75008   0.00000  Uiso   1.00
C822   C     0.82580   0.38484   0.74966   0.00000  Uiso   1.00
C823   C     0.87805   0.09421   0.74146   0.00000  Uiso   1.00
C824   C     0.81774   0.40645   0.79246   0.00000  Uiso   1.00
C825   C     0.87971   0.04802   0.74726   0.00000  Uiso   1.00
C826   C     0.82321   0.45256   0.79583   0.00000  Uiso   1.00
C827   C     0.83412   0.02505   0.75661   0.00000  Uiso   1.00
C828   C     0.83165   0.47711   0.75553   0.00000  Uiso   1.00
H829   H     0.99262   0.24111   0.69590   0.00000  Uiso   1.00
H830   H     0.67434   0.25994   0.80442   0.00000  Uiso   1.00
H831   H     0.75249   0.02917   0.76671   0.00000  Uiso   1.00
H832   H     0.83639   0.47645   0.68045   0.00000  Uiso   1.00
H833   H     0.74981   0.23313   0.52526   0.00000  Uiso   1.00
H834   H     0.87204   0.31520   0.96909   0.00000  Uiso   1.00
H835   H     0.75325   0.23006   0.61221   0.00000  Uiso   1.00
H836   H     0.87523   0.31143   0.88285   0.00000  Uiso   1.00
N837   N     0.83333   0.24999   0.62624   0.00000  Uiso   1.00
N838   N     0.83333   0.25001   0.87377   0.00000  Uiso   1.00
O839   O     0.83334   0.18453   0.78974   0.00000  Uiso   1.00
O840   O     0.83333   0.31546   0.71026   0.00000  Uiso   1.00
O841   O     0.83334   0.18453   0.71026   0.00000  Uiso   1.00
O842   O     0.83333   0.31547   0.78974   0.00000  Uiso   1.00
O843   O     0.75725   0.25000   0.78045   0.00000  Uiso   1.00
O844   O     0.90942   0.25000   0.71956   0.00000  Uiso   1.00
O845   O     0.75725   0.24999   0.70097   0.00000  Uiso   1.00
O846   O     0.90942   0.25000   0.79904   0.00000  Uiso   1.00
Zn847  Zn    0.83333   0.25000   0.80307   0.00000  Uiso   1.00
Zn848  Zn    0.83333   0.24999   0.69693   0.00000  Uiso   1.00
Cl849  Cl    0.72772   0.12063   0.76222   0.00000  Uiso   1.00
Cl850  Cl    0.82862   0.38869   0.65070   0.00000  Uiso   1.00
O851   O     0.92033   0.11790   0.72778   0.00000  Uiso   1.00
C852   C     0.91881   0.11390   0.67790   0.00000  Uiso   1.00
H853   H     0.87807   0.11572   0.65851   0.00000  Uiso   1.00
H854   H     0.93620   0.08178   0.66920   0.00000  Uiso   1.00
C855   C     0.95069   0.15166   0.65928   0.00000  Uiso   1.00
H856   H     0.99114   0.15266   0.67870   0.00000  Uiso   1.00
H857   H     0.95288   0.14664   0.62090   0.00000  Uiso   1.00
H858   H     0.93136   0.18384   0.66371   0.00000  Uiso   1.00
O859   O     0.80524   0.38270   0.83151   0.00000  Uiso   1.00
C860   C     0.75007   0.37657   0.82649   0.00000  Uiso   1.00
H861   H     0.73465   0.36089   0.79177   0.00000  Uiso   1.00
H862   H     0.73051   0.40913   0.82941   0.00000  Uiso   1.00
C863   C     0.73564   0.34591   0.86578   0.00000  Uiso   1.00
H864   H     0.69223   0.34308   0.86367   0.00000  Uiso   1.00
H865   H     0.75143   0.31215   0.86165   0.00000  Uiso   1.00
H866   H     0.75198   0.35945   0.90111   0.00000  Uiso   1.00
Cl867  Cl    0.93879   0.01956   0.74384   0.00000  Uiso   1.00
Cl868  Cl    0.81983   0.47886   0.85087   0.00000  Uiso   1.00
O869   O     0.92313   0.27420   0.63568   0.00000  Uiso   1.00
C870   C     0.93238   0.32086   0.63405   0.00000  Uiso   1.00
H871   H     0.92209   0.33576   0.66723   0.00000  Uiso   1.00
H872   H     0.90950   0.33826   0.60328   0.00000  Uiso   1.00
C873   C     0.99045   0.33025   0.63188   0.00000  Uiso   1.00
H874   H     0.66937   0.31452   0.59991   0.00000  Uiso   1.00
H875   H     0.99760   0.36682   0.63003   0.00000  Uiso   1.00
H876   H     0.68128   0.31707   0.66407   0.00000  Uiso   1.00
O877   O     0.78377   0.18201   0.86800   0.00000  Uiso   1.00
C878   C     0.72841   0.18361   0.86668   0.00000  Uiso   1.00
H879   H     0.71108   0.18977   0.82945   0.00000  Uiso   1.00
H880   H     0.71404   0.21046   0.88862   0.00000  Uiso   1.00
C881   C     0.70701   0.13873   0.88169   0.00000  Uiso   1.00
H882   H     0.71640   0.13384   0.92056   0.00000  Uiso   1.00
H883   H     0.99695   0.13758   0.87240   0.00000  Uiso   1.00
H884   H     0.72410   0.11105   0.86333   0.00000  Uiso   1.00
O885   O     0.92439   0.26958   0.53827   0.00000  Uiso   1.00
C886   C     0.95427   0.23014   0.54033   0.00000  Uiso   1.00
H887   H     0.93301   0.19934   0.55013   0.00000  Uiso   1.00
H888   H     0.98943   0.23464   0.56733   0.00000  Uiso   1.00
C889   C     0.97228   0.22230   0.99213   0.00000  Uiso   1.00
H890   H     0.99436   0.25199   0.98137   0.00000  Uiso   1.00
H891   H     0.99809   0.19281   0.99404   0.00000  Uiso   1.00
H892   H     0.93779   0.21598   0.96488   0.00000  Uiso   1.00
O893   O     0.78830   0.17942   0.96719   0.00000  Uiso   1.00
C894   C     0.82733   0.14669   0.97601   0.00000  Uiso   1.00
H895   H     0.86494   0.16096   0.99437   0.00000  Uiso   1.00
H896   H     0.83458   0.13099   0.94210   0.00000  Uiso   1.00
C897   C     0.80863   0.11073   0.50811   0.00000  Uiso   1.00
H898   H     0.77167   0.09491   0.99070   0.00000  Uiso   1.00
H899   H     0.83903   0.08476   0.51533   0.00000  Uiso   1.00
H900   H     0.80149   0.12563   0.54237   0.00000  Uiso   1.00
C901   C     0.16652   0.66417   0.75001   0.00000  Uiso   1.00
C902   C     0.16408   0.83634   0.74960   0.00000  Uiso   1.00
C903   C     0.11976   0.74085   0.54726   0.00000  Uiso   1.00
C904   C     0.18793   0.78663   0.94944   0.00000  Uiso   1.00
C905   C     0.12164   0.73935   0.59704   0.00000  Uiso   1.00
C906   C     0.18960   0.78466   0.90016   0.00000  Uiso   1.00
C907   C     0.21080   0.76277   0.60670   0.00000  Uiso   1.00
C908   C     0.14123   0.71653   0.89521   0.00000  Uiso   1.00
C909   C     0.21138   0.76145   0.55686   0.00000  Uiso   1.00
C910   C     0.14243   0.71560   0.94537   0.00000  Uiso   1.00
C911   C     0.16490   0.75203   0.52627   0.00000  Uiso   1.00
C912   C     0.16432   0.75182   0.97299   0.00000  Uiso   1.00
C913   C     0.06716   0.74959   0.73782   0.00000  Uiso   1.00
C914   C     0.26622   0.75068   0.76224   0.00000  Uiso   1.00
C915   C     0.01240   0.74766   0.73140   0.00000  Uiso   1.00
C916   C     0.32106   0.75316   0.76886   0.00000  Uiso   1.00
C917   C     0.12135   0.54752   0.76151   0.00000  Uiso   1.00
C918   C     0.16630   0.95650   0.71193   0.00000  Uiso   1.00
C919   C     0.12061   0.59343   0.75879   0.00000  Uiso   1.00
C920   C     0.16317   0.91063   0.70837   0.00000  Uiso   1.00
C921   C     0.16609   0.61660   0.75008   0.00000  Uiso   1.00
C922   C     0.15913   0.88484   0.74966   0.00000  Uiso   1.00
C923   C     0.21139   0.59421   0.74146   0.00000  Uiso   1.00
C924   C     0.15107   0.90645   0.79246   0.00000  Uiso   1.00
C925   C     0.21304   0.54802   0.74726   0.00000  Uiso   1.00
C926   C     0.15654   0.95256   0.79583   0.00000  Uiso   1.00
C927   C     0.16745   0.52505   0.75661   0.00000  Uiso   1.00
C928   C     0.16499   0.97711   0.75553   0.00000  Uiso   1.00
H929   H     0.32595   0.74111   0.69590   0.00000  Uiso   1.00
H930   H     0.00768   0.75994   0.80442   0.00000  Uiso   1.00
H931   H     0.08583   0.52917   0.76671   0.00000  Uiso   1.00
H932   H     0.16972   0.97645   0.68045   0.00000  Uiso   1.00
H933   H     0.08314   0.73313   0.52526   0.00000  Uiso   1.00
H934   H     0.20537   0.81520   0.96909   0.00000  Uiso   1.00
H935   H     0.08658   0.73006   0.61221   0.00000  Uiso   1.00
H936   H     0.20856   0.81143   0.88285   0.00000  Uiso   1.00
N937   N     0.16667   0.74999   0.62624   0.00000  Uiso   1.00
N938   N     0.16667   0.75001   0.87377   0.00000  Uiso   1.00
O939   O     0.16667   0.68453   0.78974   0.00000  Uiso   1.00
O940   O     0.16666   0.81546   0.71026   0.00000  Uiso   1.00
O941   O     0.16667   0.68453   0.71026   0.00000  Uiso   1.00
O942   O     0.16666   0.81547   0.78974   0.00000  Uiso   1.00
O943   O     0.09058   0.75000   0.78045   0.00000  Uiso   1.00
O944   O     0.24275   0.75000   0.71956   0.00000  Uiso   1.00
O945   O     0.09058   0.74999   0.70097   0.00000  Uiso   1.00
O946   O     0.24275   0.75000   0.79904   0.00000  Uiso   1.00
Zn947  Zn    0.16667   0.75000   0.80307   0.00000  Uiso   1.00
Zn948  Zn    0.16667   0.74999   0.69693   0.00000  Uiso   1.00
Cl949  Cl    0.06106   0.62063   0.76222   0.00000  Uiso   1.00
Cl950  Cl    0.16195   0.88869   0.65070   0.00000  Uiso   1.00
O951   O     0.25366   0.61790   0.72778   0.00000  Uiso   1.00
C952   C     0.25214   0.61390   0.67790   0.00000  Uiso   1.00
H953   H     0.21140   0.61572   0.65851   0.00000  Uiso   1.00
H954   H     0.26953   0.58178   0.66920   0.00000  Uiso   1.00
C955   C     0.28403   0.65166   0.65928   0.00000  Uiso   1.00
H956   H     0.32448   0.65266   0.67870   0.00000  Uiso   1.00
H957   H     0.28622   0.64664   0.62090   0.00000  Uiso   1.00
H958   H     0.26470   0.68384   0.66371   0.00000  Uiso   1.00
O959   O     0.13858   0.88270   0.83151   0.00000  Uiso   1.00
C960   C     0.08340   0.87657   0.82649   0.00000  Uiso   1.00
H961   H     0.06799   0.86089   0.79177   0.00000  Uiso   1.00
H962   H     0.06384   0.90913   0.82941   0.00000  Uiso   1.00
C963   C     0.06897   0.84591   0.86578   0.00000  Uiso   1.00
H964   H     0.02556   0.84308   0.86367   0.00000  Uiso   1.00
H965   H     0.08476   0.81215   0.86165   0.00000  Uiso   1.00
H966   H     0.08531   0.85945   0.90111   0.00000  Uiso   1.00
Cl967  Cl    0.27212   0.51956   0.74384   0.00000  Uiso   1.00
Cl968  Cl    0.15316   0.97886   0.85087   0.00000  Uiso   1.00
O969   O     0.25647   0.77420   0.63568   0.00000  Uiso   1.00
C970   C     0.26572   0.82086   0.63405   0.00000  Uiso   1.00
H971   H     0.25542   0.83576   0.66723   0.00000  Uiso   1.00
H972   H     0.24284   0.83826   0.60328   0.00000  Uiso   1.00
C973   C     0.32379   0.83025   0.63188   0.00000  Uiso   1.00
H974   H     0.00270   0.81452   0.59991   0.00000  Uiso   1.00
H975   H     0.33094   0.86682   0.63003   0.00000  Uiso   1.00
H976   H     0.01461   0.81707   0.66407   0.00000  Uiso   1.00
O977   O     0.11710   0.68201   0.86800   0.00000  Uiso   1.00
C978   C     0.06175   0.68361   0.86668   0.00000  Uiso   1.00
H979   H     0.04441   0.68977   0.82945   0.00000  Uiso   1.00
H980   H     0.04737   0.71046   0.88862   0.00000  Uiso   1.00
C981   C     0.04034   0.63873   0.88169   0.00000  Uiso   1.00
H982   H     0.04973   0.63384   0.92056   0.00000  Uiso   1.00
H983   H     0.33028   0.63758   0.87240   0.00000  Uiso   1.00
H984   H     0.05743   0.61105   0.86333   0.00000  Uiso   1.00
O985   O     0.25773   0.76958   0.53827   0.00000  Uiso   1.00
C986   C     0.28760   0.73014   0.54033   0.00000  Uiso   1.00
H987   H     0.26635   0.69934   0.55013   0.00000  Uiso   1.00
H988   H     0.32276   0.73464   0.56733   0.00000  Uiso   1.00
C989   C     0.30561   0.72230   0.99213   0.00000  Uiso   1.00
H990   H     0.32769   0.75199   0.98137   0.00000  Uiso   1.00
H991   H     0.33143   0.69281   0.99404   0.00000  Uiso   1.00
H992   H     0.27112   0.71598   0.96488   0.00000  Uiso   1.00
O993   O     0.12163   0.67942   0.96719   0.00000  Uiso   1.00
C994   C     0.16066   0.64669   0.97601   0.00000  Uiso   1.00
H995   H     0.19828   0.66096   0.99437   0.00000  Uiso   1.00
H996   H     0.16791   0.63099   0.94210   0.00000  Uiso   1.00
C997   C     0.14196   0.61073   0.50811   0.00000  Uiso   1.00
H998   H     0.10500   0.59491   0.99070   0.00000  Uiso   1.00
H999   H     0.17236   0.58476   0.51533   0.00000  Uiso   1.00
H1000  H     0.13482   0.62563   0.54237   0.00000  Uiso   1.00
C1001  C     0.49986   0.66417   0.75001   0.00000  Uiso   1.00
C1002  C     0.49741   0.83634   0.74960   0.00000  Uiso   1.00
C1003  C     0.45310   0.74085   0.54726   0.00000  Uiso   1.00
C1004  C     0.52126   0.78663   0.94944   0.00000  Uiso   1.00
C1005  C     0.45497   0.73935   0.59704   0.00000  Uiso   1.00
C1006  C     0.52293   0.78466   0.90016   0.00000  Uiso   1.00
C1007  C     0.54413   0.76277   0.60670   0.00000  Uiso   1.00
C1008  C     0.47457   0.71653   0.89521   0.00000  Uiso   1.00
C1009  C     0.54471   0.76145   0.55686   0.00000  Uiso   1.00
C1010  C     0.47576   0.71560   0.94537   0.00000  Uiso   1.00
C1011  C     0.49823   0.75203   0.52627   0.00000  Uiso   1.00
C1012  C     0.49765   0.75182   0.97299   0.00000  Uiso   1.00
C1013  C     0.40049   0.74959   0.73782   0.00000  Uiso   1.00
C1014  C     0.59955   0.75068   0.76224   0.00000  Uiso   1.00
C1015  C     0.34573   0.74766   0.73140   0.00000  Uiso   1.00
C1016  C     0.65440   0.75316   0.76886   0.00000  Uiso   1.00
C1017  C     0.45469   0.54752   0.76151   0.00000  Uiso   1.00
C1018  C     0.49963   0.95650   0.71193   0.00000  Uiso   1.00
C1019  C     0.45395   0.59343   0.75879   0.00000  Uiso   1.00
C1020  C     0.49651   0.91063   0.70837   0.00000  Uiso   1.00
C1021  C     0.49942   0.61660   0.75008   0.00000  Uiso   1.00
C1022  C     0.49247   0.88484   0.74966   0.00000  Uiso   1.00
C1023  C     0.54472   0.59421   0.74146   0.00000  Uiso   1.00
C1024  C     0.48441   0.90645   0.79246   0.00000  Uiso   1.00
C1025  C     0.54638   0.54802   0.74726   0.00000  Uiso   1.00
C1026  C     0.48987   0.95256   0.79583   0.00000  Uiso   1.00
C1027  C     0.50079   0.52505   0.75661   0.00000  Uiso   1.00
C1028  C     0.49832   0.97711   0.75553   0.00000  Uiso   1.00
H1029  H     0.65929   0.74111   0.69590   0.00000  Uiso   1.00
H1030  H     0.34101   0.75994   0.80442   0.00000  Uiso   1.00
H1031  H     0.41916   0.52917   0.76671   0.00000  Uiso   1.00
H1032  H     0.50305   0.97645   0.68045   0.00000  Uiso   1.00
H1033  H     0.41647   0.73313   0.52526   0.00000  Uiso   1.00
H1034  H     0.53871   0.81520   0.96909   0.00000  Uiso   1.00
H1035  H     0.41991   0.73006   0.61221   0.00000  Uiso   1.00
H1036  H     0.54190   0.81143   0.88285   0.00000  Uiso   1.00
N1037  N     0.50000   0.74999   0.62624   0.00000  Uiso   1.00
N1038  N     0.50000   0.75001   0.87377   0.00000  Uiso   1.00
O1039  O     0.50000   0.68453   0.78974   0.00000  Uiso   1.00
O1040  O     0.50000   0.81546   0.71026   0.00000  Uiso   1.00
O1041  O     0.50000   0.68453   0.71026   0.00000  Uiso   1.00
O1042  O     0.50000   0.81547   0.78974   0.00000  Uiso   1.00
O1043  O     0.42392   0.75000   0.78045   0.00000  Uiso   1.00
O1044  O     0.57608   0.75000   0.71956   0.00000  Uiso   1.00
O1045  O     0.42392   0.74999   0.70097   0.00000  Uiso   1.00
O1046  O     0.57608   0.75000   0.79904   0.00000  Uiso   1.00
Zn1047 Zn    0.50000   0.75000   0.80307   0.00000  Uiso   1.00
Zn1048 Zn    0.50000   0.74999   0.69693   0.00000  Uiso   1.00
Cl1049 Cl    0.39439   0.62063   0.76222   0.00000  Uiso   1.00
Cl1050 Cl    0.49529   0.88869   0.65070   0.00000  Uiso   1.00
O1051  O     0.58700   0.61790   0.72778   0.00000  Uiso   1.00
C1052  C     0.58547   0.61390   0.67790   0.00000  Uiso   1.00
H1053  H     0.54473   0.61572   0.65851   0.00000  Uiso   1.00
H1054  H     0.60286   0.58178   0.66920   0.00000  Uiso   1.00
C1055  C     0.61736   0.65166   0.65928   0.00000  Uiso   1.00
H1056  H     0.65781   0.65266   0.67870   0.00000  Uiso   1.00
H1057  H     0.61955   0.64664   0.62090   0.00000  Uiso   1.00
H1058  H     0.59803   0.68384   0.66371   0.00000  Uiso   1.00
O1059  O     0.47191   0.88270   0.83151   0.00000  Uiso   1.00
C1060  C     0.41674   0.87657   0.82649   0.00000  Uiso   1.00
H1061  H     0.40132   0.86089   0.79177   0.00000  Uiso   1.00
H1062  H     0.39717   0.90913   0.82941   0.00000  Uiso   1.00
C1063  C     0.40230   0.84591   0.86578   0.00000  Uiso   1.00
H1064  H     0.35890   0.84308   0.86367   0.00000  Uiso   1.00
H1065  H     0.41810   0.81215   0.86165   0.00000  Uiso   1.00
H1066  H     0.41865   0.85945   0.90111   0.00000  Uiso   1.00
Cl1067 Cl    0.60546   0.51956   0.74384   0.00000  Uiso   1.00
Cl1068 Cl    0.48649   0.97886   0.85087   0.00000  Uiso   1.00
O1069  O     0.58980   0.77420   0.63568   0.00000  Uiso   1.00
C1070  C     0.59905   0.82086   0.63405   0.00000  Uiso   1.00
H1071  H     0.58876   0.83576   0.66723   0.00000  Uiso   1.00
H1072  H     0.57617   0.83826   0.60328   0.00000  Uiso   1.00
C1073  C     0.65712   0.83025   0.63188   0.00000  Uiso   1.00
H1074  H     0.33604   0.81452   0.59991   0.00000  Uiso   1.00
H1075  H     0.66427   0.86682   0.63003   0.00000  Uiso   1.00
H1076  H     0.34795   0.81707   0.66407   0.00000  Uiso   1.00
O1077  O     0.45043   0.68201   0.86800   0.00000  Uiso   1.00
C1078  C     0.39508   0.68361   0.86668   0.00000  Uiso   1.00
H1079  H     0.37774   0.68977   0.82945   0.00000  Uiso   1.00
H1080  H     0.38071   0.71046   0.88862   0.00000  Uiso   1.00
C1081  C     0.37368   0.63873   0.88169   0.00000  Uiso   1.00
H1082  H     0.38307   0.63384   0.92056   0.00000  Uiso   1.00
H1083  H     0.66362   0.63758   0.87240   0.00000  Uiso   1.00
H1084  H     0.39077   0.61105   0.86333   0.00000  Uiso   1.00
O1085  O     0.59106   0.76958   0.53827   0.00000  Uiso   1.00
C1086  C     0.62094   0.73014   0.54033   0.00000  Uiso   1.00
H1087  H     0.59968   0.69934   0.55013   0.00000  Uiso   1.00
H1088  H     0.65610   0.73464   0.56733   0.00000  Uiso   1.00
C1089  C     0.63894   0.72230   0.99213   0.00000  Uiso   1.00
H1090  H     0.66102   0.75199   0.98137   0.00000  Uiso   1.00
H1091  H     0.66476   0.69281   0.99404   0.00000  Uiso   1.00
H1092  H     0.60446   0.71598   0.96488   0.00000  Uiso   1.00
O1093  O     0.45496   0.67942   0.96719   0.00000  Uiso   1.00
C1094  C     0.49400   0.64669   0.97601   0.00000  Uiso   1.00
H1095  H     0.53161   0.66096   0.99437   0.00000  Uiso   1.00
H1096  H     0.50124   0.63099   0.94210   0.00000  Uiso   1.00
C1097  C     0.47530   0.61073   0.50811   0.00000  Uiso   1.00
H1098  H     0.43834   0.59491   0.99070   0.00000  Uiso   1.00
H1099  H     0.50569   0.58476   0.51533   0.00000  Uiso   1.00
H1100  H     0.46816   0.62563   0.54237   0.00000  Uiso   1.00
C1101  C     0.83319   0.66417   0.75001   0.00000  Uiso   1.00
C1102  C     0.83075   0.83634   0.74960   0.00000  Uiso   1.00
C1103  C     0.78643   0.74085   0.54726   0.00000  Uiso   1.00
C1104  C     0.85460   0.78663   0.94944   0.00000  Uiso   1.00
C1105  C     0.78830   0.73935   0.59704   0.00000  Uiso   1.00
C1106  C     0.85626   0.78466   0.90016   0.00000  Uiso   1.00
C1107  C     0.87747   0.76277   0.60670   0.00000  Uiso   1.00
C1108  C     0.80790   0.71653   0.89521   0.00000  Uiso   1.00
C1109  C     0.87805   0.76145   0.55686   0.00000  Uiso   1.00
C1110  C     0.80910   0.71560   0.94537   0.00000  Uiso   1.00
C1111  C     0.83156   0.75203   0.52627   0.00000  Uiso   1.00
C1112  C     0.83099   0.75182   0.97299   0.00000  Uiso   1.00
C1113  C     0.73383   0.74959   0.73782   0.00000  Uiso   1.00
C1114  C     0.93288   0.75068   0.76224   0.00000  Uiso   1.00
C1115  C     0.67907   0.74766   0.73140   0.00000  Uiso   1.00
C1116  C     0.98773   0.75316   0.76886   0.00000  Uiso   1.00
C1117  C     0.78802   0.54752   0.76151   0.00000  Uiso   1.00
C1118  C     0.83297   0.95650   0.71193   0.00000  Uiso   1.00
C1119  C     0.78728   0.59343   0.75879   0.00000  Uiso   1.00
C1120  C     0.82984   0.91063   0.70837   0.00000  Uiso   1.00
C1121  C     0.83275   0.61660   0.75008   0.00000  Uiso   1.00
C1122  C     0.82580   0.88484   0.74966   0.00000  Uiso   1.00
C1123  C     0.87805   0.59421   0.74146   0.00000  Uiso   1.00
C1124  C     0.81774   0.90645   0.79246   0.00000  Uiso   1.00
C1125  C     0.87971   0.54802   0.74726   0.00000  Uiso   1.00
C1126  C     0.82321   0.95256   0.79583   0.00000  Uiso   1.00
C1127  C     0.83412   0.52505   0.75661   0.00000  Uiso   1.00
C1128  C     0.83165   0.97711   0.75553   0.00000  Uiso   1.00
H1129  H     0.99262   0.74111   0.69590   0.00000  Uiso   1.00
H1130  H     0.67434   0.75994   0.80442   0.00000  Uiso   1.00
H1131  H     0.75249   0.52917   0.76671   0.00000  Uiso   1.00
H1132  H     0.83639   0.97645   0.68045   0.00000  Uiso   1.00
H1133  H     0.74981   0.73313   0.52526   0.00000  Uiso   1.00
H1134  H     0.87204   0.81520   0.96909   0.00000  Uiso   1.00
H1135  H     0.75325   0.73006   0.61221   0.00000  Uiso   1.00
H1136  H     0.87523   0.81143   0.88285   0.00000  Uiso   1.00
N1137  N     0.83333   0.74999   0.62624   0.00000  Uiso   1.00
N1138  N     0.83333   0.75001   0.87377   0.00000  Uiso   1.00
O1139  O     0.83334   0.68453   0.78974   0.00000  Uiso   1.00
O1140  O     0.83333   0.81546   0.71026   0.00000  Uiso   1.00
O1141  O     0.83334   0.68453   0.71026   0.00000  Uiso   1.00
O1142  O     0.83333   0.81547   0.78974   0.00000  Uiso   1.00
O1143  O     0.75725   0.75000   0.78045   0.00000  Uiso   1.00
O1144  O     0.90942   0.75000   0.71956   0.00000  Uiso   1.00
O1145  O     0.75725   0.74999   0.70097   0.00000  Uiso   1.00
O1146  O     0.90942   0.75000   0.79904   0.00000  Uiso   1.00
Zn1147 Zn    0.83333   0.75000   0.80307   0.00000  Uiso   1.00
Zn1148 Zn    0.83333   0.74999   0.69693   0.00000  Uiso   1.00
Cl1149 Cl    0.72772   0.62063   0.76222   0.00000  Uiso   1.00
Cl1150 Cl    0.82862   0.88869   0.65070   0.00000  Uiso   1.00
O1151  O     0.92033   0.61790   0.72778   0.00000  Uiso   1.00
C1152  C     0.91881   0.61390   0.67790   0.00000  Uiso   1.00
H1153  H     0.87807   0.61572   0.65851   0.00000  Uiso   1.00
H1154  H     0.93620   0.58178   0.66920   0.00000  Uiso   1.00
C1155  C     0.95069   0.65166   0.65928   0.00000  Uiso   1.00
H1156  H     0.99114   0.65266   0.67870   0.00000  Uiso   1.00
H1157  H     0.95288   0.64664   0.62090   0.00000  Uiso   1.00
H1158  H     0.93136   0.68384   0.66371   0.00000  Uiso   1.00
O1159  O     0.80524   0.88270   0.83151   0.00000  Uiso   1.00
C1160  C     0.75007   0.87657   0.82649   0.00000  Uiso   1.00
H1161  H     0.73465   0.86089   0.79177   0.00000  Uiso   1.00
H1162  H     0.73051   0.90913   0.82941   0.00000  Uiso   1.00
C1163  C     0.73564   0.84591   0.86578   0.00000  Uiso   1.00
H1164  H     0.69223   0.84308   0.86367   0.00000  Uiso   1.00
H1165  H     0.75143   0.81215   0.86165   0.00000  Uiso   1.00
H1166  H     0.75198   0.85945   0.90111   0.00000  Uiso   1.00
Cl1167 Cl    0.93879   0.51956   0.74384   0.00000  Uiso   1.00
Cl1168 Cl    0.81983   0.97886   0.85087   0.00000  Uiso   1.00
O1169  O     0.92313   0.77420   0.63568   0.00000  Uiso   1.00
C1170  C     0.93238   0.82086   0.63405   0.00000  Uiso   1.00
H1171  H     0.92209   0.83576   0.66723   0.00000  Uiso   1.00
H1172  H     0.90950   0.83826   0.60328   0.00000  Uiso   1.00
C1173  C     0.99045   0.83025   0.63188   0.00000  Uiso   1.00
H1174  H     0.66937   0.81452   0.59991   0.00000  Uiso   1.00
H1175  H     0.99760   0.86682   0.63003   0.00000  Uiso   1.00
H1176  H     0.68128   0.81707   0.66407   0.00000  Uiso   1.00
O1177  O     0.78377   0.68201   0.86800   0.00000  Uiso   1.00
C1178  C     0.72841   0.68361   0.86668   0.00000  Uiso   1.00
H1179  H     0.71108   0.68977   0.82945   0.00000  Uiso   1.00
H1180  H     0.71404   0.71046   0.88862   0.00000  Uiso   1.00
C1181  C     0.70701   0.63873   0.88169   0.00000  Uiso   1.00
H1182  H     0.71640   0.63384   0.92056   0.00000  Uiso   1.00
H1183  H     0.99695   0.63758   0.87240   0.00000  Uiso   1.00
H1184  H     0.72410   0.61105   0.86333   0.00000  Uiso   1.00
O1185  O     0.92439   0.76958   0.53827   0.00000  Uiso   1.00
C1186  C     0.95427   0.73014   0.54033   0.00000  Uiso   1.00
H1187  H     0.93301   0.69934   0.55013   0.00000  Uiso   1.00
H1188  H     0.98943   0.73464   0.56733   0.00000  Uiso   1.00
C1189  C     0.97228   0.72230   0.99213   0.00000  Uiso   1.00
H1190  H     0.99436   0.75199   0.98137   0.00000  Uiso   1.00
H1191  H     0.99809   0.69281   0.99404   0.00000  Uiso   1.00
H1192  H     0.93779   0.71598   0.96488   0.00000  Uiso   1.00
O1193  O     0.78830   0.67942   0.96719   0.00000  Uiso   1.00
C1194  C     0.82733   0.64669   0.97601   0.00000  Uiso   1.00
H1195  H     0.86494   0.66096   0.99437   0.00000  Uiso   1.00
H1196  H     0.83458   0.63099   0.94210   0.00000  Uiso   1.00
C1197  C     0.80863   0.61073   0.50811   0.00000  Uiso   1.00
H1198  H     0.77167   0.59491   0.99070   0.00000  Uiso   1.00
H1199  H     0.83903   0.58476   0.51533   0.00000  Uiso   1.00
H1200  H     0.80149   0.62563   0.54237   0.00000  Uiso   1.00
loop_
_geom_bond_atom_site_label_1
_geom_bond_atom_site_label_2
_geom_bond_distance
_geom_bond_site_symmetry_2
_ccdc_geom_bond_type
C1     C21     1.426   .     S
C1     O41     1.280   .     A
C1     O39     1.285   .     A
C2     C22     1.462   .     S
C2     O42     1.291   .     A
C2     O40     1.293   .     A
C3     H33     1.080   .     S
C3     C5      1.408   .     A
C3     C11     1.408   .     A
C4     C12     1.408   .     A
C4     H34     1.083   .     S
C4     C6      1.407   .     A
C5     N37     1.364   .     A
C5     H35     1.081   .     S
C6     N38     1.363   .     A
C6     H36     1.081   .     S
C7     N37     1.375   .     A
C7     C9      1.418   .     A
C7     O69     1.379   .     S
C8     N38     1.372   .     A
C8     O77     1.383   .     S
C8     C10     1.421   .     A
C9     O85     1.383   .     S
C9     C11     1.405   .     A
C10    O93     1.381   .     S
C10    C12     1.408   .     A
C11    C612    1.511   1_554 S
C12    C611    1.511   .     S
C13    O43     1.277   .     A
C13    C15     1.395   .     S
C13    O45     1.275   .     A
C14    O46     1.274   .     A
C14    C16     1.397   .     S
C14    O44     1.279   .     A
C15    C216    1.321   1_455 S
C15    H229    1.084   1_455 S
C16    C115    1.321   .     S
C16    H130    1.088   .     S
C17    C27     1.395   .     A
C17    H31     1.085   .     S
C17    C19     1.378   .     A
C18    C28     1.391   .     A
C18    H32     1.085   .     S
C18    C20     1.380   .     A
C19    C21     1.399   .     A
C19    Cl49    1.760   .     S
C20    Cl50    1.764   .     S
C20    C22     1.415   .     A
C21    C23     1.403   .     A
C22    C24     1.422   .     A
C23    O51     1.385   .     S
C23    C25     1.394   .     A
C24    C26     1.390   .     A
C24    O59     1.385   .     S
C25    Cl67    1.767   .     S
C25    C27     1.404   .     A
C26    C28     1.396   .     A
C26    Cl68    1.768   .     S
C27    C328    1.438   1_545 S
C28    C327    1.438   .     S
H29    C115    1.084   .     S
H30    C216    1.088   1_455 S
N37    Zn48    2.007   .     S
N38    Zn47    2.007   .     S
O39    Zn47    2.001   .     S
O40    Zn48    2.001   .     S
O41    Zn48    1.996   .     S
O42    Zn47    1.996   .     S
O43    Zn47    1.974   .     S
O44    Zn48    1.974   .     S
O45    Zn48    1.973   .     S
O46    Zn47    1.973   .     S
O51    C52     1.417   .     S
C52    C55     1.520   .     S
C52    H54     1.111   .     S
C52    H53     1.117   .     S
C55    H56     1.109   .     S
C55    H57     1.110   .     S
C55    H58     1.108   .     S
O59    C60     1.414   .     S
C60    C63     1.521   .     S
C60    H62     1.114   .     S
C60    H61     1.116   .     S
C63    H65     1.109   .     S
C63    H66     1.111   .     S
C63    H64     1.111   .     S
O69    C70     1.416   .     S
C70    H71     1.110   .     S
C70    C73     1.523   .     S
C70    H72     1.117   .     S
C73    H75     1.110   .     S
C73    H174    1.110   .     S
C73    H176    1.108   .     S
H74    C273    1.110   1_455 S
H76    C273    1.108   1_455 S
O77    C78     1.419   .     S
C78    H80     1.118   .     S
C78    H79     1.106   .     S
C78    C81     1.525   .     S
C81    H84     1.110   .     S
C81    H82     1.107   .     S
C81    H283    1.111   1_455 S
H83    C181    1.111   .     S
O85    C86     1.417   .     S
C86    H88     1.111   .     S
C86    H87     1.118   .     S
C86    C689    1.523   1_554 S
C89    H91     1.111   .     S
C89    H92     1.110   .     S
C89    H90     1.111   .     S
C89    C686    1.523   .     S
O93    C94     1.412   .     S
C94    H95     1.115   .     S
C94    H96     1.113   .     S
C94    C697    1.520   .     S
C97    H99     1.110   .     S
C97    H100    1.111   .     S
C97    C694    1.520   1_554 S
C97    H698    1.111   1_554 S
H98    C697    1.111   .     S
C101   C121    1.426   .     S
C101   O141    1.280   .     A
C101   O139    1.285   .     A
C102   C122    1.462   .     S
C102   O142    1.291   .     A
C102   O140    1.293   .     A
C103   H133    1.080   .     S
C103   C105    1.408   .     A
C103   C111    1.408   .     A
C104   C112    1.408   .     A
C104   H134    1.083   .     S
C104   C106    1.407   .     A
C105   N137    1.364   .     A
C105   H135    1.081   .     S
C106   N138    1.363   .     A
C106   H136    1.081   .     S
C107   N137    1.375   .     A
C107   C109    1.418   .     A
C107   O169    1.379   .     S
C108   N138    1.372   .     A
C108   O177    1.383   .     S
C108   C110    1.421   .     A
C109   O185    1.383   .     S
C109   C111    1.405   .     A
C110   O193    1.381   .     S
C110   C112    1.408   .     A
C111   C712    1.511   1_554 S
C112   C711    1.511   .     S
C113   O143    1.277   .     A
C113   C115    1.395   .     S
C113   O145    1.275   .     A
C114   O146    1.274   .     A
C114   C116    1.397   .     S
C114   O144    1.279   .     A
C116   C215    1.321   .     S
C116   H230    1.088   .     S
C117   C127    1.395   .     A
C117   H131    1.085   .     S
C117   C119    1.378   .     A
C118   C128    1.391   .     A
C118   H132    1.085   .     S
C118   C120    1.380   .     A
C119   C121    1.399   .     A
C119   Cl149   1.760   .     S
C120   Cl150   1.764   .     S
C120   C122    1.415   .     A
C121   C123    1.403   .     A
C122   C124    1.422   .     A
C123   O151    1.385   .     S
C123   C125    1.394   .     A
C124   C126    1.390   .     A
C124   O159    1.385   .     S
C125   Cl167   1.767   .     S
C125   C127    1.404   .     A
C126   C128    1.396   .     A
C126   Cl168   1.768   .     S
C127   C428    1.438   1_545 S
C128   C427    1.438   .     S
H129   C215    1.084   .     S
N137   Zn148   2.007   .     S
N138   Zn147   2.007   .     S
O139   Zn147   2.001   .     S
O140   Zn148   2.001   .     S
O141   Zn148   1.996   .     S
O142   Zn147   1.996   .     S
O143   Zn147   1.974   .     S
O144   Zn148   1.974   .     S
O145   Zn148   1.973   .     S
O146   Zn147   1.973   .     S
O151   C152    1.417   .     S
C152   C155    1.520   .     S
C152   H154    1.111   .     S
C152   H153    1.117   .     S
C155   H156    1.109   .     S
C155   H157    1.110   .     S
C155   H158    1.108   .     S
O159   C160    1.414   .     S
C160   C163    1.521   .     S
C160   H162    1.114   .     S
C160   H161    1.116   .     S
C163   H165    1.109   .     S
C163   H166    1.111   .     S
C163   H164    1.111   .     S
O169   C170    1.416   .     S
C170   H171    1.110   .     S
C170   C173    1.523   .     S
C170   H172    1.117   .     S
C173   H175    1.110   .     S
C173   H274    1.110   .     S
C173   H276    1.108   .     S
O177   C178    1.419   .     S
C178   H180    1.118   .     S
C178   H179    1.106   .     S
C178   C181    1.525   .     S
C181   H184    1.110   .     S
C181   H182    1.107   .     S
H183   C281    1.111   .     S
O185   C186    1.417   .     S
C186   H188    1.111   .     S
C186   H187    1.118   .     S
C186   C789    1.523   1_554 S
C189   H191    1.111   .     S
C189   H192    1.110   .     S
C189   H190    1.111   .     S
C189   C786    1.523   .     S
O193   C194    1.412   .     S
C194   H195    1.115   .     S
C194   H196    1.113   .     S
C194   C797    1.520   .     S
C197   H199    1.110   .     S
C197   H200    1.111   .     S
C197   C794    1.520   1_554 S
C197   H798    1.111   1_554 S
H198   C797    1.111   .     S
C201   C221    1.426   .     S
C201   O241    1.280   .     A
C201   O239    1.285   .     A
C202   C222    1.462   .     S
C202   O242    1.291   .     A
C202   O240    1.293   .     A
C203   H233    1.080   .     S
C203   C205    1.408   .     A
C203   C211    1.408   .     A
C204   C212    1.408   .     A
C204   H234    1.083   .     S
C204   C206    1.407   .     A
C205   N237    1.364   .     A
C205   H235    1.081   .     S
C206   N238    1.363   .     A
C206   H236    1.081   .     S
C207   N237    1.375   .     A
C207   C209    1.418   .     A
C207   O269    1.379   .     S
C208   N238    1.372   .     A
C208   O277    1.383   .     S
C208   C210    1.421   .     A
C209   O285    1.383   .     S
C209   C211    1.405   .     A
C210   O293    1.381   .     S
C210   C212    1.408   .     A
C211   C812    1.511   1_554 S
C212   C811    1.511   .     S
C213   O243    1.277   .     A
C213   C215    1.395   .     S
C213   O245    1.275   .     A
C214   O246    1.274   .     A
C214   C216    1.397   .     S
C214   O244    1.279   .     A
C216   C15     1.321   1_655 S
C216   H30     1.088   1_655 S
C217   C227    1.395   .     A
C217   H231    1.085   .     S
C217   C219    1.378   .     A
C218   C228    1.391   .     A
C218   H232    1.085   .     S
C218   C220    1.380   .     A
C219   C221    1.399   .     A
C219   Cl249   1.760   .     S
C220   Cl250   1.764   .     S
C220   C222    1.415   .     A
C221   C223    1.403   .     A
C222   C224    1.422   .     A
C223   O251    1.385   .     S
C223   C225    1.394   .     A
C224   C226    1.390   .     A
C224   O259    1.385   .     S
C225   Cl267   1.767   .     S
C225   C227    1.404   .     A
C226   C228    1.396   .     A
C226   Cl268   1.768   .     S
C227   C528    1.438   1_545 S
C228   C527    1.438   .     S
H229   C15     1.084   1_655 S
N237   Zn248   2.007   .     S
N238   Zn247   2.007   .     S
O239   Zn247   2.001   .     S
O240   Zn248   2.001   .     S
O241   Zn248   1.996   .     S
O242   Zn247   1.996   .     S
O243   Zn247   1.974   .     S
O244   Zn248   1.974   .     S
O245   Zn248   1.973   .     S
O246   Zn247   1.973   .     S
O251   C252    1.417   .     S
C252   C255    1.520   .     S
C252   H254    1.111   .     S
C252   H253    1.117   .     S
C255   H256    1.109   .     S
C255   H257    1.110   .     S
C255   H258    1.108   .     S
O259   C260    1.414   .     S
C260   C263    1.521   .     S
C260   H262    1.114   .     S
C260   H261    1.116   .     S
C263   H265    1.109   .     S
C263   H266    1.111   .     S
C263   H264    1.111   .     S
O269   C270    1.416   .     S
C270   H271    1.110   .     S
C270   C273    1.523   .     S
C270   H272    1.117   .     S
C273   H275    1.110   .     S
C273   H74     1.110   1_655 S
C273   H76     1.108   1_655 S
O277   C278    1.419   .     S
C278   H280    1.118   .     S
C278   H279    1.106   .     S
C278   C281    1.525   .     S
C281   H284    1.110   .     S
C281   H282    1.107   .     S
H283   C81     1.111   1_655 S
O285   C286    1.417   .     S
C286   H288    1.111   .     S
C286   H287    1.118   .     S
C286   C889    1.523   1_554 S
C289   H291    1.111   .     S
C289   H292    1.110   .     S
C289   H290    1.111   .     S
C289   C886    1.523   .     S
O293   C294    1.412   .     S
C294   H295    1.115   .     S
C294   H296    1.113   .     S
C294   C897    1.520   .     S
C297   H299    1.110   .     S
C297   H300    1.111   .     S
C297   C894    1.520   1_554 S
C297   H898    1.111   1_554 S
H298   C897    1.111   .     S
C301   C321    1.426   .     S
C301   O341    1.280   .     A
C301   O339    1.285   .     A
C302   C322    1.462   .     S
C302   O342    1.291   .     A
C302   O340    1.293   .     A
C303   H333    1.080   .     S
C303   C305    1.408   .     A
C303   C311    1.408   .     A
C304   C312    1.408   .     A
C304   H334    1.083   .     S
C304   C306    1.407   .     A
C305   N337    1.364   .     A
C305   H335    1.081   .     S
C306   N338    1.363   .     A
C306   H336    1.081   .     S
C307   N337    1.375   .     A
C307   C309    1.418   .     A
C307   O369    1.379   .     S
C308   N338    1.372   .     A
C308   O377    1.383   .     S
C308   C310    1.421   .     A
C309   O385    1.383   .     S
C309   C311    1.405   .     A
C310   O393    1.381   .     S
C310   C312    1.408   .     A
C311   C912    1.511   1_554 S
C312   C911    1.511   .     S
C313   O343    1.277   .     A
C313   C315    1.395   .     S
C313   O345    1.275   .     A
C314   O346    1.274   .     A
C314   C316    1.397   .     S
C314   O344    1.279   .     A
C315   C516    1.321   1_455 S
C315   H529    1.084   1_455 S
C316   C415    1.321   .     S
C316   H430    1.088   .     S
C317   C327    1.395   .     A
C317   H331    1.085   .     S
C317   C319    1.378   .     A
C318   C328    1.391   .     A
C318   H332    1.085   .     S
C318   C320    1.380   .     A
C319   C321    1.399   .     A
C319   Cl349   1.760   .     S
C320   Cl350   1.764   .     S
C320   C322    1.415   .     A
C321   C323    1.403   .     A
C322   C324    1.422   .     A
C323   O351    1.385   .     S
C323   C325    1.394   .     A
C324   C326    1.390   .     A
C324   O359    1.385   .     S
C325   Cl367   1.767   .     S
C325   C327    1.404   .     A
C326   C328    1.396   .     A
C326   Cl368   1.768   .     S
C328   C27     1.438   1_565 S
H329   C415    1.084   .     S
H330   C516    1.088   1_455 S
N337   Zn348   2.007   .     S
N338   Zn347   2.007   .     S
O339   Zn347   2.001   .     S
O340   Zn348   2.001   .     S
O341   Zn348   1.996   .     S
O342   Zn347   1.996   .     S
O343   Zn347   1.974   .     S
O344   Zn348   1.974   .     S
O345   Zn348   1.973   .     S
O346   Zn347   1.973   .     S
O351   C352    1.417   .     S
C352   C355    1.520   .     S
C352   H354    1.111   .     S
C352   H353    1.117   .     S
C355   H356    1.109   .     S
C355   H357    1.110   .     S
C355   H358    1.108   .     S
O359   C360    1.414   .     S
C360   C363    1.521   .     S
C360   H362    1.114   .     S
C360   H361    1.116   .     S
C363   H365    1.109   .     S
C363   H366    1.111   .     S
C363   H364    1.111   .     S
O369   C370    1.416   .     S
C370   H371    1.110   .     S
C370   C373    1.523   .     S
C370   H372    1.117   .     S
C373   H375    1.110   .     S
C373   H474    1.110   .     S
C373   H476    1.108   .     S
H374   C573    1.110   1_455 S
H376   C573    1.108   1_455 S
O377   C378    1.419   .     S
C378   H380    1.118   .     S
C378   H379    1.106   .     S
C378   C381    1.525   .     S
C381   H384    1.110   .     S
C381   H382    1.107   .     S
C381   H583    1.111   1_455 S
H383   C481    1.111   .     S
O385   C386    1.417   .     S
C386   H388    1.111   .     S
C386   H387    1.118   .     S
C386   C989    1.523   1_554 S
C389   H391    1.111   .     S
C389   H392    1.110   .     S
C389   H390    1.111   .     S
C389   C986    1.523   .     S
O393   C394    1.412   .     S
C394   H395    1.115   .     S
C394   H396    1.113   .     S
C394   C997    1.520   .     S
C397   H399    1.110   .     S
C397   H400    1.111   .     S
C397   C994    1.520   1_554 S
C397   H998    1.111   1_554 S
H398   C997    1.111   .     S
C401   C421    1.426   .     S
C401   O441    1.280   .     A
C401   O439    1.285   .     A
C402   C422    1.462   .     S
C402   O442    1.291   .     A
C402   O440    1.293   .     A
C403   H433    1.080   .     S
C403   C405    1.408   .     A
C403   C411    1.408   .     A
C404   C412    1.408   .     A
C404   H434    1.083   .     S
C404   C406    1.407   .     A
C405   N437    1.364   .     A
C405   H435    1.081   .     S
C406   N438    1.363   .     A
C406   H436    1.081   .     S
C407   N437    1.375   .     A
C407   C409    1.418   .     A
C407   O469    1.379   .     S
C408   N438    1.372   .     A
C408   O477    1.383   .     S
C408   C410    1.421   .     A
C409   O485    1.383   .     S
C409   C411    1.405   .     A
C410   O493    1.381   .     S
C410   C412    1.408   .     A
C411   C1012   1.511   1_554 S
C412   C1011   1.511   .     S
C413   O443    1.277   .     A
C413   C415    1.395   .     S
C413   O445    1.275   .     A
C414   O446    1.274   .     A
C414   C416    1.397   .     S
C414   O444    1.279   .     A
C416   C515    1.321   .     S
C416   H530    1.088   .     S
C417   C427    1.395   .     A
C417   H431    1.085   .     S
C417   C419    1.378   .     A
C418   C428    1.391   .     A
C418   H432    1.085   .     S
C418   C420    1.380   .     A
C419   C421    1.399   .     A
C419   Cl449   1.760   .     S
C420   Cl450   1.764   .     S
C420   C422    1.415   .     A
C421   C423    1.403   .     A
C422   C424    1.422   .     A
C423   O451    1.385   .     S
C423   C425    1.394   .     A
C424   C426    1.390   .     A
C424   O459    1.385   .     S
C425   Cl467   1.767   .     S
C425   C427    1.404   .     A
C426   C428    1.396   .     A
C426   Cl468   1.768   .     S
C428   C127    1.438   1_565 S
H429   C515    1.084   .     S
N437   Zn448   2.007   .     S
N438   Zn447   2.007   .     S
O439   Zn447   2.001   .     S
O440   Zn448   2.001   .     S
O441   Zn448   1.996   .     S
O442   Zn447   1.996   .     S
O443   Zn447   1.974   .     S
O444   Zn448   1.974   .     S
O445   Zn448   1.973   .     S
O446   Zn447   1.973   .     S
O451   C452    1.417   .     S
C452   C455    1.520   .     S
C452   H454    1.111   .     S
C452   H453    1.117   .     S
C455   H456    1.109   .     S
C455   H457    1.110   .     S
C455   H458    1.108   .     S
O459   C460    1.414   .     S
C460   C463    1.521   .     S
C460   H462    1.114   .     S
C460   H461    1.116   .     S
C463   H465    1.109   .     S
C463   H466    1.111   .     S
C463   H464    1.111   .     S
O469   C470    1.416   .     S
C470   H471    1.110   .     S
C470   C473    1.523   .     S
C470   H472    1.117   .     S
C473   H475    1.110   .     S
C473   H574    1.110   .     S
C473   H576    1.108   .     S
O477   C478    1.419   .     S
C478   H480    1.118   .     S
C478   H479    1.106   .     S
C478   C481    1.525   .     S
C481   H484    1.110   .     S
C481   H482    1.107   .     S
H483   C581    1.111   .     S
O485   C486    1.417   .     S
C486   H488    1.111   .     S
C486   H487    1.118   .     S
C486   C1089   1.523   1_554 S
C489   H491    1.111   .     S
C489   H492    1.110   .     S
C489   H490    1.111   .     S
C489   C1086   1.523   .     S
O493   C494    1.412   .     S
C494   H495    1.115   .     S
C494   H496    1.113   .     S
C494   C1097   1.520   .     S
C497   H499    1.110   .     S
C497   H500    1.111   .     S
C497   C1094   1.520   1_554 S
C497   H1098   1.111   1_554 S
H498   C1097   1.111   .     S
C501   C521    1.426   .     S
C501   O541    1.280   .     A
C501   O539    1.285   .     A
C502   C522    1.462   .     S
C502   O542    1.291   .     A
C502   O540    1.293   .     A
C503   H533    1.080   .     S
C503   C505    1.408   .     A
C503   C511    1.408   .     A
C504   C512    1.408   .     A
C504   H534    1.083   .     S
C504   C506    1.407   .     A
C505   N537    1.364   .     A
C505   H535    1.081   .     S
C506   N538    1.363   .     A
C506   H536    1.081   .     S
C507   N537    1.375   .     A
C507   C509    1.418   .     A
C507   O569    1.379   .     S
C508   N538    1.372   .     A
C508   O577    1.383   .     S
C508   C510    1.421   .     A
C509   O585    1.383   .     S
C509   C511    1.405   .     A
C510   O593    1.381   .     S
C510   C512    1.408   .     A
C511   C1112   1.511   1_554 S
C512   C1111   1.511   .     S
C513   O543    1.277   .     A
C513   C515    1.395   .     S
C513   O545    1.275   .     A
C514   O546    1.274   .     A
C514   C516    1.397   .     S
C514   O544    1.279   .     A
C516   C315    1.321   1_655 S
C516   H330    1.088   1_655 S
C517   C527    1.395   .     A
C517   H531    1.085   .     S
C517   C519    1.378   .     A
C518   C528    1.391   .     A
C518   H532    1.085   .     S
C518   C520    1.380   .     A
C519   C521    1.399   .     A
C519   Cl549   1.760   .     S
C520   Cl550   1.764   .     S
C520   C522    1.415   .     A
C521   C523    1.403   .     A
C522   C524    1.422   .     A
C523   O551    1.385   .     S
C523   C525    1.394   .     A
C524   C526    1.390   .     A
C524   O559    1.385   .     S
C525   Cl567   1.767   .     S
C525   C527    1.404   .     A
C526   C528    1.396   .     A
C526   Cl568   1.768   .     S
C528   C227    1.438   1_565 S
H529   C315    1.084   1_655 S
N537   Zn548   2.007   .     S
N538   Zn547   2.007   .     S
O539   Zn547   2.001   .     S
O540   Zn548   2.001   .     S
O541   Zn548   1.996   .     S
O542   Zn547   1.996   .     S
O543   Zn547   1.974   .     S
O544   Zn548   1.974   .     S
O545   Zn548   1.973   .     S
O546   Zn547   1.973   .     S
O551   C552    1.417   .     S
C552   C555    1.520   .     S
C552   H554    1.111   .     S
C552   H553    1.117   .     S
C555   H556    1.109   .     S
C555   H557    1.110   .     S
C555   H558    1.108   .     S
O559   C560    1.414   .     S
C560   C563    1.521   .     S
C560   H562    1.114   .     S
C560   H561    1.116   .     S
C563   H565    1.109   .     S
C563   H566    1.111   .     S
C563   H564    1.111   .     S
O569   C570    1.416   .     S
C570   H571    1.110   .     S
C570   C573    1.523   .     S
C570   H572    1.117   .     S
C573   H575    1.110   .     S
C573   H374    1.110   1_655 S
C573   H376    1.108   1_655 S
O577   C578    1.419   .     S
C578   H580    1.118   .     S
C578   H579    1.106   .     S
C578   C581    1.525   .     S
C581   H584    1.110   .     S
C581   H582    1.107   .     S
H583   C381    1.111   1_655 S
O585   C586    1.417   .     S
C586   H588    1.111   .     S
C586   H587    1.118   .     S
C586   C1189   1.523   1_554 S
C589   H591    1.111   .     S
C589   H592    1.110   .     S
C589   H590    1.111   .     S
C589   C1186   1.523   .     S
O593   C594    1.412   .     S
C594   H595    1.115   .     S
C594   H596    1.113   .     S
C594   C1197   1.520   .     S
C597   H599    1.110   .     S
C597   H600    1.111   .     S
C597   C1194   1.520   1_554 S
C597   H1198   1.111   1_554 S
H598   C1197   1.111   .     S
C601   C621    1.426   .     S
C601   O641    1.280   .     A
C601   O639    1.285   .     A
C602   C622    1.462   .     S
C602   O642    1.291   .     A
C602   O640    1.293   .     A
C603   H633    1.080   .     S
C603   C605    1.408   .     A
C603   C611    1.408   .     A
C604   C612    1.408   .     A
C604   H634    1.083   .     S
C604   C606    1.407   .     A
C605   N637    1.364   .     A
C605   H635    1.081   .     S
C606   N638    1.363   .     A
C606   H636    1.081   .     S
C607   N637    1.375   .     A
C607   C609    1.418   .     A
C607   O669    1.379   .     S
C608   N638    1.372   .     A
C608   O677    1.383   .     S
C608   C610    1.421   .     A
C609   O685    1.383   .     S
C609   C611    1.405   .     A
C610   O693    1.381   .     S
C610   C612    1.408   .     A
C612   C11     1.511   1_556 S
C613   O643    1.277   .     A
C613   C615    1.395   .     S
C613   O645    1.275   .     A
C614   O646    1.274   .     A
C614   C616    1.397   .     S
C614   O644    1.279   .     A
C615   C816    1.321   1_455 S
C615   H829    1.084   1_455 S
C616   C715    1.321   .     S
C616   H730    1.088   .     S
C617   C627    1.395   .     A
C617   H631    1.085   .     S
C617   C619    1.378   .     A
C618   C628    1.391   .     A
C618   H632    1.085   .     S
C618   C620    1.380   .     A
C619   C621    1.399   .     A
C619   Cl649   1.760   .     S
C620   Cl650   1.764   .     S
C620   C622    1.415   .     A
C621   C623    1.403   .     A
C622   C624    1.422   .     A
C623   O651    1.385   .     S
C623   C625    1.394   .     A
C624   C626    1.390   .     A
C624   O659    1.385   .     S
C625   Cl667   1.767   .     S
C625   C627    1.404   .     A
C626   C628    1.396   .     A
C626   Cl668   1.768   .     S
C627   C928    1.438   1_545 S
C628   C927    1.438   .     S
H629   C715    1.084   .     S
H630   C816    1.088   1_455 S
N637   Zn648   2.007   .     S
N638   Zn647   2.007   .     S
O639   Zn647   2.001   .     S
O640   Zn648   2.001   .     S
O641   Zn648   1.996   .     S
O642   Zn647   1.996   .     S
O643   Zn647   1.974   .     S
O644   Zn648   1.974   .     S
O645   Zn648   1.973   .     S
O646   Zn647   1.973   .     S
O651   C652    1.417   .     S
C652   C655    1.520   .     S
C652   H654    1.111   .     S
C652   H653    1.117   .     S
C655   H656    1.109   .     S
C655   H657    1.110   .     S
C655   H658    1.108   .     S
O659   C660    1.414   .     S
C660   C663    1.521   .     S
C660   H662    1.114   .     S
C660   H661    1.116   .     S
C663   H665    1.109   .     S
C663   H666    1.111   .     S
C663   H664    1.111   .     S
O669   C670    1.416   .     S
C670   H671    1.110   .     S
C670   C673    1.523   .     S
C670   H672    1.117   .     S
C673   H675    1.110   .     S
C673   H774    1.110   .     S
C673   H776    1.108   .     S
H674   C873    1.110   1_455 S
H676   C873    1.108   1_455 S
O677   C678    1.419   .     S
C678   H680    1.118   .     S
C678   H679    1.106   .     S
C678   C681    1.525   .     S
C681   H684    1.110   .     S
C681   H682    1.107   .     S
C681   H883    1.111   1_455 S
H683   C781    1.111   .     S
O685   C686    1.417   .     S
C686   H688    1.111   .     S
C686   H687    1.118   .     S
C689   H691    1.111   .     S
C689   H692    1.110   .     S
C689   H690    1.111   .     S
C689   C86     1.523   1_556 S
O693   C694    1.412   .     S
C694   H695    1.115   .     S
C694   H696    1.113   .     S
C694   C97     1.520   1_556 S
C697   H699    1.110   .     S
C697   H700    1.111   .     S
H698   C97     1.111   1_556 S
C701   C721    1.426   .     S
C701   O741    1.280   .     A
C701   O739    1.285   .     A
C702   C722    1.462   .     S
C702   O742    1.291   .     A
C702   O740    1.293   .     A
C703   H733    1.080   .     S
C703   C705    1.408   .     A
C703   C711    1.408   .     A
C704   C712    1.408   .     A
C704   H734    1.083   .     S
C704   C706    1.407   .     A
C705   N737    1.364   .     A
C705   H735    1.081   .     S
C706   N738    1.363   .     A
C706   H736    1.081   .     S
C707   N737    1.375   .     A
C707   C709    1.418   .     A
C707   O769    1.379   .     S
C708   N738    1.372   .     A
C708   O777    1.383   .     S
C708   C710    1.421   .     A
C709   O785    1.383   .     S
C709   C711    1.405   .     A
C710   O793    1.381   .     S
C710   C712    1.408   .     A
C712   C111    1.511   1_556 S
C713   O743    1.277   .     A
C713   C715    1.395   .     S
C713   O745    1.275   .     A
C714   O746    1.274   .     A
C714   C716    1.397   .     S
C714   O744    1.279   .     A
C716   C815    1.321   .     S
C716   H830    1.088   .     S
C717   C727    1.395   .     A
C717   H731    1.085   .     S
C717   C719    1.378   .     A
C718   C728    1.391   .     A
C718   H732    1.085   .     S
C718   C720    1.380   .     A
C719   C721    1.399   .     A
C719   Cl749   1.760   .     S
C720   Cl750   1.764   .     S
C720   C722    1.415   .     A
C721   C723    1.403   .     A
C722   C724    1.422   .     A
C723   O751    1.385   .     S
C723   C725    1.394   .     A
C724   C726    1.390   .     A
C724   O759    1.385   .     S
C725   Cl767   1.767   .     S
C725   C727    1.404   .     A
C726   C728    1.396   .     A
C726   Cl768   1.768   .     S
C727   C1028   1.438   1_545 S
C728   C1027   1.438   .     S
H729   C815    1.084   .     S
N737   Zn748   2.007   .     S
N738   Zn747   2.007   .     S
O739   Zn747   2.001   .     S
O740   Zn748   2.001   .     S
O741   Zn748   1.996   .     S
O742   Zn747   1.996   .     S
O743   Zn747   1.974   .     S
O744   Zn748   1.974   .     S
O745   Zn748   1.973   .     S
O746   Zn747   1.973   .     S
O751   C752    1.417   .     S
C752   C755    1.520   .     S
C752   H754    1.111   .     S
C752   H753    1.117   .     S
C755   H756    1.109   .     S
C755   H757    1.110   .     S
C755   H758    1.108   .     S
O759   C760    1.414   .     S
C760   C763    1.521   .     S
C760   H762    1.114   .     S
C760   H761    1.116   .     S
C763   H765    1.109   .     S
C763   H766    1.111   .     S
C763   H764    1.111   .     S
O769   C770    1.416   .     S
C770   H771    1.110   .     S
C770   C773    1.523   .     S
C770   H772    1.117   .     S
C773   H775    1.110   .     S
C773   H874    1.110   .     S
C773   H876    1.108   .     S
O777   C778    1.419   .     S
C778   H780    1.118   .     S
C778   H779    1.106   .     S
C778   C781    1.525   .     S
C781   H784    1.110   .     S
C781   H782    1.107   .     S
H783   C881    1.111   .     S
O785   C786    1.417   .     S
C786   H788    1.111   .     S
C786   H787    1.118   .     S
C789   H791    1.111   .     S
C789   H792    1.110   .     S
C789   H790    1.111   .     S
C789   C186    1.523   1_556 S
O793   C794    1.412   .     S
C794   H795    1.115   .     S
C794   H796    1.113   .     S
C794   C197    1.520   1_556 S
C797   H799    1.110   .     S
C797   H800    1.111   .     S
H798   C197    1.111   1_556 S
C801   C821    1.426   .     S
C801   O841    1.280   .     A
C801   O839    1.285   .     A
C802   C822    1.462   .     S
C802   O842    1.291   .     A
C802   O840    1.293   .     A
C803   H833    1.080   .     S
C803   C805    1.408   .     A
C803   C811    1.408   .     A
C804   C812    1.408   .     A
C804   H834    1.083   .     S
C804   C806    1.407   .     A
C805   N837    1.364   .     A
C805   H835    1.081   .     S
C806   N838    1.363   .     A
C806   H836    1.081   .     S
C807   N837    1.375   .     A
C807   C809    1.418   .     A
C807   O869    1.379   .     S
C808   N838    1.372   .     A
C808   O877    1.383   .     S
C808   C810    1.421   .     A
C809   O885    1.383   .     S
C809   C811    1.405   .     A
C810   O893    1.381   .     S
C810   C812    1.408   .     A
C812   C211    1.511   1_556 S
C813   O843    1.277   .     A
C813   C815    1.395   .     S
C813   O845    1.275   .     A
C814   O846    1.274   .     A
C814   C816    1.397   .     S
C814   O844    1.279   .     A
C816   C615    1.321   1_655 S
C816   H630    1.088   1_655 S
C817   C827    1.395   .     A
C817   H831    1.085   .     S
C817   C819    1.378   .     A
C818   C828    1.391   .     A
C818   H832    1.085   .     S
C818   C820    1.380   .     A
C819   C821    1.399   .     A
C819   Cl849   1.760   .     S
C820   Cl850   1.764   .     S
C820   C822    1.415   .     A
C821   C823    1.403   .     A
C822   C824    1.422   .     A
C823   O851    1.385   .     S
C823   C825    1.394   .     A
C824   C826    1.390   .     A
C824   O859    1.385   .     S
C825   Cl867   1.767   .     S
C825   C827    1.404   .     A
C826   C828    1.396   .     A
C826   Cl868   1.768   .     S
C827   C1128   1.438   1_545 S
C828   C1127   1.438   .     S
H829   C615    1.084   1_655 S
N837   Zn848   2.007   .     S
N838   Zn847   2.007   .     S
O839   Zn847   2.001   .     S
O840   Zn848   2.001   .     S
O841   Zn848   1.996   .     S
O842   Zn847   1.996   .     S
O843   Zn847   1.974   .     S
O844   Zn848   1.974   .     S
O845   Zn848   1.973   .     S
O846   Zn847   1.973   .     S
O851   C852    1.417   .     S
C852   C855    1.520   .     S
C852   H854    1.111   .     S
C852   H853    1.117   .     S
C855   H856    1.109   .     S
C855   H857    1.110   .     S
C855   H858    1.108   .     S
O859   C860    1.414   .     S
C860   C863    1.521   .     S
C860   H862    1.114   .     S
C860   H861    1.116   .     S
C863   H865    1.109   .     S
C863   H866    1.111   .     S
C863   H864    1.111   .     S
O869   C870    1.416   .     S
C870   H871    1.110   .     S
C870   C873    1.523   .     S
C870   H872    1.117   .     S
C873   H875    1.110   .     S
C873   H674    1.110   1_655 S
C873   H676    1.108   1_655 S
O877   C878    1.419   .     S
C878   H880    1.118   .     S
C878   H879    1.106   .     S
C878   C881    1.525   .     S
C881   H884    1.110   .     S
C881   H882    1.107   .     S
H883   C681    1.111   1_655 S
O885   C886    1.417   .     S
C886   H888    1.111   .     S
C886   H887    1.118   .     S
C889   H891    1.111   .     S
C889   H892    1.110   .     S
C889   H890    1.111   .     S
C889   C286    1.523   1_556 S
O893   C894    1.412   .     S
C894   H895    1.115   .     S
C894   H896    1.113   .     S
C894   C297    1.520   1_556 S
C897   H899    1.110   .     S
C897   H900    1.111   .     S
H898   C297    1.111   1_556 S
C901   C921    1.426   .     S
C901   O941    1.280   .     A
C901   O939    1.285   .     A
C902   C922    1.462   .     S
C902   O942    1.291   .     A
C902   O940    1.293   .     A
C903   H933    1.080   .     S
C903   C905    1.408   .     A
C903   C911    1.408   .     A
C904   C912    1.408   .     A
C904   H934    1.083   .     S
C904   C906    1.407   .     A
C905   N937    1.364   .     A
C905   H935    1.081   .     S
C906   N938    1.363   .     A
C906   H936    1.081   .     S
C907   N937    1.375   .     A
C907   C909    1.418   .     A
C907   O969    1.379   .     S
C908   N938    1.372   .     A
C908   O977    1.383   .     S
C908   C910    1.421   .     A
C909   O985    1.383   .     S
C909   C911    1.405   .     A
C910   O993    1.381   .     S
C910   C912    1.408   .     A
C912   C311    1.511   1_556 S
C913   O943    1.277   .     A
C913   C915    1.395   .     S
C913   O945    1.275   .     A
C914   O946    1.274   .     A
C914   C916    1.397   .     S
C914   O944    1.279   .     A
C915   C1116   1.321   1_455 S
C915   H1129   1.084   1_455 S
C916   C1015   1.321   .     S
C916   H1030   1.088   .     S
C917   C927    1.395   .     A
C917   H931    1.085   .     S
C917   C919    1.378   .     A
C918   C928    1.391   .     A
C918   H932    1.085   .     S
C918   C920    1.380   .     A
C919   C921    1.399   .     A
C919   Cl949   1.760   .     S
C920   Cl950   1.764   .     S
C920   C922    1.415   .     A
C921   C923    1.403   .     A
C922   C924    1.422   .     A
C923   O951    1.385   .     S
C923   C925    1.394   .     A
C924   C926    1.390   .     A
C924   O959    1.385   .     S
C925   Cl967   1.767   .     S
C925   C927    1.404   .     A
C926   C928    1.396   .     A
C926   Cl968   1.768   .     S
C928   C627    1.438   1_565 S
H929   C1015   1.084   .     S
H930   C1116   1.088   1_455 S
N937   Zn948   2.007   .     S
N938   Zn947   2.007   .     S
O939   Zn947   2.001   .     S
O940   Zn948   2.001   .     S
O941   Zn948   1.996   .     S
O942   Zn947   1.996   .     S
O943   Zn947   1.974   .     S
O944   Zn948   1.974   .     S
O945   Zn948   1.973   .     S
O946   Zn947   1.973   .     S
O951   C952    1.417   .     S
C952   C955    1.520   .     S
C952   H954    1.111   .     S
C952   H953    1.117   .     S
C955   H956    1.109   .     S
C955   H957    1.110   .     S
C955   H958    1.108   .     S
O959   C960    1.414   .     S
C960   C963    1.521   .     S
C960   H962    1.114   .     S
C960   H961    1.116   .     S
C963   H965    1.109   .     S
C963   H966    1.111   .     S
C963   H964    1.111   .     S
O969   C970    1.416   .     S
C970   H971    1.110   .     S
C970   C973    1.523   .     S
C970   H972    1.117   .     S
C973   H975    1.110   .     S
C973   H1074   1.110   .     S
C973   H1076   1.108   .     S
H974   C1173   1.110   1_455 S
H976   C1173   1.108   1_455 S
O977   C978    1.419   .     S
C978   H980    1.118   .     S
C978   H979    1.106   .     S
C978   C981    1.525   .     S
C981   H984    1.110   .     S
C981   H982    1.107   .     S
C981   H1183   1.111   1_455 S
H983   C1081   1.111   .     S
O985   C986    1.417   .     S
C986   H988    1.111   .     S
C986   H987    1.118   .     S
C989   H991    1.111   .     S
C989   H992    1.110   .     S
C989   H990    1.111   .     S
C989   C386    1.523   1_556 S
O993   C994    1.412   .     S
C994   H995    1.115   .     S
C994   H996    1.113   .     S
C994   C397    1.520   1_556 S
C997   H999    1.110   .     S
C997   H1000   1.111   .     S
H998   C397    1.111   1_556 S
C1001  C1021   1.426   .     S
C1001  O1041   1.280   .     A
C1001  O1039   1.285   .     A
C1002  C1022   1.462   .     S
C1002  O1042   1.291   .     A
C1002  O1040   1.293   .     A
C1003  H1033   1.080   .     S
C1003  C1005   1.408   .     A
C1003  C1011   1.408   .     A
C1004  C1012   1.408   .     A
C1004  H1034   1.083   .     S
C1004  C1006   1.407   .     A
C1005  N1037   1.364   .     A
C1005  H1035   1.081   .     S
C1006  N1038   1.363   .     A
C1006  H1036   1.081   .     S
C1007  N1037   1.375   .     A
C1007  C1009   1.418   .     A
C1007  O1069   1.379   .     S
C1008  N1038   1.372   .     A
C1008  O1077   1.383   .     S
C1008  C1010   1.421   .     A
C1009  O1085   1.383   .     S
C1009  C1011   1.405   .     A
C1010  O1093   1.381   .     S
C1010  C1012   1.408   .     A
C1012  C411    1.511   1_556 S
C1013  O1043   1.277   .     A
C1013  C1015   1.395   .     S
C1013  O1045   1.275   .     A
C1014  O1046   1.274   .     A
C1014  C1016   1.397   .     S
C1014  O1044   1.279   .     A
C1016  C1115   1.321   .     S
C1016  H1130   1.088   .     S
C1017  C1027   1.395   .     A
C1017  H1031   1.085   .     S
C1017  C1019   1.378   .     A
C1018  C1028   1.391   .     A
C1018  H1032   1.085   .     S
C1018  C1020   1.380   .     A
C1019  C1021   1.399   .     A
C1019  Cl1049  1.760   .     S
C1020  Cl1050  1.764   .     S
C1020  C1022   1.415   .     A
C1021  C1023   1.403   .     A
C1022  C1024   1.422   .     A
C1023  O1051   1.385   .     S
C1023  C1025   1.394   .     A
C1024  C1026   1.390   .     A
C1024  O1059   1.385   .     S
C1025  Cl1067  1.767   .     S
C1025  C1027   1.404   .     A
C1026  C1028   1.396   .     A
C1026  Cl1068  1.768   .     S
C1028  C727    1.438   1_565 S
H1029  C1115   1.084   .     S
N1037  Zn1048  2.007   .     S
N1038  Zn1047  2.007   .     S
O1039  Zn1047  2.001   .     S
O1040  Zn1048  2.001   .     S
O1041  Zn1048  1.996   .     S
O1042  Zn1047  1.996   .     S
O1043  Zn1047  1.974   .     S
O1044  Zn1048  1.974   .     S
O1045  Zn1048  1.973   .     S
O1046  Zn1047  1.973   .     S
O1051  C1052   1.417   .     S
C1052  C1055   1.520   .     S
C1052  H1054   1.111   .     S
C1052  H1053   1.117   .     S
C1055  H1056   1.109   .     S
C1055  H1057   1.110   .     S
C1055  H1058   1.108   .     S
O1059  C1060   1.414   .     S
C1060  C1063   1.521   .     S
C1060  H1062   1.114   .     S
C1060  H1061   1.116   .     S
C1063  H1065   1.109   .     S
C1063  H1066   1.111   .     S
C1063  H1064   1.111   .     S
O1069  C1070   1.416   .     S
C1070  H1071   1.110   .     S
C1070  C1073   1.523   .     S
C1070  H1072   1.117   .     S
C1073  H1075   1.110   .     S
C1073  H1174   1.110   .     S
C1073  H1176   1.108   .     S
O1077  C1078   1.419   .     S
C1078  H1080   1.118   .     S
C1078  H1079   1.106   .     S
C1078  C1081   1.525   .     S
C1081  H1084   1.110   .     S
C1081  H1082   1.107   .     S
H1083  C1181   1.111   .     S
O1085  C1086   1.417   .     S
C1086  H1088   1.111   .     S
C1086  H1087   1.118   .     S
C1089  H1091   1.111   .     S
C1089  H1092   1.110   .     S
C1089  H1090   1.111   .     S
C1089  C486    1.523   1_556 S
O1093  C1094   1.412   .     S
C1094  H1095   1.115   .     S
C1094  H1096   1.113   .     S
C1094  C497    1.520   1_556 S
C1097  H1099   1.110   .     S
C1097  H1100   1.111   .     S
H1098  C497    1.111   1_556 S
C1101  C1121   1.426   .     S
C1101  O1141   1.280   .     A
C1101  O1139   1.285   .     A
C1102  C1122   1.462   .     S
C1102  O1142   1.291   .     A
C1102  O1140   1.293   .     A
C1103  H1133   1.080   .     S
C1103  C1105   1.408   .     A
C1103  C1111   1.408   .     A
C1104  C1112   1.408   .     A
C1104  H1134   1.083   .     S
C1104  C1106   1.407   .     A
C1105  N1137   1.364   .     A
C1105  H1135   1.081   .     S
C1106  N1138   1.363   .     A
C1106  H1136   1.081   .     S
C1107  N1137   1.375   .     A
C1107  C1109   1.418   .     A
C1107  O1169   1.379   .     S
C1108  N1138   1.372   .     A
C1108  O1177   1.383   .     S
C1108  C1110   1.421   .     A
C1109  O1185   1.383   .     S
C1109  C1111   1.405   .     A
C1110  O1193   1.381   .     S
C1110  C1112   1.408   .     A
C1112  C511    1.511   1_556 S
C1113  O1143   1.277   .     A
C1113  C1115   1.395   .     S
C1113  O1145   1.275   .     A
C1114  O1146   1.274   .     A
C1114  C1116   1.397   .     S
C1114  O1144   1.279   .     A
C1116  C915    1.321   1_655 S
C1116  H930    1.088   1_655 S
C1117  C1127   1.395   .     A
C1117  H1131   1.085   .     S
C1117  C1119   1.378   .     A
C1118  C1128   1.391   .     A
C1118  H1132   1.085   .     S
C1118  C1120   1.380   .     A
C1119  C1121   1.399   .     A
C1119  Cl1149  1.760   .     S
C1120  Cl1150  1.764   .     S
C1120  C1122   1.415   .     A
C1121  C1123   1.403   .     A
C1122  C1124   1.422   .     A
C1123  O1151   1.385   .     S
C1123  C1125   1.394   .     A
C1124  C1126   1.390   .     A
C1124  O1159   1.385   .     S
C1125  Cl1167  1.767   .     S
C1125  C1127   1.404   .     A
C1126  C1128   1.396   .     A
C1126  Cl1168  1.768   .     S
C1128  C827    1.438   1_565 S
H1129  C915    1.084   1_655 S
N1137  Zn1148  2.007   .     S
N1138  Zn1147  2.007   .     S
O1139  Zn1147  2.001   .     S
O1140  Zn1148  2.001   .     S
O1141  Zn1148  1.996   .     S
O1142  Zn1147  1.996   .     S
O1143  Zn1147  1.974   .     S
O1144  Zn1148  1.974   .     S
O1145  Zn1148  1.973   .     S
O1146  Zn1147  1.973   .     S
O1151  C1152   1.417   .     S
C1152  C1155   1.520   .     S
C1152  H1154   1.111   .     S
C1152  H1153   1.117   .     S
C1155  H1156   1.109   .     S
C1155  H1157   1.110   .     S
C1155  H1158   1.108   .     S
O1159  C1160   1.414   .     S
C1160  C1163   1.521   .     S
C1160  H1162   1.114   .     S
C1160  H1161   1.116   .     S
C1163  H1165   1.109   .     S
C1163  H1166   1.111   .     S
C1163  H1164   1.111   .     S
O1169  C1170   1.416   .     S
C1170  H1171   1.110   .     S
C1170  C1173   1.523   .     S
C1170  H1172   1.117   .     S
C1173  H1175   1.110   .     S
C1173  H974    1.110   1_655 S
C1173  H976    1.108   1_655 S
O1177  C1178   1.419   .     S
C1178  H1180   1.118   .     S
C1178  H1179   1.106   .     S
C1178  C1181   1.525   .     S
C1181  H1184   1.110   .     S
C1181  H1182   1.107   .     S
H1183  C981    1.111   1_655 S
O1185  C1186   1.417   .     S
C1186  H1188   1.111   .     S
C1186  H1187   1.118   .     S
C1189  H1191   1.111   .     S
C1189  H1192   1.110   .     S
C1189  H1190   1.111   .     S
C1189  C586    1.523   1_556 S
O1193  C1194   1.412   .     S
C1194  H1195   1.115   .     S
C1194  H1196   1.113   .     S
C1194  C597    1.520   1_556 S
C1197  H1199   1.110   .     S
C1197  H1200   1.111   .     S
H1198  C597    1.111   1_556 S
