data_str_m2_o1_o18_pcu_sym.132
_audit_creation_date              2020-01-03
_audit_creation_method            'Materials Studio'
_symmetry_space_group_name_H-M    'P1'
_symmetry_Int_Tables_number       1
_symmetry_cell_setting            triclinic
loop_
_symmetry_equiv_pos_as_xyz
  x,y,z
_cell_length_a                    28.6861
_cell_length_b                    32.3267
_cell_length_c                    30.8761
_cell_angle_alpha                 89.2573
_cell_angle_beta                  74.6935
_cell_angle_gamma                 89.8686
loop_
_atom_site_label
_atom_site_type_symbol
_atom_site_fract_x
_atom_site_fract_y
_atom_site_fract_z
_atom_site_U_iso_or_equiv
_atom_site_adp_type
_atom_site_occupancy
C1     C     0.33291   0.08756   0.25130   0.00000  Uiso   1.00
C2     C     0.00007   0.24580   0.24966   0.00000  Uiso   1.00
C3     C     0.19163   0.14188   0.04541   0.00000  Uiso   1.00
C4     C     0.13847   0.17352   0.45213   0.00000  Uiso   1.00
C5     C     0.23988   0.13643   0.02297   0.00000  Uiso   1.00
C6     C     0.09010   0.17842   0.47446   0.00000  Uiso   1.00
C7     C     0.30463   0.02064   0.28896   0.00000  Uiso   1.00
C8     C     0.02732   0.31280   0.21167   0.00000  Uiso   1.00
C9     C     0.30554   0.31064   0.28779   0.00000  Uiso   1.00
C10    C     0.02657   0.02277   0.21289   0.00000  Uiso   1.00
C11    C     0.33326   0.29049   0.24949   0.00000  Uiso   1.00
C12    C     0.33258   0.04292   0.25135   0.00000  Uiso   1.00
C13    C     0.18364   0.14171   0.27882   0.00000  Uiso   1.00
C14    C     0.14986   0.19117   0.22076   0.00000  Uiso   1.00
C15    C     0.13427   0.14158   0.27893   0.00000  Uiso   1.00
C16    C     0.19917   0.19159   0.22089   0.00000  Uiso   1.00
C17    C     0.30614   0.16619   0.33609   0.00000  Uiso   1.00
C18    C     0.02718   0.16676   0.16389   0.00000  Uiso   1.00
C19    C     0.29086   0.16228   0.38524   0.00000  Uiso   1.00
C20    C     0.04224   0.16756   0.11458   0.00000  Uiso   1.00
C21    C     0.30543   0.13992   0.45543   0.00000  Uiso   1.00
C22    C     0.02563   0.18018   0.04284   0.00000  Uiso   1.00
C23    C     0.32263   0.14840   0.40969   0.00000  Uiso   1.00
C24    C     0.00946   0.17659   0.08937   0.00000  Uiso   1.00
C25    C     0.24221   0.16894   0.40725   0.00000  Uiso   1.00
C26    C     0.09095   0.16075   0.09271   0.00000  Uiso   1.00
C27    C     0.22352   0.15941   0.45312   0.00000  Uiso   1.00
C28    C     0.10805   0.16303   0.04566   0.00000  Uiso   1.00
C29    C     0.25633   0.14533   0.47730   0.00000  Uiso   1.00
C30    C     0.07454   0.17379   0.02088   0.00000  Uiso   1.00
C31    C     0.17340   0.16341   0.47551   0.00000  Uiso   1.00
C32    C     0.15757   0.15621   0.02277   0.00000  Uiso   1.00
Cu33   Cu    0.04689   0.16667   0.25000   0.00000  Uiso   1.00
Cu34   Cu    0.28645   0.16666   0.25000   0.00000  Uiso   1.00
H35    H     0.26460   0.12522   0.04164   0.00000  Uiso   1.00
H36    H     0.06473   0.18639   0.45517   0.00000  Uiso   1.00
H37    H     0.11509   0.15487   0.11341   0.00000  Uiso   1.00
H38    H     0.21972   0.18172   0.38755   0.00000  Uiso   1.00
H39    H     0.30500   0.18198   0.10558   0.00000  Uiso   1.00
H40    H     0.02702   0.14301   0.39334   0.00000  Uiso   1.00
H41    H     0.33041   0.12837   0.47362   0.00000  Uiso   1.00
H42    H     0.33329   0.18858   0.02406   0.00000  Uiso   1.00
H43    H     0.18215   0.13340   0.08047   0.00000  Uiso   1.00
H44    H     0.14688   0.17706   0.41619   0.00000  Uiso   1.00
H45    H     0.19605   0.12164   0.30180   0.00000  Uiso   1.00
H46    H     0.13770   0.21032   0.19702   0.00000  Uiso   1.00
N47    N     0.11736   0.16668   0.24999   0.00000  Uiso   1.00
N48    N     0.21597   0.16666   0.25001   0.00000  Uiso   1.00
O49    O     0.03958   0.10655   0.25000   0.00000  Uiso   1.00
O50    O     0.29375   0.22678   0.25000   0.00000  Uiso   1.00
O51    O     0.29372   0.10654   0.25000   0.00000  Uiso   1.00
O52    O     0.03961   0.22679   0.25000   0.00000  Uiso   1.00
O53    O     0.01852   0.16668   0.31491   0.00000  Uiso   1.00
O54    O     0.31481   0.16666   0.18508   0.00000  Uiso   1.00
O55    O     0.27267   0.16667   0.31492   0.00000  Uiso   1.00
O56    O     0.06067   0.16667   0.18508   0.00000  Uiso   1.00
C57    C     0.27516   0.04253   0.33075   0.00000  Uiso   1.00
C58    C     0.30435   0.04773   0.36505   0.00000  Uiso   1.00
H59    H     0.31651   0.01723   0.37490   0.00000  Uiso   1.00
H60    H     0.00303   0.06754   0.35078   0.00000  Uiso   1.00
H61    H     0.28163   0.06278   0.39552   0.00000  Uiso   1.00
H62    H     0.26247   0.07335   0.32281   0.00000  Uiso   1.00
H63    H     0.24145   0.02519   0.34640   0.00000  Uiso   1.00
C64    C     0.05674   0.29089   0.16994   0.00000  Uiso   1.00
C65    C     0.11052   0.29103   0.16797   0.00000  Uiso   1.00
H66    H     0.11611   0.28005   0.20043   0.00000  Uiso   1.00
H67    H     0.13029   0.27034   0.14082   0.00000  Uiso   1.00
H68    H     0.12590   0.32260   0.16086   0.00000  Uiso   1.00
H69    H     0.04497   0.25839   0.16865   0.00000  Uiso   1.00
H70    H     0.05103   0.30583   0.13916   0.00000  Uiso   1.00
Cl71   Cl    0.27345   0.28099   0.33510   0.00000  Uiso   1.00
Cl72   Cl    0.05780   0.05240   0.16521   0.00000  Uiso   1.00
Cl73   Cl    0.09608   0.10748   0.31661   0.00000  Uiso   1.00
Cl74   Cl    0.23761   0.22543   0.18289   0.00000  Uiso   1.00
C75    C     0.66625   0.08756   0.25130   0.00000  Uiso   1.00
C76    C     0.33341   0.24580   0.24966   0.00000  Uiso   1.00
C77    C     0.52496   0.14188   0.04541   0.00000  Uiso   1.00
C78    C     0.47180   0.17352   0.45213   0.00000  Uiso   1.00
C79    C     0.57322   0.13643   0.02297   0.00000  Uiso   1.00
C80    C     0.42344   0.17842   0.47446   0.00000  Uiso   1.00
C81    C     0.63796   0.02064   0.28896   0.00000  Uiso   1.00
C82    C     0.36065   0.31280   0.21167   0.00000  Uiso   1.00
C83    C     0.63888   0.31064   0.28779   0.00000  Uiso   1.00
C84    C     0.35990   0.02277   0.21289   0.00000  Uiso   1.00
C85    C     0.66659   0.29049   0.24949   0.00000  Uiso   1.00
C86    C     0.66592   0.04292   0.25135   0.00000  Uiso   1.00
C87    C     0.51698   0.14171   0.27882   0.00000  Uiso   1.00
C88    C     0.48319   0.19117   0.22076   0.00000  Uiso   1.00
C89    C     0.46760   0.14158   0.27893   0.00000  Uiso   1.00
C90    C     0.53250   0.19159   0.22089   0.00000  Uiso   1.00
C91    C     0.63948   0.16619   0.33609   0.00000  Uiso   1.00
C92    C     0.36052   0.16676   0.16389   0.00000  Uiso   1.00
C93    C     0.62419   0.16228   0.38524   0.00000  Uiso   1.00
C94    C     0.37557   0.16756   0.11458   0.00000  Uiso   1.00
C95    C     0.63876   0.13992   0.45543   0.00000  Uiso   1.00
C96    C     0.35897   0.18018   0.04284   0.00000  Uiso   1.00
C97    C     0.65596   0.14840   0.40969   0.00000  Uiso   1.00
C98    C     0.34279   0.17659   0.08937   0.00000  Uiso   1.00
C99    C     0.57554   0.16894   0.40725   0.00000  Uiso   1.00
C100   C     0.42428   0.16075   0.09271   0.00000  Uiso   1.00
C101   C     0.55685   0.15941   0.45312   0.00000  Uiso   1.00
C102   C     0.44138   0.16303   0.04566   0.00000  Uiso   1.00
C103   C     0.58966   0.14533   0.47730   0.00000  Uiso   1.00
C104   C     0.40787   0.17379   0.02088   0.00000  Uiso   1.00
C105   C     0.50674   0.16341   0.47551   0.00000  Uiso   1.00
C106   C     0.49091   0.15621   0.02277   0.00000  Uiso   1.00
Cu107  Cu    0.38022   0.16667   0.25000   0.00000  Uiso   1.00
Cu108  Cu    0.61978   0.16666   0.25000   0.00000  Uiso   1.00
H109   H     0.59793   0.12522   0.04164   0.00000  Uiso   1.00
H110   H     0.39807   0.18639   0.45517   0.00000  Uiso   1.00
H111   H     0.44843   0.15487   0.11341   0.00000  Uiso   1.00
H112   H     0.55306   0.18172   0.38755   0.00000  Uiso   1.00
H113   H     0.63833   0.18198   0.10558   0.00000  Uiso   1.00
H114   H     0.36036   0.14301   0.39334   0.00000  Uiso   1.00
H115   H     0.66374   0.12837   0.47362   0.00000  Uiso   1.00
H116   H     0.66662   0.18858   0.02406   0.00000  Uiso   1.00
H117   H     0.51548   0.13340   0.08047   0.00000  Uiso   1.00
H118   H     0.48021   0.17706   0.41619   0.00000  Uiso   1.00
H119   H     0.52938   0.12164   0.30180   0.00000  Uiso   1.00
H120   H     0.47104   0.21032   0.19702   0.00000  Uiso   1.00
N121   N     0.45069   0.16668   0.24999   0.00000  Uiso   1.00
N122   N     0.54931   0.16666   0.25001   0.00000  Uiso   1.00
O123   O     0.37291   0.10655   0.25000   0.00000  Uiso   1.00
O124   O     0.62709   0.22678   0.25000   0.00000  Uiso   1.00
O125   O     0.62706   0.10654   0.25000   0.00000  Uiso   1.00
O126   O     0.37294   0.22679   0.25000   0.00000  Uiso   1.00
O127   O     0.35186   0.16668   0.31491   0.00000  Uiso   1.00
O128   O     0.64814   0.16666   0.18508   0.00000  Uiso   1.00
O129   O     0.60600   0.16667   0.31492   0.00000  Uiso   1.00
O130   O     0.39400   0.16667   0.18508   0.00000  Uiso   1.00
C131   C     0.60849   0.04253   0.33075   0.00000  Uiso   1.00
C132   C     0.63769   0.04773   0.36505   0.00000  Uiso   1.00
H133   H     0.64984   0.01723   0.37490   0.00000  Uiso   1.00
H134   H     0.33637   0.06754   0.35078   0.00000  Uiso   1.00
H135   H     0.61496   0.06278   0.39552   0.00000  Uiso   1.00
H136   H     0.59581   0.07335   0.32281   0.00000  Uiso   1.00
H137   H     0.57478   0.02519   0.34640   0.00000  Uiso   1.00
C138   C     0.39007   0.29089   0.16994   0.00000  Uiso   1.00
C139   C     0.44385   0.29103   0.16797   0.00000  Uiso   1.00
H140   H     0.44944   0.28005   0.20043   0.00000  Uiso   1.00
H141   H     0.46362   0.27034   0.14082   0.00000  Uiso   1.00
H142   H     0.45924   0.32260   0.16086   0.00000  Uiso   1.00
H143   H     0.37830   0.25839   0.16865   0.00000  Uiso   1.00
H144   H     0.38437   0.30583   0.13916   0.00000  Uiso   1.00
Cl145  Cl    0.60678   0.28099   0.33510   0.00000  Uiso   1.00
Cl146  Cl    0.39114   0.05240   0.16521   0.00000  Uiso   1.00
Cl147  Cl    0.42941   0.10748   0.31661   0.00000  Uiso   1.00
Cl148  Cl    0.57094   0.22543   0.18289   0.00000  Uiso   1.00
C149   C     0.99958   0.08756   0.25130   0.00000  Uiso   1.00
C150   C     0.66674   0.24580   0.24966   0.00000  Uiso   1.00
C151   C     0.85830   0.14188   0.04541   0.00000  Uiso   1.00
C152   C     0.80513   0.17352   0.45213   0.00000  Uiso   1.00
C153   C     0.90655   0.13643   0.02297   0.00000  Uiso   1.00
C154   C     0.75677   0.17842   0.47446   0.00000  Uiso   1.00
C155   C     0.97130   0.02064   0.28896   0.00000  Uiso   1.00
C156   C     0.69399   0.31280   0.21167   0.00000  Uiso   1.00
C157   C     0.97221   0.31064   0.28779   0.00000  Uiso   1.00
C158   C     0.69323   0.02277   0.21289   0.00000  Uiso   1.00
C159   C     0.99993   0.29049   0.24949   0.00000  Uiso   1.00
C160   C     0.99925   0.04292   0.25135   0.00000  Uiso   1.00
C161   C     0.85031   0.14171   0.27882   0.00000  Uiso   1.00
C162   C     0.81653   0.19117   0.22076   0.00000  Uiso   1.00
C163   C     0.80094   0.14158   0.27893   0.00000  Uiso   1.00
C164   C     0.86583   0.19159   0.22089   0.00000  Uiso   1.00
C165   C     0.97281   0.16619   0.33609   0.00000  Uiso   1.00
C166   C     0.69385   0.16676   0.16389   0.00000  Uiso   1.00
C167   C     0.95753   0.16228   0.38524   0.00000  Uiso   1.00
C168   C     0.70891   0.16756   0.11458   0.00000  Uiso   1.00
C169   C     0.97209   0.13992   0.45543   0.00000  Uiso   1.00
C170   C     0.69230   0.18018   0.04284   0.00000  Uiso   1.00
C171   C     0.98929   0.14840   0.40969   0.00000  Uiso   1.00
C172   C     0.67612   0.17659   0.08937   0.00000  Uiso   1.00
C173   C     0.90887   0.16894   0.40725   0.00000  Uiso   1.00
C174   C     0.75761   0.16075   0.09271   0.00000  Uiso   1.00
C175   C     0.89019   0.15941   0.45312   0.00000  Uiso   1.00
C176   C     0.77472   0.16303   0.04566   0.00000  Uiso   1.00
C177   C     0.92299   0.14533   0.47730   0.00000  Uiso   1.00
C178   C     0.74121   0.17379   0.02088   0.00000  Uiso   1.00
C179   C     0.84007   0.16341   0.47551   0.00000  Uiso   1.00
C180   C     0.82424   0.15621   0.02277   0.00000  Uiso   1.00
Cu181  Cu    0.71355   0.16667   0.25000   0.00000  Uiso   1.00
Cu182  Cu    0.95311   0.16666   0.25000   0.00000  Uiso   1.00
H183   H     0.93127   0.12522   0.04164   0.00000  Uiso   1.00
H184   H     0.73140   0.18639   0.45517   0.00000  Uiso   1.00
H185   H     0.78176   0.15487   0.11341   0.00000  Uiso   1.00
H186   H     0.88639   0.18172   0.38755   0.00000  Uiso   1.00
H187   H     0.97166   0.18198   0.10558   0.00000  Uiso   1.00
H188   H     0.69369   0.14301   0.39334   0.00000  Uiso   1.00
H189   H     0.99707   0.12837   0.47362   0.00000  Uiso   1.00
H190   H     0.99996   0.18858   0.02406   0.00000  Uiso   1.00
H191   H     0.84881   0.13340   0.08047   0.00000  Uiso   1.00
H192   H     0.81354   0.17706   0.41619   0.00000  Uiso   1.00
H193   H     0.86272   0.12164   0.30180   0.00000  Uiso   1.00
H194   H     0.80437   0.21032   0.19702   0.00000  Uiso   1.00
N195   N     0.78403   0.16668   0.24999   0.00000  Uiso   1.00
N196   N     0.88264   0.16666   0.25001   0.00000  Uiso   1.00
O197   O     0.70625   0.10655   0.25000   0.00000  Uiso   1.00
O198   O     0.96042   0.22678   0.25000   0.00000  Uiso   1.00
O199   O     0.96039   0.10654   0.25000   0.00000  Uiso   1.00
O200   O     0.70628   0.22679   0.25000   0.00000  Uiso   1.00
O201   O     0.68519   0.16668   0.31491   0.00000  Uiso   1.00
O202   O     0.98148   0.16666   0.18508   0.00000  Uiso   1.00
O203   O     0.93933   0.16667   0.31492   0.00000  Uiso   1.00
O204   O     0.72733   0.16667   0.18508   0.00000  Uiso   1.00
C205   C     0.94182   0.04253   0.33075   0.00000  Uiso   1.00
C206   C     0.97102   0.04773   0.36505   0.00000  Uiso   1.00
H207   H     0.98317   0.01723   0.37490   0.00000  Uiso   1.00
H208   H     0.66970   0.06754   0.35078   0.00000  Uiso   1.00
H209   H     0.94830   0.06278   0.39552   0.00000  Uiso   1.00
H210   H     0.92914   0.07335   0.32281   0.00000  Uiso   1.00
H211   H     0.90811   0.02519   0.34640   0.00000  Uiso   1.00
C212   C     0.72341   0.29089   0.16994   0.00000  Uiso   1.00
C213   C     0.77718   0.29103   0.16797   0.00000  Uiso   1.00
H214   H     0.78277   0.28005   0.20043   0.00000  Uiso   1.00
H215   H     0.79696   0.27034   0.14082   0.00000  Uiso   1.00
H216   H     0.79257   0.32260   0.16086   0.00000  Uiso   1.00
H217   H     0.71163   0.25839   0.16865   0.00000  Uiso   1.00
H218   H     0.71770   0.30583   0.13916   0.00000  Uiso   1.00
Cl219  Cl    0.94012   0.28099   0.33510   0.00000  Uiso   1.00
Cl220  Cl    0.72447   0.05240   0.16521   0.00000  Uiso   1.00
Cl221  Cl    0.76275   0.10748   0.31661   0.00000  Uiso   1.00
Cl222  Cl    0.90428   0.22543   0.18289   0.00000  Uiso   1.00
C223   C     0.33291   0.42089   0.25130   0.00000  Uiso   1.00
C224   C     0.00007   0.57913   0.24966   0.00000  Uiso   1.00
C225   C     0.19163   0.47522   0.04541   0.00000  Uiso   1.00
C226   C     0.13847   0.50685   0.45213   0.00000  Uiso   1.00
C227   C     0.23988   0.46976   0.02297   0.00000  Uiso   1.00
C228   C     0.09010   0.51175   0.47446   0.00000  Uiso   1.00
C229   C     0.30463   0.35397   0.28896   0.00000  Uiso   1.00
C230   C     0.02732   0.64613   0.21167   0.00000  Uiso   1.00
C231   C     0.30554   0.64397   0.28779   0.00000  Uiso   1.00
C232   C     0.02657   0.35611   0.21289   0.00000  Uiso   1.00
C233   C     0.33326   0.62382   0.24949   0.00000  Uiso   1.00
C234   C     0.33258   0.37625   0.25135   0.00000  Uiso   1.00
C235   C     0.18364   0.47504   0.27882   0.00000  Uiso   1.00
C236   C     0.14986   0.52450   0.22076   0.00000  Uiso   1.00
C237   C     0.13427   0.47491   0.27893   0.00000  Uiso   1.00
C238   C     0.19917   0.52493   0.22089   0.00000  Uiso   1.00
C239   C     0.30614   0.49953   0.33609   0.00000  Uiso   1.00
C240   C     0.02718   0.50009   0.16389   0.00000  Uiso   1.00
C241   C     0.29086   0.49561   0.38524   0.00000  Uiso   1.00
C242   C     0.04224   0.50089   0.11458   0.00000  Uiso   1.00
C243   C     0.30543   0.47325   0.45543   0.00000  Uiso   1.00
C244   C     0.02563   0.51351   0.04284   0.00000  Uiso   1.00
C245   C     0.32263   0.48173   0.40969   0.00000  Uiso   1.00
C246   C     0.00946   0.50992   0.08937   0.00000  Uiso   1.00
C247   C     0.24221   0.50227   0.40725   0.00000  Uiso   1.00
C248   C     0.09095   0.49409   0.09271   0.00000  Uiso   1.00
C249   C     0.22352   0.49275   0.45312   0.00000  Uiso   1.00
C250   C     0.10805   0.49636   0.04566   0.00000  Uiso   1.00
C251   C     0.25633   0.47866   0.47730   0.00000  Uiso   1.00
C252   C     0.07454   0.50712   0.02088   0.00000  Uiso   1.00
C253   C     0.17340   0.49675   0.47551   0.00000  Uiso   1.00
C254   C     0.15757   0.48954   0.02277   0.00000  Uiso   1.00
Cu255  Cu    0.04689   0.50001   0.25000   0.00000  Uiso   1.00
Cu256  Cu    0.28645   0.49999   0.25000   0.00000  Uiso   1.00
H257   H     0.26460   0.45855   0.04164   0.00000  Uiso   1.00
H258   H     0.06473   0.51972   0.45517   0.00000  Uiso   1.00
H259   H     0.11509   0.48820   0.11341   0.00000  Uiso   1.00
H260   H     0.21972   0.51505   0.38755   0.00000  Uiso   1.00
H261   H     0.30500   0.51531   0.10558   0.00000  Uiso   1.00
H262   H     0.02702   0.47634   0.39334   0.00000  Uiso   1.00
H263   H     0.33041   0.46171   0.47362   0.00000  Uiso   1.00
H264   H     0.33329   0.52191   0.02406   0.00000  Uiso   1.00
H265   H     0.18215   0.46673   0.08047   0.00000  Uiso   1.00
H266   H     0.14688   0.51039   0.41619   0.00000  Uiso   1.00
H267   H     0.19605   0.45497   0.30180   0.00000  Uiso   1.00
H268   H     0.13770   0.54365   0.19702   0.00000  Uiso   1.00
N269   N     0.11736   0.50001   0.24999   0.00000  Uiso   1.00
N270   N     0.21597   0.49999   0.25001   0.00000  Uiso   1.00
O271   O     0.03958   0.43989   0.25000   0.00000  Uiso   1.00
O272   O     0.29375   0.56011   0.25000   0.00000  Uiso   1.00
O273   O     0.29372   0.43988   0.25000   0.00000  Uiso   1.00
O274   O     0.03961   0.56012   0.25000   0.00000  Uiso   1.00
O275   O     0.01852   0.50001   0.31491   0.00000  Uiso   1.00
O276   O     0.31481   0.49999   0.18508   0.00000  Uiso   1.00
O277   O     0.27267   0.50000   0.31492   0.00000  Uiso   1.00
O278   O     0.06067   0.50000   0.18508   0.00000  Uiso   1.00
C279   C     0.27516   0.37586   0.33075   0.00000  Uiso   1.00
C280   C     0.30435   0.38107   0.36505   0.00000  Uiso   1.00
H281   H     0.31651   0.35057   0.37490   0.00000  Uiso   1.00
H282   H     0.00303   0.40087   0.35078   0.00000  Uiso   1.00
H283   H     0.28163   0.39611   0.39552   0.00000  Uiso   1.00
H284   H     0.26247   0.40668   0.32281   0.00000  Uiso   1.00
H285   H     0.24145   0.35852   0.34640   0.00000  Uiso   1.00
C286   C     0.05674   0.62422   0.16994   0.00000  Uiso   1.00
C287   C     0.11052   0.62436   0.16797   0.00000  Uiso   1.00
H288   H     0.11611   0.61338   0.20043   0.00000  Uiso   1.00
H289   H     0.13029   0.60367   0.14082   0.00000  Uiso   1.00
H290   H     0.12590   0.65593   0.16086   0.00000  Uiso   1.00
H291   H     0.04497   0.59172   0.16865   0.00000  Uiso   1.00
H292   H     0.05103   0.63916   0.13916   0.00000  Uiso   1.00
Cl293  Cl    0.27345   0.61432   0.33510   0.00000  Uiso   1.00
Cl294  Cl    0.05780   0.38574   0.16521   0.00000  Uiso   1.00
Cl295  Cl    0.09608   0.44081   0.31661   0.00000  Uiso   1.00
Cl296  Cl    0.23761   0.55876   0.18289   0.00000  Uiso   1.00
C297   C     0.66625   0.42089   0.25130   0.00000  Uiso   1.00
C298   C     0.33341   0.57913   0.24966   0.00000  Uiso   1.00
C299   C     0.52496   0.47522   0.04541   0.00000  Uiso   1.00
C300   C     0.47180   0.50685   0.45213   0.00000  Uiso   1.00
C301   C     0.57322   0.46976   0.02297   0.00000  Uiso   1.00
C302   C     0.42344   0.51175   0.47446   0.00000  Uiso   1.00
C303   C     0.63796   0.35397   0.28896   0.00000  Uiso   1.00
C304   C     0.36065   0.64613   0.21167   0.00000  Uiso   1.00
C305   C     0.63888   0.64397   0.28779   0.00000  Uiso   1.00
C306   C     0.35990   0.35611   0.21289   0.00000  Uiso   1.00
C307   C     0.66659   0.62382   0.24949   0.00000  Uiso   1.00
C308   C     0.66592   0.37625   0.25135   0.00000  Uiso   1.00
C309   C     0.51698   0.47504   0.27882   0.00000  Uiso   1.00
C310   C     0.48319   0.52450   0.22076   0.00000  Uiso   1.00
C311   C     0.46760   0.47491   0.27893   0.00000  Uiso   1.00
C312   C     0.53250   0.52493   0.22089   0.00000  Uiso   1.00
C313   C     0.63948   0.49953   0.33609   0.00000  Uiso   1.00
C314   C     0.36052   0.50009   0.16389   0.00000  Uiso   1.00
C315   C     0.62419   0.49561   0.38524   0.00000  Uiso   1.00
C316   C     0.37557   0.50089   0.11458   0.00000  Uiso   1.00
C317   C     0.63876   0.47325   0.45543   0.00000  Uiso   1.00
C318   C     0.35897   0.51351   0.04284   0.00000  Uiso   1.00
C319   C     0.65596   0.48173   0.40969   0.00000  Uiso   1.00
C320   C     0.34279   0.50992   0.08937   0.00000  Uiso   1.00
C321   C     0.57554   0.50227   0.40725   0.00000  Uiso   1.00
C322   C     0.42428   0.49409   0.09271   0.00000  Uiso   1.00
C323   C     0.55685   0.49275   0.45312   0.00000  Uiso   1.00
C324   C     0.44138   0.49636   0.04566   0.00000  Uiso   1.00
C325   C     0.58966   0.47866   0.47730   0.00000  Uiso   1.00
C326   C     0.40787   0.50712   0.02088   0.00000  Uiso   1.00
C327   C     0.50674   0.49675   0.47551   0.00000  Uiso   1.00
C328   C     0.49091   0.48954   0.02277   0.00000  Uiso   1.00
Cu329  Cu    0.38022   0.50001   0.25000   0.00000  Uiso   1.00
Cu330  Cu    0.61978   0.49999   0.25000   0.00000  Uiso   1.00
H331   H     0.59793   0.45855   0.04164   0.00000  Uiso   1.00
H332   H     0.39807   0.51972   0.45517   0.00000  Uiso   1.00
H333   H     0.44843   0.48820   0.11341   0.00000  Uiso   1.00
H334   H     0.55306   0.51505   0.38755   0.00000  Uiso   1.00
H335   H     0.63833   0.51531   0.10558   0.00000  Uiso   1.00
H336   H     0.36036   0.47634   0.39334   0.00000  Uiso   1.00
H337   H     0.66374   0.46171   0.47362   0.00000  Uiso   1.00
H338   H     0.66662   0.52191   0.02406   0.00000  Uiso   1.00
H339   H     0.51548   0.46673   0.08047   0.00000  Uiso   1.00
H340   H     0.48021   0.51039   0.41619   0.00000  Uiso   1.00
H341   H     0.52938   0.45497   0.30180   0.00000  Uiso   1.00
H342   H     0.47104   0.54365   0.19702   0.00000  Uiso   1.00
N343   N     0.45069   0.50001   0.24999   0.00000  Uiso   1.00
N344   N     0.54931   0.49999   0.25001   0.00000  Uiso   1.00
O345   O     0.37291   0.43989   0.25000   0.00000  Uiso   1.00
O346   O     0.62709   0.56011   0.25000   0.00000  Uiso   1.00
O347   O     0.62706   0.43988   0.25000   0.00000  Uiso   1.00
O348   O     0.37294   0.56012   0.25000   0.00000  Uiso   1.00
O349   O     0.35186   0.50001   0.31491   0.00000  Uiso   1.00
O350   O     0.64814   0.49999   0.18508   0.00000  Uiso   1.00
O351   O     0.60600   0.50000   0.31492   0.00000  Uiso   1.00
O352   O     0.39400   0.50000   0.18508   0.00000  Uiso   1.00
C353   C     0.60849   0.37586   0.33075   0.00000  Uiso   1.00
C354   C     0.63769   0.38107   0.36505   0.00000  Uiso   1.00
H355   H     0.64984   0.35057   0.37490   0.00000  Uiso   1.00
H356   H     0.33637   0.40087   0.35078   0.00000  Uiso   1.00
H357   H     0.61496   0.39611   0.39552   0.00000  Uiso   1.00
H358   H     0.59581   0.40668   0.32281   0.00000  Uiso   1.00
H359   H     0.57478   0.35852   0.34640   0.00000  Uiso   1.00
C360   C     0.39007   0.62422   0.16994   0.00000  Uiso   1.00
C361   C     0.44385   0.62436   0.16797   0.00000  Uiso   1.00
H362   H     0.44944   0.61338   0.20043   0.00000  Uiso   1.00
H363   H     0.46362   0.60367   0.14082   0.00000  Uiso   1.00
H364   H     0.45924   0.65593   0.16086   0.00000  Uiso   1.00
H365   H     0.37830   0.59172   0.16865   0.00000  Uiso   1.00
H366   H     0.38437   0.63916   0.13916   0.00000  Uiso   1.00
Cl367  Cl    0.60678   0.61432   0.33510   0.00000  Uiso   1.00
Cl368  Cl    0.39114   0.38574   0.16521   0.00000  Uiso   1.00
Cl369  Cl    0.42941   0.44081   0.31661   0.00000  Uiso   1.00
Cl370  Cl    0.57094   0.55876   0.18289   0.00000  Uiso   1.00
C371   C     0.99958   0.42089   0.25130   0.00000  Uiso   1.00
C372   C     0.66674   0.57913   0.24966   0.00000  Uiso   1.00
C373   C     0.85830   0.47522   0.04541   0.00000  Uiso   1.00
C374   C     0.80513   0.50685   0.45213   0.00000  Uiso   1.00
C375   C     0.90655   0.46976   0.02297   0.00000  Uiso   1.00
C376   C     0.75677   0.51175   0.47446   0.00000  Uiso   1.00
C377   C     0.97130   0.35397   0.28896   0.00000  Uiso   1.00
C378   C     0.69399   0.64613   0.21167   0.00000  Uiso   1.00
C379   C     0.97221   0.64397   0.28779   0.00000  Uiso   1.00
C380   C     0.69323   0.35611   0.21289   0.00000  Uiso   1.00
C381   C     0.99993   0.62382   0.24949   0.00000  Uiso   1.00
C382   C     0.99925   0.37625   0.25135   0.00000  Uiso   1.00
C383   C     0.85031   0.47504   0.27882   0.00000  Uiso   1.00
C384   C     0.81653   0.52450   0.22076   0.00000  Uiso   1.00
C385   C     0.80094   0.47491   0.27893   0.00000  Uiso   1.00
C386   C     0.86583   0.52493   0.22089   0.00000  Uiso   1.00
C387   C     0.97281   0.49953   0.33609   0.00000  Uiso   1.00
C388   C     0.69385   0.50009   0.16389   0.00000  Uiso   1.00
C389   C     0.95753   0.49561   0.38524   0.00000  Uiso   1.00
C390   C     0.70891   0.50089   0.11458   0.00000  Uiso   1.00
C391   C     0.97209   0.47325   0.45543   0.00000  Uiso   1.00
C392   C     0.69230   0.51351   0.04284   0.00000  Uiso   1.00
C393   C     0.98929   0.48173   0.40969   0.00000  Uiso   1.00
C394   C     0.67612   0.50992   0.08937   0.00000  Uiso   1.00
C395   C     0.90887   0.50227   0.40725   0.00000  Uiso   1.00
C396   C     0.75761   0.49409   0.09271   0.00000  Uiso   1.00
C397   C     0.89019   0.49275   0.45312   0.00000  Uiso   1.00
C398   C     0.77472   0.49636   0.04566   0.00000  Uiso   1.00
C399   C     0.92299   0.47866   0.47730   0.00000  Uiso   1.00
C400   C     0.74121   0.50712   0.02088   0.00000  Uiso   1.00
C401   C     0.84007   0.49675   0.47551   0.00000  Uiso   1.00
C402   C     0.82424   0.48954   0.02277   0.00000  Uiso   1.00
Cu403  Cu    0.71355   0.50001   0.25000   0.00000  Uiso   1.00
Cu404  Cu    0.95311   0.49999   0.25000   0.00000  Uiso   1.00
H405   H     0.93127   0.45855   0.04164   0.00000  Uiso   1.00
H406   H     0.73140   0.51972   0.45517   0.00000  Uiso   1.00
H407   H     0.78176   0.48820   0.11341   0.00000  Uiso   1.00
H408   H     0.88639   0.51505   0.38755   0.00000  Uiso   1.00
H409   H     0.97166   0.51531   0.10558   0.00000  Uiso   1.00
H410   H     0.69369   0.47634   0.39334   0.00000  Uiso   1.00
H411   H     0.99707   0.46171   0.47362   0.00000  Uiso   1.00
H412   H     0.99996   0.52191   0.02406   0.00000  Uiso   1.00
H413   H     0.84881   0.46673   0.08047   0.00000  Uiso   1.00
H414   H     0.81354   0.51039   0.41619   0.00000  Uiso   1.00
H415   H     0.86272   0.45497   0.30180   0.00000  Uiso   1.00
H416   H     0.80437   0.54365   0.19702   0.00000  Uiso   1.00
N417   N     0.78403   0.50001   0.24999   0.00000  Uiso   1.00
N418   N     0.88264   0.49999   0.25001   0.00000  Uiso   1.00
O419   O     0.70625   0.43989   0.25000   0.00000  Uiso   1.00
O420   O     0.96042   0.56011   0.25000   0.00000  Uiso   1.00
O421   O     0.96039   0.43988   0.25000   0.00000  Uiso   1.00
O422   O     0.70628   0.56012   0.25000   0.00000  Uiso   1.00
O423   O     0.68519   0.50001   0.31491   0.00000  Uiso   1.00
O424   O     0.98148   0.49999   0.18508   0.00000  Uiso   1.00
O425   O     0.93933   0.50000   0.31492   0.00000  Uiso   1.00
O426   O     0.72733   0.50000   0.18508   0.00000  Uiso   1.00
C427   C     0.94182   0.37586   0.33075   0.00000  Uiso   1.00
C428   C     0.97102   0.38107   0.36505   0.00000  Uiso   1.00
H429   H     0.98317   0.35057   0.37490   0.00000  Uiso   1.00
H430   H     0.66970   0.40087   0.35078   0.00000  Uiso   1.00
H431   H     0.94830   0.39611   0.39552   0.00000  Uiso   1.00
H432   H     0.92914   0.40668   0.32281   0.00000  Uiso   1.00
H433   H     0.90811   0.35852   0.34640   0.00000  Uiso   1.00
C434   C     0.72341   0.62422   0.16994   0.00000  Uiso   1.00
C435   C     0.77718   0.62436   0.16797   0.00000  Uiso   1.00
H436   H     0.78277   0.61338   0.20043   0.00000  Uiso   1.00
H437   H     0.79696   0.60367   0.14082   0.00000  Uiso   1.00
H438   H     0.79257   0.65593   0.16086   0.00000  Uiso   1.00
H439   H     0.71163   0.59172   0.16865   0.00000  Uiso   1.00
H440   H     0.71770   0.63916   0.13916   0.00000  Uiso   1.00
Cl441  Cl    0.94012   0.61432   0.33510   0.00000  Uiso   1.00
Cl442  Cl    0.72447   0.38574   0.16521   0.00000  Uiso   1.00
Cl443  Cl    0.76275   0.44081   0.31661   0.00000  Uiso   1.00
Cl444  Cl    0.90428   0.55876   0.18289   0.00000  Uiso   1.00
C445   C     0.33291   0.75423   0.25130   0.00000  Uiso   1.00
C446   C     0.00007   0.91247   0.24966   0.00000  Uiso   1.00
C447   C     0.19163   0.80855   0.04541   0.00000  Uiso   1.00
C448   C     0.13847   0.84019   0.45213   0.00000  Uiso   1.00
C449   C     0.23988   0.80310   0.02297   0.00000  Uiso   1.00
C450   C     0.09010   0.84509   0.47446   0.00000  Uiso   1.00
C451   C     0.30463   0.68730   0.28896   0.00000  Uiso   1.00
C452   C     0.02732   0.97947   0.21167   0.00000  Uiso   1.00
C453   C     0.30554   0.97731   0.28779   0.00000  Uiso   1.00
C454   C     0.02657   0.68944   0.21289   0.00000  Uiso   1.00
C455   C     0.33326   0.95715   0.24949   0.00000  Uiso   1.00
C456   C     0.33258   0.70958   0.25135   0.00000  Uiso   1.00
C457   C     0.18364   0.80837   0.27882   0.00000  Uiso   1.00
C458   C     0.14986   0.85783   0.22076   0.00000  Uiso   1.00
C459   C     0.13427   0.80825   0.27893   0.00000  Uiso   1.00
C460   C     0.19917   0.85826   0.22089   0.00000  Uiso   1.00
C461   C     0.30614   0.83286   0.33609   0.00000  Uiso   1.00
C462   C     0.02718   0.83342   0.16389   0.00000  Uiso   1.00
C463   C     0.29086   0.82895   0.38524   0.00000  Uiso   1.00
C464   C     0.04224   0.83423   0.11458   0.00000  Uiso   1.00
C465   C     0.30543   0.80658   0.45543   0.00000  Uiso   1.00
C466   C     0.02563   0.84684   0.04284   0.00000  Uiso   1.00
C467   C     0.32263   0.81507   0.40969   0.00000  Uiso   1.00
C468   C     0.00946   0.84326   0.08937   0.00000  Uiso   1.00
C469   C     0.24221   0.83561   0.40725   0.00000  Uiso   1.00
C470   C     0.09095   0.82742   0.09271   0.00000  Uiso   1.00
C471   C     0.22352   0.82608   0.45312   0.00000  Uiso   1.00
C472   C     0.10805   0.82969   0.04566   0.00000  Uiso   1.00
C473   C     0.25633   0.81200   0.47730   0.00000  Uiso   1.00
C474   C     0.07454   0.84046   0.02088   0.00000  Uiso   1.00
C475   C     0.17340   0.83008   0.47551   0.00000  Uiso   1.00
C476   C     0.15757   0.82288   0.02277   0.00000  Uiso   1.00
Cu477  Cu    0.04689   0.83334   0.25000   0.00000  Uiso   1.00
Cu478  Cu    0.28645   0.83333   0.25000   0.00000  Uiso   1.00
H479   H     0.26460   0.79188   0.04164   0.00000  Uiso   1.00
H480   H     0.06473   0.85305   0.45517   0.00000  Uiso   1.00
H481   H     0.11509   0.82153   0.11341   0.00000  Uiso   1.00
H482   H     0.21972   0.84839   0.38755   0.00000  Uiso   1.00
H483   H     0.30500   0.84865   0.10558   0.00000  Uiso   1.00
H484   H     0.02702   0.80967   0.39334   0.00000  Uiso   1.00
H485   H     0.33041   0.79504   0.47362   0.00000  Uiso   1.00
H486   H     0.33329   0.85525   0.02406   0.00000  Uiso   1.00
H487   H     0.18215   0.80007   0.08047   0.00000  Uiso   1.00
H488   H     0.14688   0.84372   0.41619   0.00000  Uiso   1.00
H489   H     0.19605   0.78831   0.30180   0.00000  Uiso   1.00
H490   H     0.13770   0.87699   0.19702   0.00000  Uiso   1.00
N491   N     0.11736   0.83334   0.24999   0.00000  Uiso   1.00
N492   N     0.21597   0.83332   0.25001   0.00000  Uiso   1.00
O493   O     0.03958   0.77322   0.25000   0.00000  Uiso   1.00
O494   O     0.29375   0.89345   0.25000   0.00000  Uiso   1.00
O495   O     0.29372   0.77321   0.25000   0.00000  Uiso   1.00
O496   O     0.03961   0.89346   0.25000   0.00000  Uiso   1.00
O497   O     0.01852   0.83334   0.31491   0.00000  Uiso   1.00
O498   O     0.31481   0.83332   0.18508   0.00000  Uiso   1.00
O499   O     0.27267   0.83333   0.31492   0.00000  Uiso   1.00
O500   O     0.06067   0.83333   0.18508   0.00000  Uiso   1.00
C501   C     0.27516   0.70920   0.33075   0.00000  Uiso   1.00
C502   C     0.30435   0.71440   0.36505   0.00000  Uiso   1.00
H503   H     0.31651   0.68390   0.37490   0.00000  Uiso   1.00
H504   H     0.00303   0.73420   0.35078   0.00000  Uiso   1.00
H505   H     0.28163   0.72945   0.39552   0.00000  Uiso   1.00
H506   H     0.26247   0.74002   0.32281   0.00000  Uiso   1.00
H507   H     0.24145   0.69185   0.34640   0.00000  Uiso   1.00
C508   C     0.05674   0.95755   0.16994   0.00000  Uiso   1.00
C509   C     0.11052   0.95770   0.16797   0.00000  Uiso   1.00
H510   H     0.11611   0.94671   0.20043   0.00000  Uiso   1.00
H511   H     0.13029   0.93701   0.14082   0.00000  Uiso   1.00
H512   H     0.12590   0.98927   0.16086   0.00000  Uiso   1.00
H513   H     0.04497   0.92505   0.16865   0.00000  Uiso   1.00
H514   H     0.05103   0.97249   0.13916   0.00000  Uiso   1.00
Cl515  Cl    0.27345   0.94766   0.33510   0.00000  Uiso   1.00
Cl516  Cl    0.05780   0.71907   0.16521   0.00000  Uiso   1.00
Cl517  Cl    0.09608   0.77414   0.31661   0.00000  Uiso   1.00
Cl518  Cl    0.23761   0.89209   0.18289   0.00000  Uiso   1.00
C519   C     0.66625   0.75423   0.25130   0.00000  Uiso   1.00
C520   C     0.33341   0.91247   0.24966   0.00000  Uiso   1.00
C521   C     0.52496   0.80855   0.04541   0.00000  Uiso   1.00
C522   C     0.47180   0.84019   0.45213   0.00000  Uiso   1.00
C523   C     0.57322   0.80310   0.02297   0.00000  Uiso   1.00
C524   C     0.42344   0.84509   0.47446   0.00000  Uiso   1.00
C525   C     0.63796   0.68730   0.28896   0.00000  Uiso   1.00
C526   C     0.36065   0.97947   0.21167   0.00000  Uiso   1.00
C527   C     0.63888   0.97731   0.28779   0.00000  Uiso   1.00
C528   C     0.35990   0.68944   0.21289   0.00000  Uiso   1.00
C529   C     0.66659   0.95715   0.24949   0.00000  Uiso   1.00
C530   C     0.66592   0.70958   0.25135   0.00000  Uiso   1.00
C531   C     0.51698   0.80837   0.27882   0.00000  Uiso   1.00
C532   C     0.48319   0.85783   0.22076   0.00000  Uiso   1.00
C533   C     0.46760   0.80825   0.27893   0.00000  Uiso   1.00
C534   C     0.53250   0.85826   0.22089   0.00000  Uiso   1.00
C535   C     0.63948   0.83286   0.33609   0.00000  Uiso   1.00
C536   C     0.36052   0.83342   0.16389   0.00000  Uiso   1.00
C537   C     0.62419   0.82895   0.38524   0.00000  Uiso   1.00
C538   C     0.37557   0.83423   0.11458   0.00000  Uiso   1.00
C539   C     0.63876   0.80658   0.45543   0.00000  Uiso   1.00
C540   C     0.35897   0.84684   0.04284   0.00000  Uiso   1.00
C541   C     0.65596   0.81507   0.40969   0.00000  Uiso   1.00
C542   C     0.34279   0.84326   0.08937   0.00000  Uiso   1.00
C543   C     0.57554   0.83561   0.40725   0.00000  Uiso   1.00
C544   C     0.42428   0.82742   0.09271   0.00000  Uiso   1.00
C545   C     0.55685   0.82608   0.45312   0.00000  Uiso   1.00
C546   C     0.44138   0.82969   0.04566   0.00000  Uiso   1.00
C547   C     0.58966   0.81200   0.47730   0.00000  Uiso   1.00
C548   C     0.40787   0.84046   0.02088   0.00000  Uiso   1.00
C549   C     0.50674   0.83008   0.47551   0.00000  Uiso   1.00
C550   C     0.49091   0.82288   0.02277   0.00000  Uiso   1.00
Cu551  Cu    0.38022   0.83334   0.25000   0.00000  Uiso   1.00
Cu552  Cu    0.61978   0.83333   0.25000   0.00000  Uiso   1.00
H553   H     0.59793   0.79188   0.04164   0.00000  Uiso   1.00
H554   H     0.39807   0.85305   0.45517   0.00000  Uiso   1.00
H555   H     0.44843   0.82153   0.11341   0.00000  Uiso   1.00
H556   H     0.55306   0.84839   0.38755   0.00000  Uiso   1.00
H557   H     0.63833   0.84865   0.10558   0.00000  Uiso   1.00
H558   H     0.36036   0.80967   0.39334   0.00000  Uiso   1.00
H559   H     0.66374   0.79504   0.47362   0.00000  Uiso   1.00
H560   H     0.66662   0.85525   0.02406   0.00000  Uiso   1.00
H561   H     0.51548   0.80007   0.08047   0.00000  Uiso   1.00
H562   H     0.48021   0.84372   0.41619   0.00000  Uiso   1.00
H563   H     0.52938   0.78831   0.30180   0.00000  Uiso   1.00
H564   H     0.47104   0.87699   0.19702   0.00000  Uiso   1.00
N565   N     0.45069   0.83334   0.24999   0.00000  Uiso   1.00
N566   N     0.54931   0.83332   0.25001   0.00000  Uiso   1.00
O567   O     0.37291   0.77322   0.25000   0.00000  Uiso   1.00
O568   O     0.62709   0.89345   0.25000   0.00000  Uiso   1.00
O569   O     0.62706   0.77321   0.25000   0.00000  Uiso   1.00
O570   O     0.37294   0.89346   0.25000   0.00000  Uiso   1.00
O571   O     0.35186   0.83334   0.31491   0.00000  Uiso   1.00
O572   O     0.64814   0.83332   0.18508   0.00000  Uiso   1.00
O573   O     0.60600   0.83333   0.31492   0.00000  Uiso   1.00
O574   O     0.39400   0.83333   0.18508   0.00000  Uiso   1.00
C575   C     0.60849   0.70920   0.33075   0.00000  Uiso   1.00
C576   C     0.63769   0.71440   0.36505   0.00000  Uiso   1.00
H577   H     0.64984   0.68390   0.37490   0.00000  Uiso   1.00
H578   H     0.33637   0.73420   0.35078   0.00000  Uiso   1.00
H579   H     0.61496   0.72945   0.39552   0.00000  Uiso   1.00
H580   H     0.59581   0.74002   0.32281   0.00000  Uiso   1.00
H581   H     0.57478   0.69185   0.34640   0.00000  Uiso   1.00
C582   C     0.39007   0.95755   0.16994   0.00000  Uiso   1.00
C583   C     0.44385   0.95770   0.16797   0.00000  Uiso   1.00
H584   H     0.44944   0.94671   0.20043   0.00000  Uiso   1.00
H585   H     0.46362   0.93701   0.14082   0.00000  Uiso   1.00
H586   H     0.45924   0.98927   0.16086   0.00000  Uiso   1.00
H587   H     0.37830   0.92505   0.16865   0.00000  Uiso   1.00
H588   H     0.38437   0.97249   0.13916   0.00000  Uiso   1.00
Cl589  Cl    0.60678   0.94766   0.33510   0.00000  Uiso   1.00
Cl590  Cl    0.39114   0.71907   0.16521   0.00000  Uiso   1.00
Cl591  Cl    0.42941   0.77414   0.31661   0.00000  Uiso   1.00
Cl592  Cl    0.57094   0.89209   0.18289   0.00000  Uiso   1.00
C593   C     0.99958   0.75423   0.25130   0.00000  Uiso   1.00
C594   C     0.66674   0.91247   0.24966   0.00000  Uiso   1.00
C595   C     0.85830   0.80855   0.04541   0.00000  Uiso   1.00
C596   C     0.80513   0.84019   0.45213   0.00000  Uiso   1.00
C597   C     0.90655   0.80310   0.02297   0.00000  Uiso   1.00
C598   C     0.75677   0.84509   0.47446   0.00000  Uiso   1.00
C599   C     0.97130   0.68730   0.28896   0.00000  Uiso   1.00
C600   C     0.69399   0.97947   0.21167   0.00000  Uiso   1.00
C601   C     0.97221   0.97731   0.28779   0.00000  Uiso   1.00
C602   C     0.69323   0.68944   0.21289   0.00000  Uiso   1.00
C603   C     0.99993   0.95715   0.24949   0.00000  Uiso   1.00
C604   C     0.99925   0.70958   0.25135   0.00000  Uiso   1.00
C605   C     0.85031   0.80837   0.27882   0.00000  Uiso   1.00
C606   C     0.81653   0.85783   0.22076   0.00000  Uiso   1.00
C607   C     0.80094   0.80825   0.27893   0.00000  Uiso   1.00
C608   C     0.86583   0.85826   0.22089   0.00000  Uiso   1.00
C609   C     0.97281   0.83286   0.33609   0.00000  Uiso   1.00
C610   C     0.69385   0.83342   0.16389   0.00000  Uiso   1.00
C611   C     0.95753   0.82895   0.38524   0.00000  Uiso   1.00
C612   C     0.70891   0.83423   0.11458   0.00000  Uiso   1.00
C613   C     0.97209   0.80658   0.45543   0.00000  Uiso   1.00
C614   C     0.69230   0.84684   0.04284   0.00000  Uiso   1.00
C615   C     0.98929   0.81507   0.40969   0.00000  Uiso   1.00
C616   C     0.67612   0.84326   0.08937   0.00000  Uiso   1.00
C617   C     0.90887   0.83561   0.40725   0.00000  Uiso   1.00
C618   C     0.75761   0.82742   0.09271   0.00000  Uiso   1.00
C619   C     0.89019   0.82608   0.45312   0.00000  Uiso   1.00
C620   C     0.77472   0.82969   0.04566   0.00000  Uiso   1.00
C621   C     0.92299   0.81200   0.47730   0.00000  Uiso   1.00
C622   C     0.74121   0.84046   0.02088   0.00000  Uiso   1.00
C623   C     0.84007   0.83008   0.47551   0.00000  Uiso   1.00
C624   C     0.82424   0.82288   0.02277   0.00000  Uiso   1.00
Cu625  Cu    0.71355   0.83334   0.25000   0.00000  Uiso   1.00
Cu626  Cu    0.95311   0.83333   0.25000   0.00000  Uiso   1.00
H627   H     0.93127   0.79188   0.04164   0.00000  Uiso   1.00
H628   H     0.73140   0.85305   0.45517   0.00000  Uiso   1.00
H629   H     0.78176   0.82153   0.11341   0.00000  Uiso   1.00
H630   H     0.88639   0.84839   0.38755   0.00000  Uiso   1.00
H631   H     0.97166   0.84865   0.10558   0.00000  Uiso   1.00
H632   H     0.69369   0.80967   0.39334   0.00000  Uiso   1.00
H633   H     0.99707   0.79504   0.47362   0.00000  Uiso   1.00
H634   H     0.99996   0.85525   0.02406   0.00000  Uiso   1.00
H635   H     0.84881   0.80007   0.08047   0.00000  Uiso   1.00
H636   H     0.81354   0.84372   0.41619   0.00000  Uiso   1.00
H637   H     0.86272   0.78831   0.30180   0.00000  Uiso   1.00
H638   H     0.80437   0.87699   0.19702   0.00000  Uiso   1.00
N639   N     0.78403   0.83334   0.24999   0.00000  Uiso   1.00
N640   N     0.88264   0.83332   0.25001   0.00000  Uiso   1.00
O641   O     0.70625   0.77322   0.25000   0.00000  Uiso   1.00
O642   O     0.96042   0.89345   0.25000   0.00000  Uiso   1.00
O643   O     0.96039   0.77321   0.25000   0.00000  Uiso   1.00
O644   O     0.70628   0.89346   0.25000   0.00000  Uiso   1.00
O645   O     0.68519   0.83334   0.31491   0.00000  Uiso   1.00
O646   O     0.98148   0.83332   0.18508   0.00000  Uiso   1.00
O647   O     0.93933   0.83333   0.31492   0.00000  Uiso   1.00
O648   O     0.72733   0.83333   0.18508   0.00000  Uiso   1.00
C649   C     0.94182   0.70920   0.33075   0.00000  Uiso   1.00
C650   C     0.97102   0.71440   0.36505   0.00000  Uiso   1.00
H651   H     0.98317   0.68390   0.37490   0.00000  Uiso   1.00
H652   H     0.66970   0.73420   0.35078   0.00000  Uiso   1.00
H653   H     0.94830   0.72945   0.39552   0.00000  Uiso   1.00
H654   H     0.92914   0.74002   0.32281   0.00000  Uiso   1.00
H655   H     0.90811   0.69185   0.34640   0.00000  Uiso   1.00
C656   C     0.72341   0.95755   0.16994   0.00000  Uiso   1.00
C657   C     0.77718   0.95770   0.16797   0.00000  Uiso   1.00
H658   H     0.78277   0.94671   0.20043   0.00000  Uiso   1.00
H659   H     0.79696   0.93701   0.14082   0.00000  Uiso   1.00
H660   H     0.79257   0.98927   0.16086   0.00000  Uiso   1.00
H661   H     0.71163   0.92505   0.16865   0.00000  Uiso   1.00
H662   H     0.71770   0.97249   0.13916   0.00000  Uiso   1.00
Cl663  Cl    0.94012   0.94766   0.33510   0.00000  Uiso   1.00
Cl664  Cl    0.72447   0.71907   0.16521   0.00000  Uiso   1.00
Cl665  Cl    0.76275   0.77414   0.31661   0.00000  Uiso   1.00
Cl666  Cl    0.90428   0.89209   0.18289   0.00000  Uiso   1.00
C667   C     0.33291   0.08756   0.75130   0.00000  Uiso   1.00
C668   C     0.00007   0.24580   0.74966   0.00000  Uiso   1.00
C669   C     0.19163   0.14188   0.54541   0.00000  Uiso   1.00
C670   C     0.13847   0.17352   0.95213   0.00000  Uiso   1.00
C671   C     0.23988   0.13643   0.52297   0.00000  Uiso   1.00
C672   C     0.09010   0.17842   0.97446   0.00000  Uiso   1.00
C673   C     0.30463   0.02064   0.78896   0.00000  Uiso   1.00
C674   C     0.02732   0.31280   0.71167   0.00000  Uiso   1.00
C675   C     0.30554   0.31064   0.78779   0.00000  Uiso   1.00
C676   C     0.02657   0.02277   0.71289   0.00000  Uiso   1.00
C677   C     0.33326   0.29049   0.74949   0.00000  Uiso   1.00
C678   C     0.33258   0.04292   0.75135   0.00000  Uiso   1.00
C679   C     0.18364   0.14171   0.77882   0.00000  Uiso   1.00
C680   C     0.14986   0.19117   0.72076   0.00000  Uiso   1.00
C681   C     0.13427   0.14158   0.77893   0.00000  Uiso   1.00
C682   C     0.19917   0.19159   0.72089   0.00000  Uiso   1.00
C683   C     0.30614   0.16619   0.83609   0.00000  Uiso   1.00
C684   C     0.02718   0.16676   0.66389   0.00000  Uiso   1.00
C685   C     0.29086   0.16228   0.88524   0.00000  Uiso   1.00
C686   C     0.04224   0.16756   0.61458   0.00000  Uiso   1.00
C687   C     0.30543   0.13992   0.95543   0.00000  Uiso   1.00
C688   C     0.02563   0.18018   0.54284   0.00000  Uiso   1.00
C689   C     0.32263   0.14840   0.90969   0.00000  Uiso   1.00
C690   C     0.00946   0.17659   0.58937   0.00000  Uiso   1.00
C691   C     0.24221   0.16894   0.90725   0.00000  Uiso   1.00
C692   C     0.09095   0.16075   0.59271   0.00000  Uiso   1.00
C693   C     0.22352   0.15941   0.95312   0.00000  Uiso   1.00
C694   C     0.10805   0.16303   0.54566   0.00000  Uiso   1.00
C695   C     0.25633   0.14533   0.97730   0.00000  Uiso   1.00
C696   C     0.07454   0.17379   0.52088   0.00000  Uiso   1.00
C697   C     0.17340   0.16341   0.97551   0.00000  Uiso   1.00
C698   C     0.15757   0.15621   0.52277   0.00000  Uiso   1.00
Cu699  Cu    0.04689   0.16667   0.75000   0.00000  Uiso   1.00
Cu700  Cu    0.28645   0.16666   0.75000   0.00000  Uiso   1.00
H701   H     0.26460   0.12522   0.54164   0.00000  Uiso   1.00
H702   H     0.06473   0.18639   0.95517   0.00000  Uiso   1.00
H703   H     0.11509   0.15487   0.61341   0.00000  Uiso   1.00
H704   H     0.21972   0.18172   0.88755   0.00000  Uiso   1.00
H705   H     0.30500   0.18198   0.60558   0.00000  Uiso   1.00
H706   H     0.02702   0.14301   0.89334   0.00000  Uiso   1.00
H707   H     0.33041   0.12837   0.97362   0.00000  Uiso   1.00
H708   H     0.33329   0.18858   0.52406   0.00000  Uiso   1.00
H709   H     0.18215   0.13340   0.58047   0.00000  Uiso   1.00
H710   H     0.14688   0.17706   0.91619   0.00000  Uiso   1.00
H711   H     0.19605   0.12164   0.80180   0.00000  Uiso   1.00
H712   H     0.13770   0.21032   0.69702   0.00000  Uiso   1.00
N713   N     0.11736   0.16668   0.74999   0.00000  Uiso   1.00
N714   N     0.21597   0.16666   0.75001   0.00000  Uiso   1.00
O715   O     0.03958   0.10655   0.75000   0.00000  Uiso   1.00
O716   O     0.29375   0.22678   0.75000   0.00000  Uiso   1.00
O717   O     0.29372   0.10654   0.75000   0.00000  Uiso   1.00
O718   O     0.03961   0.22679   0.75000   0.00000  Uiso   1.00
O719   O     0.01852   0.16668   0.81491   0.00000  Uiso   1.00
O720   O     0.31481   0.16666   0.68508   0.00000  Uiso   1.00
O721   O     0.27267   0.16667   0.81492   0.00000  Uiso   1.00
O722   O     0.06067   0.16667   0.68508   0.00000  Uiso   1.00
C723   C     0.27516   0.04253   0.83075   0.00000  Uiso   1.00
C724   C     0.30435   0.04773   0.86505   0.00000  Uiso   1.00
H725   H     0.31651   0.01723   0.87490   0.00000  Uiso   1.00
H726   H     0.00303   0.06754   0.85078   0.00000  Uiso   1.00
H727   H     0.28163   0.06278   0.89552   0.00000  Uiso   1.00
H728   H     0.26247   0.07335   0.82281   0.00000  Uiso   1.00
H729   H     0.24145   0.02519   0.84640   0.00000  Uiso   1.00
C730   C     0.05674   0.29089   0.66994   0.00000  Uiso   1.00
C731   C     0.11052   0.29103   0.66797   0.00000  Uiso   1.00
H732   H     0.11611   0.28005   0.70043   0.00000  Uiso   1.00
H733   H     0.13029   0.27034   0.64082   0.00000  Uiso   1.00
H734   H     0.12590   0.32260   0.66086   0.00000  Uiso   1.00
H735   H     0.04497   0.25839   0.66865   0.00000  Uiso   1.00
H736   H     0.05103   0.30583   0.63916   0.00000  Uiso   1.00
Cl737  Cl    0.27345   0.28099   0.83510   0.00000  Uiso   1.00
Cl738  Cl    0.05780   0.05240   0.66521   0.00000  Uiso   1.00
Cl739  Cl    0.09608   0.10748   0.81661   0.00000  Uiso   1.00
Cl740  Cl    0.23761   0.22543   0.68289   0.00000  Uiso   1.00
C741   C     0.66625   0.08756   0.75130   0.00000  Uiso   1.00
C742   C     0.33341   0.24580   0.74966   0.00000  Uiso   1.00
C743   C     0.52496   0.14188   0.54541   0.00000  Uiso   1.00
C744   C     0.47180   0.17352   0.95213   0.00000  Uiso   1.00
C745   C     0.57322   0.13643   0.52297   0.00000  Uiso   1.00
C746   C     0.42344   0.17842   0.97446   0.00000  Uiso   1.00
C747   C     0.63796   0.02064   0.78896   0.00000  Uiso   1.00
C748   C     0.36065   0.31280   0.71167   0.00000  Uiso   1.00
C749   C     0.63888   0.31064   0.78779   0.00000  Uiso   1.00
C750   C     0.35990   0.02277   0.71289   0.00000  Uiso   1.00
C751   C     0.66659   0.29049   0.74949   0.00000  Uiso   1.00
C752   C     0.66592   0.04292   0.75135   0.00000  Uiso   1.00
C753   C     0.51698   0.14171   0.77882   0.00000  Uiso   1.00
C754   C     0.48319   0.19117   0.72076   0.00000  Uiso   1.00
C755   C     0.46760   0.14158   0.77893   0.00000  Uiso   1.00
C756   C     0.53250   0.19159   0.72089   0.00000  Uiso   1.00
C757   C     0.63948   0.16619   0.83609   0.00000  Uiso   1.00
C758   C     0.36052   0.16676   0.66389   0.00000  Uiso   1.00
C759   C     0.62419   0.16228   0.88524   0.00000  Uiso   1.00
C760   C     0.37557   0.16756   0.61458   0.00000  Uiso   1.00
C761   C     0.63876   0.13992   0.95543   0.00000  Uiso   1.00
C762   C     0.35897   0.18018   0.54284   0.00000  Uiso   1.00
C763   C     0.65596   0.14840   0.90969   0.00000  Uiso   1.00
C764   C     0.34279   0.17659   0.58937   0.00000  Uiso   1.00
C765   C     0.57554   0.16894   0.90725   0.00000  Uiso   1.00
C766   C     0.42428   0.16075   0.59271   0.00000  Uiso   1.00
C767   C     0.55685   0.15941   0.95312   0.00000  Uiso   1.00
C768   C     0.44138   0.16303   0.54566   0.00000  Uiso   1.00
C769   C     0.58966   0.14533   0.97730   0.00000  Uiso   1.00
C770   C     0.40787   0.17379   0.52088   0.00000  Uiso   1.00
C771   C     0.50674   0.16341   0.97551   0.00000  Uiso   1.00
C772   C     0.49091   0.15621   0.52277   0.00000  Uiso   1.00
Cu773  Cu    0.38022   0.16667   0.75000   0.00000  Uiso   1.00
Cu774  Cu    0.61978   0.16666   0.75000   0.00000  Uiso   1.00
H775   H     0.59793   0.12522   0.54164   0.00000  Uiso   1.00
H776   H     0.39807   0.18639   0.95517   0.00000  Uiso   1.00
H777   H     0.44843   0.15487   0.61341   0.00000  Uiso   1.00
H778   H     0.55306   0.18172   0.88755   0.00000  Uiso   1.00
H779   H     0.63833   0.18198   0.60558   0.00000  Uiso   1.00
H780   H     0.36036   0.14301   0.89334   0.00000  Uiso   1.00
H781   H     0.66374   0.12837   0.97362   0.00000  Uiso   1.00
H782   H     0.66662   0.18858   0.52406   0.00000  Uiso   1.00
H783   H     0.51548   0.13340   0.58047   0.00000  Uiso   1.00
H784   H     0.48021   0.17706   0.91619   0.00000  Uiso   1.00
H785   H     0.52938   0.12164   0.80180   0.00000  Uiso   1.00
H786   H     0.47104   0.21032   0.69702   0.00000  Uiso   1.00
N787   N     0.45069   0.16668   0.74999   0.00000  Uiso   1.00
N788   N     0.54931   0.16666   0.75001   0.00000  Uiso   1.00
O789   O     0.37291   0.10655   0.75000   0.00000  Uiso   1.00
O790   O     0.62709   0.22678   0.75000   0.00000  Uiso   1.00
O791   O     0.62706   0.10654   0.75000   0.00000  Uiso   1.00
O792   O     0.37294   0.22679   0.75000   0.00000  Uiso   1.00
O793   O     0.35186   0.16668   0.81491   0.00000  Uiso   1.00
O794   O     0.64814   0.16666   0.68508   0.00000  Uiso   1.00
O795   O     0.60600   0.16667   0.81492   0.00000  Uiso   1.00
O796   O     0.39400   0.16667   0.68508   0.00000  Uiso   1.00
C797   C     0.60849   0.04253   0.83075   0.00000  Uiso   1.00
C798   C     0.63769   0.04773   0.86505   0.00000  Uiso   1.00
H799   H     0.64984   0.01723   0.87490   0.00000  Uiso   1.00
H800   H     0.33637   0.06754   0.85078   0.00000  Uiso   1.00
H801   H     0.61496   0.06278   0.89552   0.00000  Uiso   1.00
H802   H     0.59581   0.07335   0.82281   0.00000  Uiso   1.00
H803   H     0.57478   0.02519   0.84640   0.00000  Uiso   1.00
C804   C     0.39007   0.29089   0.66994   0.00000  Uiso   1.00
C805   C     0.44385   0.29103   0.66797   0.00000  Uiso   1.00
H806   H     0.44944   0.28005   0.70043   0.00000  Uiso   1.00
H807   H     0.46362   0.27034   0.64082   0.00000  Uiso   1.00
H808   H     0.45924   0.32260   0.66086   0.00000  Uiso   1.00
H809   H     0.37830   0.25839   0.66865   0.00000  Uiso   1.00
H810   H     0.38437   0.30583   0.63916   0.00000  Uiso   1.00
Cl811  Cl    0.60678   0.28099   0.83510   0.00000  Uiso   1.00
Cl812  Cl    0.39114   0.05240   0.66521   0.00000  Uiso   1.00
Cl813  Cl    0.42941   0.10748   0.81661   0.00000  Uiso   1.00
Cl814  Cl    0.57094   0.22543   0.68289   0.00000  Uiso   1.00
C815   C     0.99958   0.08756   0.75130   0.00000  Uiso   1.00
C816   C     0.66674   0.24580   0.74966   0.00000  Uiso   1.00
C817   C     0.85830   0.14188   0.54541   0.00000  Uiso   1.00
C818   C     0.80513   0.17352   0.95213   0.00000  Uiso   1.00
C819   C     0.90655   0.13643   0.52297   0.00000  Uiso   1.00
C820   C     0.75677   0.17842   0.97446   0.00000  Uiso   1.00
C821   C     0.97130   0.02064   0.78896   0.00000  Uiso   1.00
C822   C     0.69399   0.31280   0.71167   0.00000  Uiso   1.00
C823   C     0.97221   0.31064   0.78779   0.00000  Uiso   1.00
C824   C     0.69323   0.02277   0.71289   0.00000  Uiso   1.00
C825   C     0.99993   0.29049   0.74949   0.00000  Uiso   1.00
C826   C     0.99925   0.04292   0.75135   0.00000  Uiso   1.00
C827   C     0.85031   0.14171   0.77882   0.00000  Uiso   1.00
C828   C     0.81653   0.19117   0.72076   0.00000  Uiso   1.00
C829   C     0.80094   0.14158   0.77893   0.00000  Uiso   1.00
C830   C     0.86583   0.19159   0.72089   0.00000  Uiso   1.00
C831   C     0.97281   0.16619   0.83609   0.00000  Uiso   1.00
C832   C     0.69385   0.16676   0.66389   0.00000  Uiso   1.00
C833   C     0.95753   0.16228   0.88524   0.00000  Uiso   1.00
C834   C     0.70891   0.16756   0.61458   0.00000  Uiso   1.00
C835   C     0.97209   0.13992   0.95543   0.00000  Uiso   1.00
C836   C     0.69230   0.18018   0.54284   0.00000  Uiso   1.00
C837   C     0.98929   0.14840   0.90969   0.00000  Uiso   1.00
C838   C     0.67612   0.17659   0.58937   0.00000  Uiso   1.00
C839   C     0.90887   0.16894   0.90725   0.00000  Uiso   1.00
C840   C     0.75761   0.16075   0.59271   0.00000  Uiso   1.00
C841   C     0.89019   0.15941   0.95312   0.00000  Uiso   1.00
C842   C     0.77472   0.16303   0.54566   0.00000  Uiso   1.00
C843   C     0.92299   0.14533   0.97730   0.00000  Uiso   1.00
C844   C     0.74121   0.17379   0.52088   0.00000  Uiso   1.00
C845   C     0.84007   0.16341   0.97551   0.00000  Uiso   1.00
C846   C     0.82424   0.15621   0.52277   0.00000  Uiso   1.00
Cu847  Cu    0.71355   0.16667   0.75000   0.00000  Uiso   1.00
Cu848  Cu    0.95311   0.16666   0.75000   0.00000  Uiso   1.00
H849   H     0.93127   0.12522   0.54164   0.00000  Uiso   1.00
H850   H     0.73140   0.18639   0.95517   0.00000  Uiso   1.00
H851   H     0.78176   0.15487   0.61341   0.00000  Uiso   1.00
H852   H     0.88639   0.18172   0.88755   0.00000  Uiso   1.00
H853   H     0.97166   0.18198   0.60558   0.00000  Uiso   1.00
H854   H     0.69369   0.14301   0.89334   0.00000  Uiso   1.00
H855   H     0.99707   0.12837   0.97362   0.00000  Uiso   1.00
H856   H     0.99996   0.18858   0.52406   0.00000  Uiso   1.00
H857   H     0.84881   0.13340   0.58047   0.00000  Uiso   1.00
H858   H     0.81354   0.17706   0.91619   0.00000  Uiso   1.00
H859   H     0.86272   0.12164   0.80180   0.00000  Uiso   1.00
H860   H     0.80437   0.21032   0.69702   0.00000  Uiso   1.00
N861   N     0.78403   0.16668   0.74999   0.00000  Uiso   1.00
N862   N     0.88264   0.16666   0.75001   0.00000  Uiso   1.00
O863   O     0.70625   0.10655   0.75000   0.00000  Uiso   1.00
O864   O     0.96042   0.22678   0.75000   0.00000  Uiso   1.00
O865   O     0.96039   0.10654   0.75000   0.00000  Uiso   1.00
O866   O     0.70628   0.22679   0.75000   0.00000  Uiso   1.00
O867   O     0.68519   0.16668   0.81491   0.00000  Uiso   1.00
O868   O     0.98148   0.16666   0.68508   0.00000  Uiso   1.00
O869   O     0.93933   0.16667   0.81492   0.00000  Uiso   1.00
O870   O     0.72733   0.16667   0.68508   0.00000  Uiso   1.00
C871   C     0.94182   0.04253   0.83075   0.00000  Uiso   1.00
C872   C     0.97102   0.04773   0.86505   0.00000  Uiso   1.00
H873   H     0.98317   0.01723   0.87490   0.00000  Uiso   1.00
H874   H     0.66970   0.06754   0.85078   0.00000  Uiso   1.00
H875   H     0.94830   0.06278   0.89552   0.00000  Uiso   1.00
H876   H     0.92914   0.07335   0.82281   0.00000  Uiso   1.00
H877   H     0.90811   0.02519   0.84640   0.00000  Uiso   1.00
C878   C     0.72341   0.29089   0.66994   0.00000  Uiso   1.00
C879   C     0.77718   0.29103   0.66797   0.00000  Uiso   1.00
H880   H     0.78277   0.28005   0.70043   0.00000  Uiso   1.00
H881   H     0.79696   0.27034   0.64082   0.00000  Uiso   1.00
H882   H     0.79257   0.32260   0.66086   0.00000  Uiso   1.00
H883   H     0.71163   0.25839   0.66865   0.00000  Uiso   1.00
H884   H     0.71770   0.30583   0.63916   0.00000  Uiso   1.00
Cl885  Cl    0.94012   0.28099   0.83510   0.00000  Uiso   1.00
Cl886  Cl    0.72447   0.05240   0.66521   0.00000  Uiso   1.00
Cl887  Cl    0.76275   0.10748   0.81661   0.00000  Uiso   1.00
Cl888  Cl    0.90428   0.22543   0.68289   0.00000  Uiso   1.00
C889   C     0.33291   0.42089   0.75130   0.00000  Uiso   1.00
C890   C     0.00007   0.57913   0.74966   0.00000  Uiso   1.00
C891   C     0.19163   0.47522   0.54541   0.00000  Uiso   1.00
C892   C     0.13847   0.50685   0.95213   0.00000  Uiso   1.00
C893   C     0.23988   0.46976   0.52297   0.00000  Uiso   1.00
C894   C     0.09010   0.51175   0.97446   0.00000  Uiso   1.00
C895   C     0.30463   0.35397   0.78896   0.00000  Uiso   1.00
C896   C     0.02732   0.64613   0.71167   0.00000  Uiso   1.00
C897   C     0.30554   0.64397   0.78779   0.00000  Uiso   1.00
C898   C     0.02657   0.35611   0.71289   0.00000  Uiso   1.00
C899   C     0.33326   0.62382   0.74949   0.00000  Uiso   1.00
C900   C     0.33258   0.37625   0.75135   0.00000  Uiso   1.00
C901   C     0.18364   0.47504   0.77882   0.00000  Uiso   1.00
C902   C     0.14986   0.52450   0.72076   0.00000  Uiso   1.00
C903   C     0.13427   0.47491   0.77893   0.00000  Uiso   1.00
C904   C     0.19917   0.52493   0.72089   0.00000  Uiso   1.00
C905   C     0.30614   0.49953   0.83609   0.00000  Uiso   1.00
C906   C     0.02718   0.50009   0.66389   0.00000  Uiso   1.00
C907   C     0.29086   0.49561   0.88524   0.00000  Uiso   1.00
C908   C     0.04224   0.50089   0.61458   0.00000  Uiso   1.00
C909   C     0.30543   0.47325   0.95543   0.00000  Uiso   1.00
C910   C     0.02563   0.51351   0.54284   0.00000  Uiso   1.00
C911   C     0.32263   0.48173   0.90969   0.00000  Uiso   1.00
C912   C     0.00946   0.50992   0.58937   0.00000  Uiso   1.00
C913   C     0.24221   0.50227   0.90725   0.00000  Uiso   1.00
C914   C     0.09095   0.49409   0.59271   0.00000  Uiso   1.00
C915   C     0.22352   0.49275   0.95312   0.00000  Uiso   1.00
C916   C     0.10805   0.49636   0.54566   0.00000  Uiso   1.00
C917   C     0.25633   0.47866   0.97730   0.00000  Uiso   1.00
C918   C     0.07454   0.50712   0.52088   0.00000  Uiso   1.00
C919   C     0.17340   0.49675   0.97551   0.00000  Uiso   1.00
C920   C     0.15757   0.48954   0.52277   0.00000  Uiso   1.00
Cu921  Cu    0.04689   0.50001   0.75000   0.00000  Uiso   1.00
Cu922  Cu    0.28645   0.49999   0.75000   0.00000  Uiso   1.00
H923   H     0.26460   0.45855   0.54164   0.00000  Uiso   1.00
H924   H     0.06473   0.51972   0.95517   0.00000  Uiso   1.00
H925   H     0.11509   0.48820   0.61341   0.00000  Uiso   1.00
H926   H     0.21972   0.51505   0.88755   0.00000  Uiso   1.00
H927   H     0.30500   0.51531   0.60558   0.00000  Uiso   1.00
H928   H     0.02702   0.47634   0.89334   0.00000  Uiso   1.00
H929   H     0.33041   0.46171   0.97362   0.00000  Uiso   1.00
H930   H     0.33329   0.52191   0.52406   0.00000  Uiso   1.00
H931   H     0.18215   0.46673   0.58047   0.00000  Uiso   1.00
H932   H     0.14688   0.51039   0.91619   0.00000  Uiso   1.00
H933   H     0.19605   0.45497   0.80180   0.00000  Uiso   1.00
H934   H     0.13770   0.54365   0.69702   0.00000  Uiso   1.00
N935   N     0.11736   0.50001   0.74999   0.00000  Uiso   1.00
N936   N     0.21597   0.49999   0.75001   0.00000  Uiso   1.00
O937   O     0.03958   0.43989   0.75000   0.00000  Uiso   1.00
O938   O     0.29375   0.56011   0.75000   0.00000  Uiso   1.00
O939   O     0.29372   0.43988   0.75000   0.00000  Uiso   1.00
O940   O     0.03961   0.56012   0.75000   0.00000  Uiso   1.00
O941   O     0.01852   0.50001   0.81491   0.00000  Uiso   1.00
O942   O     0.31481   0.49999   0.68508   0.00000  Uiso   1.00
O943   O     0.27267   0.50000   0.81492   0.00000  Uiso   1.00
O944   O     0.06067   0.50000   0.68508   0.00000  Uiso   1.00
C945   C     0.27516   0.37586   0.83075   0.00000  Uiso   1.00
C946   C     0.30435   0.38107   0.86505   0.00000  Uiso   1.00
H947   H     0.31651   0.35057   0.87490   0.00000  Uiso   1.00
H948   H     0.00303   0.40087   0.85078   0.00000  Uiso   1.00
H949   H     0.28163   0.39611   0.89552   0.00000  Uiso   1.00
H950   H     0.26247   0.40668   0.82281   0.00000  Uiso   1.00
H951   H     0.24145   0.35852   0.84640   0.00000  Uiso   1.00
C952   C     0.05674   0.62422   0.66994   0.00000  Uiso   1.00
C953   C     0.11052   0.62436   0.66797   0.00000  Uiso   1.00
H954   H     0.11611   0.61338   0.70043   0.00000  Uiso   1.00
H955   H     0.13029   0.60367   0.64082   0.00000  Uiso   1.00
H956   H     0.12590   0.65593   0.66086   0.00000  Uiso   1.00
H957   H     0.04497   0.59172   0.66865   0.00000  Uiso   1.00
H958   H     0.05103   0.63916   0.63916   0.00000  Uiso   1.00
Cl959  Cl    0.27345   0.61432   0.83510   0.00000  Uiso   1.00
Cl960  Cl    0.05780   0.38574   0.66521   0.00000  Uiso   1.00
Cl961  Cl    0.09608   0.44081   0.81661   0.00000  Uiso   1.00
Cl962  Cl    0.23761   0.55876   0.68289   0.00000  Uiso   1.00
C963   C     0.66625   0.42089   0.75130   0.00000  Uiso   1.00
C964   C     0.33341   0.57913   0.74966   0.00000  Uiso   1.00
C965   C     0.52496   0.47522   0.54541   0.00000  Uiso   1.00
C966   C     0.47180   0.50685   0.95213   0.00000  Uiso   1.00
C967   C     0.57322   0.46976   0.52297   0.00000  Uiso   1.00
C968   C     0.42344   0.51175   0.97446   0.00000  Uiso   1.00
C969   C     0.63796   0.35397   0.78896   0.00000  Uiso   1.00
C970   C     0.36065   0.64613   0.71167   0.00000  Uiso   1.00
C971   C     0.63888   0.64397   0.78779   0.00000  Uiso   1.00
C972   C     0.35990   0.35611   0.71289   0.00000  Uiso   1.00
C973   C     0.66659   0.62382   0.74949   0.00000  Uiso   1.00
C974   C     0.66592   0.37625   0.75135   0.00000  Uiso   1.00
C975   C     0.51698   0.47504   0.77882   0.00000  Uiso   1.00
C976   C     0.48319   0.52450   0.72076   0.00000  Uiso   1.00
C977   C     0.46760   0.47491   0.77893   0.00000  Uiso   1.00
C978   C     0.53250   0.52493   0.72089   0.00000  Uiso   1.00
C979   C     0.63948   0.49953   0.83609   0.00000  Uiso   1.00
C980   C     0.36052   0.50009   0.66389   0.00000  Uiso   1.00
C981   C     0.62419   0.49561   0.88524   0.00000  Uiso   1.00
C982   C     0.37557   0.50089   0.61458   0.00000  Uiso   1.00
C983   C     0.63876   0.47325   0.95543   0.00000  Uiso   1.00
C984   C     0.35897   0.51351   0.54284   0.00000  Uiso   1.00
C985   C     0.65596   0.48173   0.90969   0.00000  Uiso   1.00
C986   C     0.34279   0.50992   0.58937   0.00000  Uiso   1.00
C987   C     0.57554   0.50227   0.90725   0.00000  Uiso   1.00
C988   C     0.42428   0.49409   0.59271   0.00000  Uiso   1.00
C989   C     0.55685   0.49275   0.95312   0.00000  Uiso   1.00
C990   C     0.44138   0.49636   0.54566   0.00000  Uiso   1.00
C991   C     0.58966   0.47866   0.97730   0.00000  Uiso   1.00
C992   C     0.40787   0.50712   0.52088   0.00000  Uiso   1.00
C993   C     0.50674   0.49675   0.97551   0.00000  Uiso   1.00
C994   C     0.49091   0.48954   0.52277   0.00000  Uiso   1.00
Cu995  Cu    0.38022   0.50001   0.75000   0.00000  Uiso   1.00
Cu996  Cu    0.61978   0.49999   0.75000   0.00000  Uiso   1.00
H997   H     0.59793   0.45855   0.54164   0.00000  Uiso   1.00
H998   H     0.39807   0.51972   0.95517   0.00000  Uiso   1.00
H999   H     0.44843   0.48820   0.61341   0.00000  Uiso   1.00
H1000  H     0.55306   0.51505   0.88755   0.00000  Uiso   1.00
H1001  H     0.63833   0.51531   0.60558   0.00000  Uiso   1.00
H1002  H     0.36036   0.47634   0.89334   0.00000  Uiso   1.00
H1003  H     0.66374   0.46171   0.97362   0.00000  Uiso   1.00
H1004  H     0.66662   0.52191   0.52406   0.00000  Uiso   1.00
H1005  H     0.51548   0.46673   0.58047   0.00000  Uiso   1.00
H1006  H     0.48021   0.51039   0.91619   0.00000  Uiso   1.00
H1007  H     0.52938   0.45497   0.80180   0.00000  Uiso   1.00
H1008  H     0.47104   0.54365   0.69702   0.00000  Uiso   1.00
N1009  N     0.45069   0.50001   0.74999   0.00000  Uiso   1.00
N1010  N     0.54931   0.49999   0.75001   0.00000  Uiso   1.00
O1011  O     0.37291   0.43989   0.75000   0.00000  Uiso   1.00
O1012  O     0.62709   0.56011   0.75000   0.00000  Uiso   1.00
O1013  O     0.62706   0.43988   0.75000   0.00000  Uiso   1.00
O1014  O     0.37294   0.56012   0.75000   0.00000  Uiso   1.00
O1015  O     0.35186   0.50001   0.81491   0.00000  Uiso   1.00
O1016  O     0.64814   0.49999   0.68508   0.00000  Uiso   1.00
O1017  O     0.60600   0.50000   0.81492   0.00000  Uiso   1.00
O1018  O     0.39400   0.50000   0.68508   0.00000  Uiso   1.00
C1019  C     0.60849   0.37586   0.83075   0.00000  Uiso   1.00
C1020  C     0.63769   0.38107   0.86505   0.00000  Uiso   1.00
H1021  H     0.64984   0.35057   0.87490   0.00000  Uiso   1.00
H1022  H     0.33637   0.40087   0.85078   0.00000  Uiso   1.00
H1023  H     0.61496   0.39611   0.89552   0.00000  Uiso   1.00
H1024  H     0.59581   0.40668   0.82281   0.00000  Uiso   1.00
H1025  H     0.57478   0.35852   0.84640   0.00000  Uiso   1.00
C1026  C     0.39007   0.62422   0.66994   0.00000  Uiso   1.00
C1027  C     0.44385   0.62436   0.66797   0.00000  Uiso   1.00
H1028  H     0.44944   0.61338   0.70043   0.00000  Uiso   1.00
H1029  H     0.46362   0.60367   0.64082   0.00000  Uiso   1.00
H1030  H     0.45924   0.65593   0.66086   0.00000  Uiso   1.00
H1031  H     0.37830   0.59172   0.66865   0.00000  Uiso   1.00
H1032  H     0.38437   0.63916   0.63916   0.00000  Uiso   1.00
Cl1033 Cl    0.60678   0.61432   0.83510   0.00000  Uiso   1.00
Cl1034 Cl    0.39114   0.38574   0.66521   0.00000  Uiso   1.00
Cl1035 Cl    0.42941   0.44081   0.81661   0.00000  Uiso   1.00
Cl1036 Cl    0.57094   0.55876   0.68289   0.00000  Uiso   1.00
C1037  C     0.99958   0.42089   0.75130   0.00000  Uiso   1.00
C1038  C     0.66674   0.57913   0.74966   0.00000  Uiso   1.00
C1039  C     0.85830   0.47522   0.54541   0.00000  Uiso   1.00
C1040  C     0.80513   0.50685   0.95213   0.00000  Uiso   1.00
C1041  C     0.90655   0.46976   0.52297   0.00000  Uiso   1.00
C1042  C     0.75677   0.51175   0.97446   0.00000  Uiso   1.00
C1043  C     0.97130   0.35397   0.78896   0.00000  Uiso   1.00
C1044  C     0.69399   0.64613   0.71167   0.00000  Uiso   1.00
C1045  C     0.97221   0.64397   0.78779   0.00000  Uiso   1.00
C1046  C     0.69323   0.35611   0.71289   0.00000  Uiso   1.00
C1047  C     0.99993   0.62382   0.74949   0.00000  Uiso   1.00
C1048  C     0.99925   0.37625   0.75135   0.00000  Uiso   1.00
C1049  C     0.85031   0.47504   0.77882   0.00000  Uiso   1.00
C1050  C     0.81653   0.52450   0.72076   0.00000  Uiso   1.00
C1051  C     0.80094   0.47491   0.77893   0.00000  Uiso   1.00
C1052  C     0.86583   0.52493   0.72089   0.00000  Uiso   1.00
C1053  C     0.97281   0.49953   0.83609   0.00000  Uiso   1.00
C1054  C     0.69385   0.50009   0.66389   0.00000  Uiso   1.00
C1055  C     0.95753   0.49561   0.88524   0.00000  Uiso   1.00
C1056  C     0.70891   0.50089   0.61458   0.00000  Uiso   1.00
C1057  C     0.97209   0.47325   0.95543   0.00000  Uiso   1.00
C1058  C     0.69230   0.51351   0.54284   0.00000  Uiso   1.00
C1059  C     0.98929   0.48173   0.90969   0.00000  Uiso   1.00
C1060  C     0.67612   0.50992   0.58937   0.00000  Uiso   1.00
C1061  C     0.90887   0.50227   0.90725   0.00000  Uiso   1.00
C1062  C     0.75761   0.49409   0.59271   0.00000  Uiso   1.00
C1063  C     0.89019   0.49275   0.95312   0.00000  Uiso   1.00
C1064  C     0.77472   0.49636   0.54566   0.00000  Uiso   1.00
C1065  C     0.92299   0.47866   0.97730   0.00000  Uiso   1.00
C1066  C     0.74121   0.50712   0.52088   0.00000  Uiso   1.00
C1067  C     0.84007   0.49675   0.97551   0.00000  Uiso   1.00
C1068  C     0.82424   0.48954   0.52277   0.00000  Uiso   1.00
Cu1069 Cu    0.71355   0.50001   0.75000   0.00000  Uiso   1.00
Cu1070 Cu    0.95311   0.49999   0.75000   0.00000  Uiso   1.00
H1071  H     0.93127   0.45855   0.54164   0.00000  Uiso   1.00
H1072  H     0.73140   0.51972   0.95517   0.00000  Uiso   1.00
H1073  H     0.78176   0.48820   0.61341   0.00000  Uiso   1.00
H1074  H     0.88639   0.51505   0.88755   0.00000  Uiso   1.00
H1075  H     0.97166   0.51531   0.60558   0.00000  Uiso   1.00
H1076  H     0.69369   0.47634   0.89334   0.00000  Uiso   1.00
H1077  H     0.99707   0.46171   0.97362   0.00000  Uiso   1.00
H1078  H     0.99996   0.52191   0.52406   0.00000  Uiso   1.00
H1079  H     0.84881   0.46673   0.58047   0.00000  Uiso   1.00
H1080  H     0.81354   0.51039   0.91619   0.00000  Uiso   1.00
H1081  H     0.86272   0.45497   0.80180   0.00000  Uiso   1.00
H1082  H     0.80437   0.54365   0.69702   0.00000  Uiso   1.00
N1083  N     0.78403   0.50001   0.74999   0.00000  Uiso   1.00
N1084  N     0.88264   0.49999   0.75001   0.00000  Uiso   1.00
O1085  O     0.70625   0.43989   0.75000   0.00000  Uiso   1.00
O1086  O     0.96042   0.56011   0.75000   0.00000  Uiso   1.00
O1087  O     0.96039   0.43988   0.75000   0.00000  Uiso   1.00
O1088  O     0.70628   0.56012   0.75000   0.00000  Uiso   1.00
O1089  O     0.68519   0.50001   0.81491   0.00000  Uiso   1.00
O1090  O     0.98148   0.49999   0.68508   0.00000  Uiso   1.00
O1091  O     0.93933   0.50000   0.81492   0.00000  Uiso   1.00
O1092  O     0.72733   0.50000   0.68508   0.00000  Uiso   1.00
C1093  C     0.94182   0.37586   0.83075   0.00000  Uiso   1.00
C1094  C     0.97102   0.38107   0.86505   0.00000  Uiso   1.00
H1095  H     0.98317   0.35057   0.87490   0.00000  Uiso   1.00
H1096  H     0.66970   0.40087   0.85078   0.00000  Uiso   1.00
H1097  H     0.94830   0.39611   0.89552   0.00000  Uiso   1.00
H1098  H     0.92914   0.40668   0.82281   0.00000  Uiso   1.00
H1099  H     0.90811   0.35852   0.84640   0.00000  Uiso   1.00
C1100  C     0.72341   0.62422   0.66994   0.00000  Uiso   1.00
C1101  C     0.77718   0.62436   0.66797   0.00000  Uiso   1.00
H1102  H     0.78277   0.61338   0.70043   0.00000  Uiso   1.00
H1103  H     0.79696   0.60367   0.64082   0.00000  Uiso   1.00
H1104  H     0.79257   0.65593   0.66086   0.00000  Uiso   1.00
H1105  H     0.71163   0.59172   0.66865   0.00000  Uiso   1.00
H1106  H     0.71770   0.63916   0.63916   0.00000  Uiso   1.00
Cl1107 Cl    0.94012   0.61432   0.83510   0.00000  Uiso   1.00
Cl1108 Cl    0.72447   0.38574   0.66521   0.00000  Uiso   1.00
Cl1109 Cl    0.76275   0.44081   0.81661   0.00000  Uiso   1.00
Cl1110 Cl    0.90428   0.55876   0.68289   0.00000  Uiso   1.00
C1111  C     0.33291   0.75423   0.75130   0.00000  Uiso   1.00
C1112  C     0.00007   0.91247   0.74966   0.00000  Uiso   1.00
C1113  C     0.19163   0.80855   0.54541   0.00000  Uiso   1.00
C1114  C     0.13847   0.84019   0.95213   0.00000  Uiso   1.00
C1115  C     0.23988   0.80310   0.52297   0.00000  Uiso   1.00
C1116  C     0.09010   0.84509   0.97446   0.00000  Uiso   1.00
C1117  C     0.30463   0.68730   0.78896   0.00000  Uiso   1.00
C1118  C     0.02732   0.97947   0.71167   0.00000  Uiso   1.00
C1119  C     0.30554   0.97731   0.78779   0.00000  Uiso   1.00
C1120  C     0.02657   0.68944   0.71289   0.00000  Uiso   1.00
C1121  C     0.33326   0.95715   0.74949   0.00000  Uiso   1.00
C1122  C     0.33258   0.70958   0.75135   0.00000  Uiso   1.00
C1123  C     0.18364   0.80837   0.77882   0.00000  Uiso   1.00
C1124  C     0.14986   0.85783   0.72076   0.00000  Uiso   1.00
C1125  C     0.13427   0.80825   0.77893   0.00000  Uiso   1.00
C1126  C     0.19917   0.85826   0.72089   0.00000  Uiso   1.00
C1127  C     0.30614   0.83286   0.83609   0.00000  Uiso   1.00
C1128  C     0.02718   0.83342   0.66389   0.00000  Uiso   1.00
C1129  C     0.29086   0.82895   0.88524   0.00000  Uiso   1.00
C1130  C     0.04224   0.83423   0.61458   0.00000  Uiso   1.00
C1131  C     0.30543   0.80658   0.95543   0.00000  Uiso   1.00
C1132  C     0.02563   0.84684   0.54284   0.00000  Uiso   1.00
C1133  C     0.32263   0.81507   0.90969   0.00000  Uiso   1.00
C1134  C     0.00946   0.84326   0.58937   0.00000  Uiso   1.00
C1135  C     0.24221   0.83561   0.90725   0.00000  Uiso   1.00
C1136  C     0.09095   0.82742   0.59271   0.00000  Uiso   1.00
C1137  C     0.22352   0.82608   0.95312   0.00000  Uiso   1.00
C1138  C     0.10805   0.82969   0.54566   0.00000  Uiso   1.00
C1139  C     0.25633   0.81200   0.97730   0.00000  Uiso   1.00
C1140  C     0.07454   0.84046   0.52088   0.00000  Uiso   1.00
C1141  C     0.17340   0.83008   0.97551   0.00000  Uiso   1.00
C1142  C     0.15757   0.82288   0.52277   0.00000  Uiso   1.00
Cu1143 Cu    0.04689   0.83334   0.75000   0.00000  Uiso   1.00
Cu1144 Cu    0.28645   0.83333   0.75000   0.00000  Uiso   1.00
H1145  H     0.26460   0.79188   0.54164   0.00000  Uiso   1.00
H1146  H     0.06473   0.85305   0.95517   0.00000  Uiso   1.00
H1147  H     0.11509   0.82153   0.61341   0.00000  Uiso   1.00
H1148  H     0.21972   0.84839   0.88755   0.00000  Uiso   1.00
H1149  H     0.30500   0.84865   0.60558   0.00000  Uiso   1.00
H1150  H     0.02702   0.80967   0.89334   0.00000  Uiso   1.00
H1151  H     0.33041   0.79504   0.97362   0.00000  Uiso   1.00
H1152  H     0.33329   0.85525   0.52406   0.00000  Uiso   1.00
H1153  H     0.18215   0.80007   0.58047   0.00000  Uiso   1.00
H1154  H     0.14688   0.84372   0.91619   0.00000  Uiso   1.00
H1155  H     0.19605   0.78831   0.80180   0.00000  Uiso   1.00
H1156  H     0.13770   0.87699   0.69702   0.00000  Uiso   1.00
N1157  N     0.11736   0.83334   0.74999   0.00000  Uiso   1.00
N1158  N     0.21597   0.83332   0.75001   0.00000  Uiso   1.00
O1159  O     0.03958   0.77322   0.75000   0.00000  Uiso   1.00
O1160  O     0.29375   0.89345   0.75000   0.00000  Uiso   1.00
O1161  O     0.29372   0.77321   0.75000   0.00000  Uiso   1.00
O1162  O     0.03961   0.89346   0.75000   0.00000  Uiso   1.00
O1163  O     0.01852   0.83334   0.81491   0.00000  Uiso   1.00
O1164  O     0.31481   0.83332   0.68508   0.00000  Uiso   1.00
O1165  O     0.27267   0.83333   0.81492   0.00000  Uiso   1.00
O1166  O     0.06067   0.83333   0.68508   0.00000  Uiso   1.00
C1167  C     0.27516   0.70920   0.83075   0.00000  Uiso   1.00
C1168  C     0.30435   0.71440   0.86505   0.00000  Uiso   1.00
H1169  H     0.31651   0.68390   0.87490   0.00000  Uiso   1.00
H1170  H     0.00303   0.73420   0.85078   0.00000  Uiso   1.00
H1171  H     0.28163   0.72945   0.89552   0.00000  Uiso   1.00
H1172  H     0.26247   0.74002   0.82281   0.00000  Uiso   1.00
H1173  H     0.24145   0.69185   0.84640   0.00000  Uiso   1.00
C1174  C     0.05674   0.95755   0.66994   0.00000  Uiso   1.00
C1175  C     0.11052   0.95770   0.66797   0.00000  Uiso   1.00
H1176  H     0.11611   0.94671   0.70043   0.00000  Uiso   1.00
H1177  H     0.13029   0.93701   0.64082   0.00000  Uiso   1.00
H1178  H     0.12590   0.98927   0.66086   0.00000  Uiso   1.00
H1179  H     0.04497   0.92505   0.66865   0.00000  Uiso   1.00
H1180  H     0.05103   0.97249   0.63916   0.00000  Uiso   1.00
Cl1181 Cl    0.27345   0.94766   0.83510   0.00000  Uiso   1.00
Cl1182 Cl    0.05780   0.71907   0.66521   0.00000  Uiso   1.00
Cl1183 Cl    0.09608   0.77414   0.81661   0.00000  Uiso   1.00
Cl1184 Cl    0.23761   0.89209   0.68289   0.00000  Uiso   1.00
C1185  C     0.66625   0.75423   0.75130   0.00000  Uiso   1.00
C1186  C     0.33341   0.91247   0.74966   0.00000  Uiso   1.00
C1187  C     0.52496   0.80855   0.54541   0.00000  Uiso   1.00
C1188  C     0.47180   0.84019   0.95213   0.00000  Uiso   1.00
C1189  C     0.57322   0.80310   0.52297   0.00000  Uiso   1.00
C1190  C     0.42344   0.84509   0.97446   0.00000  Uiso   1.00
C1191  C     0.63796   0.68730   0.78896   0.00000  Uiso   1.00
C1192  C     0.36065   0.97947   0.71167   0.00000  Uiso   1.00
C1193  C     0.63888   0.97731   0.78779   0.00000  Uiso   1.00
C1194  C     0.35990   0.68944   0.71289   0.00000  Uiso   1.00
C1195  C     0.66659   0.95715   0.74949   0.00000  Uiso   1.00
C1196  C     0.66592   0.70958   0.75135   0.00000  Uiso   1.00
C1197  C     0.51698   0.80837   0.77882   0.00000  Uiso   1.00
C1198  C     0.48319   0.85783   0.72076   0.00000  Uiso   1.00
C1199  C     0.46760   0.80825   0.77893   0.00000  Uiso   1.00
C1200  C     0.53250   0.85826   0.72089   0.00000  Uiso   1.00
C1201  C     0.63948   0.83286   0.83609   0.00000  Uiso   1.00
C1202  C     0.36052   0.83342   0.66389   0.00000  Uiso   1.00
C1203  C     0.62419   0.82895   0.88524   0.00000  Uiso   1.00
C1204  C     0.37557   0.83423   0.61458   0.00000  Uiso   1.00
C1205  C     0.63876   0.80658   0.95543   0.00000  Uiso   1.00
C1206  C     0.35897   0.84684   0.54284   0.00000  Uiso   1.00
C1207  C     0.65596   0.81507   0.90969   0.00000  Uiso   1.00
C1208  C     0.34279   0.84326   0.58937   0.00000  Uiso   1.00
C1209  C     0.57554   0.83561   0.90725   0.00000  Uiso   1.00
C1210  C     0.42428   0.82742   0.59271   0.00000  Uiso   1.00
C1211  C     0.55685   0.82608   0.95312   0.00000  Uiso   1.00
C1212  C     0.44138   0.82969   0.54566   0.00000  Uiso   1.00
C1213  C     0.58966   0.81200   0.97730   0.00000  Uiso   1.00
C1214  C     0.40787   0.84046   0.52088   0.00000  Uiso   1.00
C1215  C     0.50674   0.83008   0.97551   0.00000  Uiso   1.00
C1216  C     0.49091   0.82288   0.52277   0.00000  Uiso   1.00
Cu1217 Cu    0.38022   0.83334   0.75000   0.00000  Uiso   1.00
Cu1218 Cu    0.61978   0.83333   0.75000   0.00000  Uiso   1.00
H1219  H     0.59793   0.79188   0.54164   0.00000  Uiso   1.00
H1220  H     0.39807   0.85305   0.95517   0.00000  Uiso   1.00
H1221  H     0.44843   0.82153   0.61341   0.00000  Uiso   1.00
H1222  H     0.55306   0.84839   0.88755   0.00000  Uiso   1.00
H1223  H     0.63833   0.84865   0.60558   0.00000  Uiso   1.00
H1224  H     0.36036   0.80967   0.89334   0.00000  Uiso   1.00
H1225  H     0.66374   0.79504   0.97362   0.00000  Uiso   1.00
H1226  H     0.66662   0.85525   0.52406   0.00000  Uiso   1.00
H1227  H     0.51548   0.80007   0.58047   0.00000  Uiso   1.00
H1228  H     0.48021   0.84372   0.91619   0.00000  Uiso   1.00
H1229  H     0.52938   0.78831   0.80180   0.00000  Uiso   1.00
H1230  H     0.47104   0.87699   0.69702   0.00000  Uiso   1.00
N1231  N     0.45069   0.83334   0.74999   0.00000  Uiso   1.00
N1232  N     0.54931   0.83332   0.75001   0.00000  Uiso   1.00
O1233  O     0.37291   0.77322   0.75000   0.00000  Uiso   1.00
O1234  O     0.62709   0.89345   0.75000   0.00000  Uiso   1.00
O1235  O     0.62706   0.77321   0.75000   0.00000  Uiso   1.00
O1236  O     0.37294   0.89346   0.75000   0.00000  Uiso   1.00
O1237  O     0.35186   0.83334   0.81491   0.00000  Uiso   1.00
O1238  O     0.64814   0.83332   0.68508   0.00000  Uiso   1.00
O1239  O     0.60600   0.83333   0.81492   0.00000  Uiso   1.00
O1240  O     0.39400   0.83333   0.68508   0.00000  Uiso   1.00
C1241  C     0.60849   0.70920   0.83075   0.00000  Uiso   1.00
C1242  C     0.63769   0.71440   0.86505   0.00000  Uiso   1.00
H1243  H     0.64984   0.68390   0.87490   0.00000  Uiso   1.00
H1244  H     0.33637   0.73420   0.85078   0.00000  Uiso   1.00
H1245  H     0.61496   0.72945   0.89552   0.00000  Uiso   1.00
H1246  H     0.59581   0.74002   0.82281   0.00000  Uiso   1.00
H1247  H     0.57478   0.69185   0.84640   0.00000  Uiso   1.00
C1248  C     0.39007   0.95755   0.66994   0.00000  Uiso   1.00
C1249  C     0.44385   0.95770   0.66797   0.00000  Uiso   1.00
H1250  H     0.44944   0.94671   0.70043   0.00000  Uiso   1.00
H1251  H     0.46362   0.93701   0.64082   0.00000  Uiso   1.00
H1252  H     0.45924   0.98927   0.66086   0.00000  Uiso   1.00
H1253  H     0.37830   0.92505   0.66865   0.00000  Uiso   1.00
H1254  H     0.38437   0.97249   0.63916   0.00000  Uiso   1.00
Cl1255 Cl    0.60678   0.94766   0.83510   0.00000  Uiso   1.00
Cl1256 Cl    0.39114   0.71907   0.66521   0.00000  Uiso   1.00
Cl1257 Cl    0.42941   0.77414   0.81661   0.00000  Uiso   1.00
Cl1258 Cl    0.57094   0.89209   0.68289   0.00000  Uiso   1.00
C1259  C     0.99958   0.75423   0.75130   0.00000  Uiso   1.00
C1260  C     0.66674   0.91247   0.74966   0.00000  Uiso   1.00
C1261  C     0.85830   0.80855   0.54541   0.00000  Uiso   1.00
C1262  C     0.80513   0.84019   0.95213   0.00000  Uiso   1.00
C1263  C     0.90655   0.80310   0.52297   0.00000  Uiso   1.00
C1264  C     0.75677   0.84509   0.97446   0.00000  Uiso   1.00
C1265  C     0.97130   0.68730   0.78896   0.00000  Uiso   1.00
C1266  C     0.69399   0.97947   0.71167   0.00000  Uiso   1.00
C1267  C     0.97221   0.97731   0.78779   0.00000  Uiso   1.00
C1268  C     0.69323   0.68944   0.71289   0.00000  Uiso   1.00
C1269  C     0.99993   0.95715   0.74949   0.00000  Uiso   1.00
C1270  C     0.99925   0.70958   0.75135   0.00000  Uiso   1.00
C1271  C     0.85031   0.80837   0.77882   0.00000  Uiso   1.00
C1272  C     0.81653   0.85783   0.72076   0.00000  Uiso   1.00
C1273  C     0.80094   0.80825   0.77893   0.00000  Uiso   1.00
C1274  C     0.86583   0.85826   0.72089   0.00000  Uiso   1.00
C1275  C     0.97281   0.83286   0.83609   0.00000  Uiso   1.00
C1276  C     0.69385   0.83342   0.66389   0.00000  Uiso   1.00
C1277  C     0.95753   0.82895   0.88524   0.00000  Uiso   1.00
C1278  C     0.70891   0.83423   0.61458   0.00000  Uiso   1.00
C1279  C     0.97209   0.80658   0.95543   0.00000  Uiso   1.00
C1280  C     0.69230   0.84684   0.54284   0.00000  Uiso   1.00
C1281  C     0.98929   0.81507   0.90969   0.00000  Uiso   1.00
C1282  C     0.67612   0.84326   0.58937   0.00000  Uiso   1.00
C1283  C     0.90887   0.83561   0.90725   0.00000  Uiso   1.00
C1284  C     0.75761   0.82742   0.59271   0.00000  Uiso   1.00
C1285  C     0.89019   0.82608   0.95312   0.00000  Uiso   1.00
C1286  C     0.77472   0.82969   0.54566   0.00000  Uiso   1.00
C1287  C     0.92299   0.81200   0.97730   0.00000  Uiso   1.00
C1288  C     0.74121   0.84046   0.52088   0.00000  Uiso   1.00
C1289  C     0.84007   0.83008   0.97551   0.00000  Uiso   1.00
C1290  C     0.82424   0.82288   0.52277   0.00000  Uiso   1.00
Cu1291 Cu    0.71355   0.83334   0.75000   0.00000  Uiso   1.00
Cu1292 Cu    0.95311   0.83333   0.75000   0.00000  Uiso   1.00
H1293  H     0.93127   0.79188   0.54164   0.00000  Uiso   1.00
H1294  H     0.73140   0.85305   0.95517   0.00000  Uiso   1.00
H1295  H     0.78176   0.82153   0.61341   0.00000  Uiso   1.00
H1296  H     0.88639   0.84839   0.88755   0.00000  Uiso   1.00
H1297  H     0.97166   0.84865   0.60558   0.00000  Uiso   1.00
H1298  H     0.69369   0.80967   0.89334   0.00000  Uiso   1.00
H1299  H     0.99707   0.79504   0.97362   0.00000  Uiso   1.00
H1300  H     0.99996   0.85525   0.52406   0.00000  Uiso   1.00
H1301  H     0.84881   0.80007   0.58047   0.00000  Uiso   1.00
H1302  H     0.81354   0.84372   0.91619   0.00000  Uiso   1.00
H1303  H     0.86272   0.78831   0.80180   0.00000  Uiso   1.00
H1304  H     0.80437   0.87699   0.69702   0.00000  Uiso   1.00
N1305  N     0.78403   0.83334   0.74999   0.00000  Uiso   1.00
N1306  N     0.88264   0.83332   0.75001   0.00000  Uiso   1.00
O1307  O     0.70625   0.77322   0.75000   0.00000  Uiso   1.00
O1308  O     0.96042   0.89345   0.75000   0.00000  Uiso   1.00
O1309  O     0.96039   0.77321   0.75000   0.00000  Uiso   1.00
O1310  O     0.70628   0.89346   0.75000   0.00000  Uiso   1.00
O1311  O     0.68519   0.83334   0.81491   0.00000  Uiso   1.00
O1312  O     0.98148   0.83332   0.68508   0.00000  Uiso   1.00
O1313  O     0.93933   0.83333   0.81492   0.00000  Uiso   1.00
O1314  O     0.72733   0.83333   0.68508   0.00000  Uiso   1.00
C1315  C     0.94182   0.70920   0.83075   0.00000  Uiso   1.00
C1316  C     0.97102   0.71440   0.86505   0.00000  Uiso   1.00
H1317  H     0.98317   0.68390   0.87490   0.00000  Uiso   1.00
H1318  H     0.66970   0.73420   0.85078   0.00000  Uiso   1.00
H1319  H     0.94830   0.72945   0.89552   0.00000  Uiso   1.00
H1320  H     0.92914   0.74002   0.82281   0.00000  Uiso   1.00
H1321  H     0.90811   0.69185   0.84640   0.00000  Uiso   1.00
C1322  C     0.72341   0.95755   0.66994   0.00000  Uiso   1.00
C1323  C     0.77718   0.95770   0.66797   0.00000  Uiso   1.00
H1324  H     0.78277   0.94671   0.70043   0.00000  Uiso   1.00
H1325  H     0.79696   0.93701   0.64082   0.00000  Uiso   1.00
H1326  H     0.79257   0.98927   0.66086   0.00000  Uiso   1.00
H1327  H     0.71163   0.92505   0.66865   0.00000  Uiso   1.00
H1328  H     0.71770   0.97249   0.63916   0.00000  Uiso   1.00
Cl1329 Cl    0.94012   0.94766   0.83510   0.00000  Uiso   1.00
Cl1330 Cl    0.72447   0.71907   0.66521   0.00000  Uiso   1.00
Cl1331 Cl    0.76275   0.77414   0.81661   0.00000  Uiso   1.00
Cl1332 Cl    0.90428   0.89209   0.68289   0.00000  Uiso   1.00
loop_
_geom_bond_atom_site_label_1
_geom_bond_atom_site_label_2
_geom_bond_distance
_geom_bond_site_symmetry_2
_ccdc_geom_bond_type
C1     C12     1.443   .     S
C1     O51     1.289   .     A
C1     O123    1.294   .     S
C2     O52     1.291   .     A
C2     C159    1.444   1_455 S
C2     O198    1.292   1_455 S
C3     H43     1.076   .     S
C3     C5      1.387   .     A
C3     C32     1.417   .     A
C4     C6      1.386   .     A
C4     H44     1.076   .     S
C4     C31     1.417   .     A
C5     H35     1.084   .     S
C5     C695    1.390   1_554 S
C6     H36     1.084   .     S
C6     C696    1.390   .     S
C7     C12     1.414   .     A
C7     C57     1.525   .     S
C7     C453    1.402   1_545 S
C8     C64     1.523   .     S
C8     C232    1.401   .     S
C8     C159    1.413   1_455 S
C9     C11     1.406   .     A
C9     Cl71    1.777   .     S
C9     C229    1.402   .     S
C10    Cl72    1.777   .     S
C10    C452    1.401   1_545 S
C10    C160    1.405   1_455 S
C11    C82     1.413   .     S
C11    C76     1.444   .     S
C12    C84     1.405   .     S
C13    C15     1.415   .     A
C13    N48     1.361   .     A
C13    H45     1.082   .     S
C14    H46     1.079   .     S
C14    C16     1.416   .     A
C14    N47     1.361   .     A
C15    N47     1.378   .     A
C15    Cl73    1.752   .     S
C16    N48     1.378   .     A
C16    Cl74    1.755   .     S
C17    O55     1.297   .     A
C17    C19     1.468   .     S
C17    O127    1.302   .     S
C18    O56     1.297   .     A
C18    C20     1.469   .     S
C18    O202    1.302   1_455 S
C19    C23     1.398   .     A
C19    C25     1.399   .     A
C20    C24     1.398   .     A
C20    C26     1.400   .     A
C21    C23     1.392   .     A
C21    C29     1.404   .     A
C21    H41     1.083   .     S
C22    C24     1.391   .     A
C22    C30     1.404   .     A
C22    H190    1.083   1_455 S
C23    H114    1.081   .     S
C24    H187    1.082   1_455 S
C25    H38     1.075   .     S
C25    C27     1.406   .     A
C26    H37     1.075   .     S
C26    C28     1.406   .     A
C27    C29     1.418   .     A
C27    C31     1.428   .     A
C28    C32     1.428   .     A
C28    C30     1.418   .     A
C29    C671    1.390   .     S
C30    C672    1.390   1_554 S
C31    C698    1.425   .     S
C32    C697    1.425   1_554 S
Cu33   O52     1.954   .     S
Cu33   O53     1.954   .     S
Cu33   N47     2.022   .     S
Cu33   O56     1.938   .     S
Cu33   O49     1.955   .     S
Cu33   Cu182   2.690   1_455 S
Cu34   O51     1.954   .     S
Cu34   O55     1.938   .     S
Cu34   O50     1.955   .     S
Cu34   O54     1.954   .     S
Cu34   N48     2.022   .     S
Cu34   Cu107   2.690   .     S
H39    C98     1.082   .     S
H40    C171    1.081   1_455 S
H42    C96     1.083   .     S
O49    C149    1.294   1_455 S
O50    C76     1.292   .     S
O53    C165    1.302   1_455 S
O54    C92     1.302   .     S
C57    H62     1.106   .     S
C57    H63     1.110   .     S
C57    C58     1.525   .     S
C58    H61     1.110   .     S
C58    H59     1.110   .     S
C58    H134    1.109   .     S
H60    C206    1.109   1_455 S
C64    H70     1.111   .     S
C64    H69     1.109   .     S
C64    C65     1.528   .     S
C65    H67     1.111   .     S
C65    H68     1.109   .     S
C65    H66     1.110   .     S
C75    C86     1.443   .     S
C75    O125    1.289   .     A
C75    O197    1.294   .     S
C76    O126    1.291   .     A
C77    H117    1.076   .     S
C77    C79     1.387   .     A
C77    C106    1.417   .     A
C78    C80     1.386   .     A
C78    H118    1.076   .     S
C78    C105    1.417   .     A
C79    H109    1.084   .     S
C79    C769    1.390   1_554 S
C80    H110    1.084   .     S
C80    C770    1.390   .     S
C81    C86     1.414   .     A
C81    C131    1.525   .     S
C81    C527    1.402   1_545 S
C82    C138    1.523   .     S
C82    C306    1.401   .     S
C83    C85     1.406   .     A
C83    Cl145   1.777   .     S
C83    C303    1.402   .     S
C84    Cl146   1.777   .     S
C84    C526    1.401   1_545 S
C85    C156    1.413   .     S
C85    C150    1.444   .     S
C86    C158    1.405   .     S
C87    C89     1.415   .     A
C87    N122    1.361   .     A
C87    H119    1.082   .     S
C88    H120    1.079   .     S
C88    C90     1.416   .     A
C88    N121    1.361   .     A
C89    N121    1.378   .     A
C89    Cl147   1.752   .     S
C90    N122    1.378   .     A
C90    Cl148   1.755   .     S
C91    O129    1.297   .     A
C91    C93     1.468   .     S
C91    O201    1.302   .     S
C92    O130    1.297   .     A
C92    C94     1.469   .     S
C93    C97     1.398   .     A
C93    C99     1.399   .     A
C94    C98     1.398   .     A
C94    C100    1.400   .     A
C95    C97     1.392   .     A
C95    C103    1.404   .     A
C95    H115    1.083   .     S
C96    C98     1.391   .     A
C96    C104    1.404   .     A
C97    H188    1.081   .     S
C99    H112    1.075   .     S
C99    C101    1.406   .     A
C100   H111    1.075   .     S
C100   C102    1.406   .     A
C101   C103    1.418   .     A
C101   C105    1.428   .     A
C102   C106    1.428   .     A
C102   C104    1.418   .     A
C103   C745    1.390   .     S
C104   C746    1.390   1_554 S
C105   C772    1.425   .     S
C106   C771    1.425   1_554 S
Cu107  O126    1.954   .     S
Cu107  O127    1.954   .     S
Cu107  N121    2.022   .     S
Cu107  O130    1.938   .     S
Cu107  O123    1.955   .     S
Cu108  O125    1.954   .     S
Cu108  O129    1.938   .     S
Cu108  O124    1.955   .     S
Cu108  O128    1.954   .     S
Cu108  N122    2.022   .     S
Cu108  Cu181   2.690   .     S
H113   C172    1.082   .     S
H116   C170    1.083   .     S
O124   C150    1.292   .     S
O128   C166    1.302   .     S
C131   H136    1.106   .     S
C131   H137    1.110   .     S
C131   C132    1.525   .     S
C132   H135    1.110   .     S
C132   H133    1.110   .     S
C132   H208    1.109   .     S
C138   H144    1.111   .     S
C138   H143    1.109   .     S
C138   C139    1.528   .     S
C139   H141    1.111   .     S
C139   H142    1.109   .     S
C139   H140    1.110   .     S
C149   C160    1.443   .     S
C149   O199    1.289   .     A
C149   O49     1.294   1_655 S
C150   O200    1.291   .     A
C151   H191    1.076   .     S
C151   C153    1.387   .     A
C151   C180    1.417   .     A
C152   C154    1.386   .     A
C152   H192    1.076   .     S
C152   C179    1.417   .     A
C153   H183    1.084   .     S
C153   C843    1.390   1_554 S
C154   H184    1.084   .     S
C154   C844    1.390   .     S
C155   C160    1.414   .     A
C155   C205    1.525   .     S
C155   C601    1.402   1_545 S
C156   C212    1.523   .     S
C156   C380    1.401   .     S
C157   C159    1.406   .     A
C157   Cl219   1.777   .     S
C157   C377    1.402   .     S
C158   Cl220   1.777   .     S
C158   C600    1.401   1_545 S
C159   C8      1.413   1_655 S
C159   C2      1.444   1_655 S
C160   C10     1.405   1_655 S
C161   C163    1.415   .     A
C161   N196    1.361   .     A
C161   H193    1.082   .     S
C162   H194    1.079   .     S
C162   C164    1.416   .     A
C162   N195    1.361   .     A
C163   N195    1.378   .     A
C163   Cl221   1.752   .     S
C164   N196    1.378   .     A
C164   Cl222   1.755   .     S
C165   O203    1.297   .     A
C165   C167    1.468   .     S
C165   O53     1.302   1_655 S
C166   O204    1.297   .     A
C166   C168    1.469   .     S
C167   C171    1.398   .     A
C167   C173    1.399   .     A
C168   C172    1.398   .     A
C168   C174    1.400   .     A
C169   C171    1.392   .     A
C169   C177    1.404   .     A
C169   H189    1.083   .     S
C170   C172    1.391   .     A
C170   C178    1.404   .     A
C171   H40     1.081   1_655 S
C173   H186    1.075   .     S
C173   C175    1.406   .     A
C174   H185    1.075   .     S
C174   C176    1.406   .     A
C175   C177    1.418   .     A
C175   C179    1.428   .     A
C176   C180    1.428   .     A
C176   C178    1.418   .     A
C177   C819    1.390   .     S
C178   C820    1.390   1_554 S
C179   C846    1.425   .     S
C180   C845    1.425   1_554 S
Cu181  O200    1.954   .     S
Cu181  O201    1.954   .     S
Cu181  N195    2.022   .     S
Cu181  O204    1.938   .     S
Cu181  O197    1.955   .     S
Cu182  O199    1.954   .     S
Cu182  O203    1.938   .     S
Cu182  O198    1.955   .     S
Cu182  O202    1.954   .     S
Cu182  N196    2.022   .     S
Cu182  Cu33    2.690   1_655 S
H187   C24     1.082   1_655 S
H190   C22     1.083   1_655 S
O198   C2      1.292   1_655 S
O202   C18     1.302   1_655 S
C205   H210    1.106   .     S
C205   H211    1.110   .     S
C205   C206    1.525   .     S
C206   H209    1.110   .     S
C206   H207    1.110   .     S
C206   H60     1.109   1_655 S
C212   H218    1.111   .     S
C212   H217    1.109   .     S
C212   C213    1.528   .     S
C213   H215    1.111   .     S
C213   H216    1.109   .     S
C213   H214    1.110   .     S
C223   C234    1.443   .     S
C223   O273    1.289   .     A
C223   O345    1.294   .     S
C224   O274    1.291   .     A
C224   C381    1.444   1_455 S
C224   O420    1.292   1_455 S
C225   H265    1.076   .     S
C225   C227    1.387   .     A
C225   C254    1.417   .     A
C226   C228    1.386   .     A
C226   H266    1.076   .     S
C226   C253    1.417   .     A
C227   H257    1.084   .     S
C227   C917    1.390   1_554 S
C228   H258    1.084   .     S
C228   C918    1.390   .     S
C229   C234    1.414   .     A
C229   C279    1.525   .     S
C230   C286    1.523   .     S
C230   C454    1.401   .     S
C230   C381    1.413   1_455 S
C231   C233    1.406   .     A
C231   Cl293   1.777   .     S
C231   C451    1.402   .     S
C232   Cl294   1.777   .     S
C232   C382    1.405   1_455 S
C233   C304    1.413   .     S
C233   C298    1.444   .     S
C234   C306    1.405   .     S
C235   C237    1.415   .     A
C235   N270    1.361   .     A
C235   H267    1.082   .     S
C236   H268    1.079   .     S
C236   C238    1.416   .     A
C236   N269    1.361   .     A
C237   N269    1.378   .     A
C237   Cl295   1.752   .     S
C238   N270    1.378   .     A
C238   Cl296   1.755   .     S
C239   O277    1.297   .     A
C239   C241    1.468   .     S
C239   O349    1.302   .     S
C240   O278    1.297   .     A
C240   C242    1.469   .     S
C240   O424    1.302   1_455 S
C241   C245    1.398   .     A
C241   C247    1.399   .     A
C242   C246    1.398   .     A
C242   C248    1.400   .     A
C243   C245    1.392   .     A
C243   C251    1.404   .     A
C243   H263    1.083   .     S
C244   C246    1.391   .     A
C244   C252    1.404   .     A
C244   H412    1.083   1_455 S
C245   H336    1.081   .     S
C246   H409    1.082   1_455 S
C247   H260    1.075   .     S
C247   C249    1.406   .     A
C248   H259    1.075   .     S
C248   C250    1.406   .     A
C249   C251    1.418   .     A
C249   C253    1.428   .     A
C250   C254    1.428   .     A
C250   C252    1.418   .     A
C251   C893    1.390   .     S
C252   C894    1.390   1_554 S
C253   C920    1.425   .     S
C254   C919    1.425   1_554 S
Cu255  O274    1.954   .     S
Cu255  O275    1.954   .     S
Cu255  N269    2.022   .     S
Cu255  O278    1.938   .     S
Cu255  O271    1.955   .     S
Cu255  Cu404   2.690   1_455 S
Cu256  O273    1.954   .     S
Cu256  O277    1.938   .     S
Cu256  O272    1.955   .     S
Cu256  O276    1.954   .     S
Cu256  N270    2.022   .     S
Cu256  Cu329   2.690   .     S
H261   C320    1.082   .     S
H262   C393    1.081   1_455 S
H264   C318    1.083   .     S
O271   C371    1.294   1_455 S
O272   C298    1.292   .     S
O275   C387    1.302   1_455 S
O276   C314    1.302   .     S
C279   H284    1.106   .     S
C279   H285    1.110   .     S
C279   C280    1.525   .     S
C280   H283    1.110   .     S
C280   H281    1.110   .     S
C280   H356    1.109   .     S
H282   C428    1.109   1_455 S
C286   H292    1.111   .     S
C286   H291    1.109   .     S
C286   C287    1.528   .     S
C287   H289    1.111   .     S
C287   H290    1.109   .     S
C287   H288    1.110   .     S
C297   C308    1.443   .     S
C297   O347    1.289   .     A
C297   O419    1.294   .     S
C298   O348    1.291   .     A
C299   H339    1.076   .     S
C299   C301    1.387   .     A
C299   C328    1.417   .     A
C300   C302    1.386   .     A
C300   H340    1.076   .     S
C300   C327    1.417   .     A
C301   H331    1.084   .     S
C301   C991    1.390   1_554 S
C302   H332    1.084   .     S
C302   C992    1.390   .     S
C303   C308    1.414   .     A
C303   C353    1.525   .     S
C304   C360    1.523   .     S
C304   C528    1.401   .     S
C305   C307    1.406   .     A
C305   Cl367   1.777   .     S
C305   C525    1.402   .     S
C306   Cl368   1.777   .     S
C307   C378    1.413   .     S
C307   C372    1.444   .     S
C308   C380    1.405   .     S
C309   C311    1.415   .     A
C309   N344    1.361   .     A
C309   H341    1.082   .     S
C310   H342    1.079   .     S
C310   C312    1.416   .     A
C310   N343    1.361   .     A
C311   N343    1.378   .     A
C311   Cl369   1.752   .     S
C312   N344    1.378   .     A
C312   Cl370   1.755   .     S
C313   O351    1.297   .     A
C313   C315    1.468   .     S
C313   O423    1.302   .     S
C314   O352    1.297   .     A
C314   C316    1.469   .     S
C315   C319    1.398   .     A
C315   C321    1.399   .     A
C316   C320    1.398   .     A
C316   C322    1.400   .     A
C317   C319    1.392   .     A
C317   C325    1.404   .     A
C317   H337    1.083   .     S
C318   C320    1.391   .     A
C318   C326    1.404   .     A
C319   H410    1.081   .     S
C321   H334    1.075   .     S
C321   C323    1.406   .     A
C322   H333    1.075   .     S
C322   C324    1.406   .     A
C323   C325    1.418   .     A
C323   C327    1.428   .     A
C324   C328    1.428   .     A
C324   C326    1.418   .     A
C325   C967    1.390   .     S
C326   C968    1.390   1_554 S
C327   C994    1.425   .     S
C328   C993    1.425   1_554 S
Cu329  O348    1.954   .     S
Cu329  O349    1.954   .     S
Cu329  N343    2.022   .     S
Cu329  O352    1.938   .     S
Cu329  O345    1.955   .     S
Cu330  O347    1.954   .     S
Cu330  O351    1.938   .     S
Cu330  O346    1.955   .     S
Cu330  O350    1.954   .     S
Cu330  N344    2.022   .     S
Cu330  Cu403   2.690   .     S
H335   C394    1.082   .     S
H338   C392    1.083   .     S
O346   C372    1.292   .     S
O350   C388    1.302   .     S
C353   H358    1.106   .     S
C353   H359    1.110   .     S
C353   C354    1.525   .     S
C354   H357    1.110   .     S
C354   H355    1.110   .     S
C354   H430    1.109   .     S
C360   H366    1.111   .     S
C360   H365    1.109   .     S
C360   C361    1.528   .     S
C361   H363    1.111   .     S
C361   H364    1.109   .     S
C361   H362    1.110   .     S
C371   C382    1.443   .     S
C371   O421    1.289   .     A
C371   O271    1.294   1_655 S
C372   O422    1.291   .     A
C373   H413    1.076   .     S
C373   C375    1.387   .     A
C373   C402    1.417   .     A
C374   C376    1.386   .     A
C374   H414    1.076   .     S
C374   C401    1.417   .     A
C375   H405    1.084   .     S
C375   C1065   1.390   1_554 S
C376   H406    1.084   .     S
C376   C1066   1.390   .     S
C377   C382    1.414   .     A
C377   C427    1.525   .     S
C378   C434    1.523   .     S
C378   C602    1.401   .     S
C379   C381    1.406   .     A
C379   Cl441   1.777   .     S
C379   C599    1.402   .     S
C380   Cl442   1.777   .     S
C381   C230    1.413   1_655 S
C381   C224    1.444   1_655 S
C382   C232    1.405   1_655 S
C383   C385    1.415   .     A
C383   N418    1.361   .     A
C383   H415    1.082   .     S
C384   H416    1.079   .     S
C384   C386    1.416   .     A
C384   N417    1.361   .     A
C385   N417    1.378   .     A
C385   Cl443   1.752   .     S
C386   N418    1.378   .     A
C386   Cl444   1.755   .     S
C387   O425    1.297   .     A
C387   C389    1.468   .     S
C387   O275    1.302   1_655 S
C388   O426    1.297   .     A
C388   C390    1.469   .     S
C389   C393    1.398   .     A
C389   C395    1.399   .     A
C390   C394    1.398   .     A
C390   C396    1.400   .     A
C391   C393    1.392   .     A
C391   C399    1.404   .     A
C391   H411    1.083   .     S
C392   C394    1.391   .     A
C392   C400    1.404   .     A
C393   H262    1.081   1_655 S
C395   H408    1.075   .     S
C395   C397    1.406   .     A
C396   H407    1.075   .     S
C396   C398    1.406   .     A
C397   C399    1.418   .     A
C397   C401    1.428   .     A
C398   C402    1.428   .     A
C398   C400    1.418   .     A
C399   C1041   1.390   .     S
C400   C1042   1.390   1_554 S
C401   C1068   1.425   .     S
C402   C1067   1.425   1_554 S
Cu403  O422    1.954   .     S
Cu403  O423    1.954   .     S
Cu403  N417    2.022   .     S
Cu403  O426    1.938   .     S
Cu403  O419    1.955   .     S
Cu404  O421    1.954   .     S
Cu404  O425    1.938   .     S
Cu404  O420    1.955   .     S
Cu404  O424    1.954   .     S
Cu404  N418    2.022   .     S
Cu404  Cu255   2.690   1_655 S
H409   C246    1.082   1_655 S
H412   C244    1.083   1_655 S
O420   C224    1.292   1_655 S
O424   C240    1.302   1_655 S
C427   H432    1.106   .     S
C427   H433    1.110   .     S
C427   C428    1.525   .     S
C428   H431    1.110   .     S
C428   H429    1.110   .     S
C428   H282    1.109   1_655 S
C434   H440    1.111   .     S
C434   H439    1.109   .     S
C434   C435    1.528   .     S
C435   H437    1.111   .     S
C435   H438    1.109   .     S
C435   H436    1.110   .     S
C445   C456    1.443   .     S
C445   O495    1.289   .     A
C445   O567    1.294   .     S
C446   O496    1.291   .     A
C446   C603    1.444   1_455 S
C446   O642    1.292   1_455 S
C447   H487    1.076   .     S
C447   C449    1.387   .     A
C447   C476    1.417   .     A
C448   C450    1.386   .     A
C448   H488    1.076   .     S
C448   C475    1.417   .     A
C449   H479    1.084   .     S
C449   C1139   1.390   1_554 S
C450   H480    1.084   .     S
C450   C1140   1.390   .     S
C451   C456    1.414   .     A
C451   C501    1.525   .     S
C452   C508    1.523   .     S
C452   C10     1.401   1_565 S
C452   C603    1.413   1_455 S
C453   C455    1.406   .     A
C453   Cl515   1.777   .     S
C453   C7      1.402   1_565 S
C454   Cl516   1.777   .     S
C454   C604    1.405   1_455 S
C455   C526    1.413   .     S
C455   C520    1.444   .     S
C456   C528    1.405   .     S
C457   C459    1.415   .     A
C457   N492    1.361   .     A
C457   H489    1.082   .     S
C458   H490    1.079   .     S
C458   C460    1.416   .     A
C458   N491    1.361   .     A
C459   N491    1.378   .     A
C459   Cl517   1.752   .     S
C460   N492    1.378   .     A
C460   Cl518   1.755   .     S
C461   O499    1.297   .     A
C461   C463    1.468   .     S
C461   O571    1.302   .     S
C462   O500    1.297   .     A
C462   C464    1.469   .     S
C462   O646    1.302   1_455 S
C463   C467    1.398   .     A
C463   C469    1.399   .     A
C464   C468    1.398   .     A
C464   C470    1.400   .     A
C465   C467    1.392   .     A
C465   C473    1.404   .     A
C465   H485    1.083   .     S
C466   C468    1.391   .     A
C466   C474    1.404   .     A
C466   H634    1.083   1_455 S
C467   H558    1.081   .     S
C468   H631    1.082   1_455 S
C469   H482    1.075   .     S
C469   C471    1.406   .     A
C470   H481    1.075   .     S
C470   C472    1.406   .     A
C471   C473    1.418   .     A
C471   C475    1.428   .     A
C472   C476    1.428   .     A
C472   C474    1.418   .     A
C473   C1115   1.390   .     S
C474   C1116   1.390   1_554 S
C475   C1142   1.425   .     S
C476   C1141   1.425   1_554 S
Cu477  O496    1.954   .     S
Cu477  O497    1.954   .     S
Cu477  N491    2.022   .     S
Cu477  O500    1.938   .     S
Cu477  O493    1.955   .     S
Cu477  Cu626   2.690   1_455 S
Cu478  O495    1.954   .     S
Cu478  O499    1.938   .     S
Cu478  O494    1.955   .     S
Cu478  O498    1.954   .     S
Cu478  N492    2.022   .     S
Cu478  Cu551   2.690   .     S
H483   C542    1.082   .     S
H484   C615    1.081   1_455 S
H486   C540    1.083   .     S
O493   C593    1.294   1_455 S
O494   C520    1.292   .     S
O497   C609    1.302   1_455 S
O498   C536    1.302   .     S
C501   H506    1.106   .     S
C501   H507    1.110   .     S
C501   C502    1.525   .     S
C502   H505    1.110   .     S
C502   H503    1.110   .     S
C502   H578    1.109   .     S
H504   C650    1.109   1_455 S
C508   H514    1.111   .     S
C508   H513    1.109   .     S
C508   C509    1.528   .     S
C509   H511    1.111   .     S
C509   H512    1.109   .     S
C509   H510    1.110   .     S
C519   C530    1.443   .     S
C519   O569    1.289   .     A
C519   O641    1.294   .     S
C520   O570    1.291   .     A
C521   H561    1.076   .     S
C521   C523    1.387   .     A
C521   C550    1.417   .     A
C522   C524    1.386   .     A
C522   H562    1.076   .     S
C522   C549    1.417   .     A
C523   H553    1.084   .     S
C523   C1213   1.390   1_554 S
C524   H554    1.084   .     S
C524   C1214   1.390   .     S
C525   C530    1.414   .     A
C525   C575    1.525   .     S
C526   C582    1.523   .     S
C526   C84     1.401   1_565 S
C527   C529    1.406   .     A
C527   Cl589   1.777   .     S
C527   C81     1.402   1_565 S
C528   Cl590   1.777   .     S
C529   C600    1.413   .     S
C529   C594    1.444   .     S
C530   C602    1.405   .     S
C531   C533    1.415   .     A
C531   N566    1.361   .     A
C531   H563    1.082   .     S
C532   H564    1.079   .     S
C532   C534    1.416   .     A
C532   N565    1.361   .     A
C533   N565    1.378   .     A
C533   Cl591   1.752   .     S
C534   N566    1.378   .     A
C534   Cl592   1.755   .     S
C535   O573    1.297   .     A
C535   C537    1.468   .     S
C535   O645    1.302   .     S
C536   O574    1.297   .     A
C536   C538    1.469   .     S
C537   C541    1.398   .     A
C537   C543    1.399   .     A
C538   C542    1.398   .     A
C538   C544    1.400   .     A
C539   C541    1.392   .     A
C539   C547    1.404   .     A
C539   H559    1.083   .     S
C540   C542    1.391   .     A
C540   C548    1.404   .     A
C541   H632    1.081   .     S
C543   H556    1.075   .     S
C543   C545    1.406   .     A
C544   H555    1.075   .     S
C544   C546    1.406   .     A
C545   C547    1.418   .     A
C545   C549    1.428   .     A
C546   C550    1.428   .     A
C546   C548    1.418   .     A
C547   C1189   1.390   .     S
C548   C1190   1.390   1_554 S
C549   C1216   1.425   .     S
C550   C1215   1.425   1_554 S
Cu551  O570    1.954   .     S
Cu551  O571    1.954   .     S
Cu551  N565    2.022   .     S
Cu551  O574    1.938   .     S
Cu551  O567    1.955   .     S
Cu552  O569    1.954   .     S
Cu552  O573    1.938   .     S
Cu552  O568    1.955   .     S
Cu552  O572    1.954   .     S
Cu552  N566    2.022   .     S
Cu552  Cu625   2.690   .     S
H557   C616    1.082   .     S
H560   C614    1.083   .     S
O568   C594    1.292   .     S
O572   C610    1.302   .     S
C575   H580    1.106   .     S
C575   H581    1.110   .     S
C575   C576    1.525   .     S
C576   H579    1.110   .     S
C576   H577    1.110   .     S
C576   H652    1.109   .     S
C582   H588    1.111   .     S
C582   H587    1.109   .     S
C582   C583    1.528   .     S
C583   H585    1.111   .     S
C583   H586    1.109   .     S
C583   H584    1.110   .     S
C593   C604    1.443   .     S
C593   O643    1.289   .     A
C593   O493    1.294   1_655 S
C594   O644    1.291   .     A
C595   H635    1.076   .     S
C595   C597    1.387   .     A
C595   C624    1.417   .     A
C596   C598    1.386   .     A
C596   H636    1.076   .     S
C596   C623    1.417   .     A
C597   H627    1.084   .     S
C597   C1287   1.390   1_554 S
C598   H628    1.084   .     S
C598   C1288   1.390   .     S
C599   C604    1.414   .     A
C599   C649    1.525   .     S
C600   C656    1.523   .     S
C600   C158    1.401   1_565 S
C601   C603    1.406   .     A
C601   Cl663   1.777   .     S
C601   C155    1.402   1_565 S
C602   Cl664   1.777   .     S
C603   C452    1.413   1_655 S
C603   C446    1.444   1_655 S
C604   C454    1.405   1_655 S
C605   C607    1.415   .     A
C605   N640    1.361   .     A
C605   H637    1.082   .     S
C606   H638    1.079   .     S
C606   C608    1.416   .     A
C606   N639    1.361   .     A
C607   N639    1.378   .     A
C607   Cl665   1.752   .     S
C608   N640    1.378   .     A
C608   Cl666   1.755   .     S
C609   O647    1.297   .     A
C609   C611    1.468   .     S
C609   O497    1.302   1_655 S
C610   O648    1.297   .     A
C610   C612    1.469   .     S
C611   C615    1.398   .     A
C611   C617    1.399   .     A
C612   C616    1.398   .     A
C612   C618    1.400   .     A
C613   C615    1.392   .     A
C613   C621    1.404   .     A
C613   H633    1.083   .     S
C614   C616    1.391   .     A
C614   C622    1.404   .     A
C615   H484    1.081   1_655 S
C617   H630    1.075   .     S
C617   C619    1.406   .     A
C618   H629    1.075   .     S
C618   C620    1.406   .     A
C619   C621    1.418   .     A
C619   C623    1.428   .     A
C620   C624    1.428   .     A
C620   C622    1.418   .     A
C621   C1263   1.390   .     S
C622   C1264   1.390   1_554 S
C623   C1290   1.425   .     S
C624   C1289   1.425   1_554 S
Cu625  O644    1.954   .     S
Cu625  O645    1.954   .     S
Cu625  N639    2.022   .     S
Cu625  O648    1.938   .     S
Cu625  O641    1.955   .     S
Cu626  O643    1.954   .     S
Cu626  O647    1.938   .     S
Cu626  O642    1.955   .     S
Cu626  O646    1.954   .     S
Cu626  N640    2.022   .     S
Cu626  Cu477   2.690   1_655 S
H631   C468    1.082   1_655 S
H634   C466    1.083   1_655 S
O642   C446    1.292   1_655 S
O646   C462    1.302   1_655 S
C649   H654    1.106   .     S
C649   H655    1.110   .     S
C649   C650    1.525   .     S
C650   H653    1.110   .     S
C650   H651    1.110   .     S
C650   H504    1.109   1_655 S
C656   H662    1.111   .     S
C656   H661    1.109   .     S
C656   C657    1.528   .     S
C657   H659    1.111   .     S
C657   H660    1.109   .     S
C657   H658    1.110   .     S
C667   C678    1.443   .     S
C667   O717    1.289   .     A
C667   O789    1.294   .     S
C668   O718    1.291   .     A
C668   C825    1.444   1_455 S
C668   O864    1.292   1_455 S
C669   H709    1.076   .     S
C669   C671    1.387   .     A
C669   C698    1.417   .     A
C670   C672    1.386   .     A
C670   H710    1.076   .     S
C670   C697    1.417   .     A
C671   H701    1.084   .     S
C672   H702    1.084   .     S
C672   C30     1.390   1_556 S
C673   C678    1.414   .     A
C673   C723    1.525   .     S
C673   C1119   1.402   1_545 S
C674   C730    1.523   .     S
C674   C898    1.401   .     S
C674   C825    1.413   1_455 S
C675   C677    1.406   .     A
C675   Cl737   1.777   .     S
C675   C895    1.402   .     S
C676   Cl738   1.777   .     S
C676   C1118   1.401   1_545 S
C676   C826    1.405   1_455 S
C677   C748    1.413   .     S
C677   C742    1.444   .     S
C678   C750    1.405   .     S
C679   C681    1.415   .     A
C679   N714    1.361   .     A
C679   H711    1.082   .     S
C680   H712    1.079   .     S
C680   C682    1.416   .     A
C680   N713    1.361   .     A
C681   N713    1.378   .     A
C681   Cl739   1.752   .     S
C682   N714    1.378   .     A
C682   Cl740   1.755   .     S
C683   O721    1.297   .     A
C683   C685    1.468   .     S
C683   O793    1.302   .     S
C684   O722    1.297   .     A
C684   C686    1.469   .     S
C684   O868    1.302   1_455 S
C685   C689    1.398   .     A
C685   C691    1.399   .     A
C686   C690    1.398   .     A
C686   C692    1.400   .     A
C687   C689    1.392   .     A
C687   C695    1.404   .     A
C687   H707    1.083   .     S
C688   C690    1.391   .     A
C688   C696    1.404   .     A
C688   H856    1.083   1_455 S
C689   H780    1.081   .     S
C690   H853    1.082   1_455 S
C691   H704    1.075   .     S
C691   C693    1.406   .     A
C692   H703    1.075   .     S
C692   C694    1.406   .     A
C693   C695    1.418   .     A
C693   C697    1.428   .     A
C694   C698    1.428   .     A
C694   C696    1.418   .     A
C695   C5      1.390   1_556 S
C697   C32     1.425   1_556 S
Cu699  O718    1.954   .     S
Cu699  O719    1.954   .     S
Cu699  N713    2.022   .     S
Cu699  O722    1.938   .     S
Cu699  O715    1.955   .     S
Cu699  Cu848   2.690   1_455 S
Cu700  O717    1.954   .     S
Cu700  O721    1.938   .     S
Cu700  O716    1.955   .     S
Cu700  O720    1.954   .     S
Cu700  N714    2.022   .     S
Cu700  Cu773   2.690   .     S
H705   C764    1.082   .     S
H706   C837    1.081   1_455 S
H708   C762    1.083   .     S
O715   C815    1.294   1_455 S
O716   C742    1.292   .     S
O719   C831    1.302   1_455 S
O720   C758    1.302   .     S
C723   H728    1.106   .     S
C723   H729    1.110   .     S
C723   C724    1.525   .     S
C724   H727    1.110   .     S
C724   H725    1.110   .     S
C724   H800    1.109   .     S
H726   C872    1.109   1_455 S
C730   H736    1.111   .     S
C730   H735    1.109   .     S
C730   C731    1.528   .     S
C731   H733    1.111   .     S
C731   H734    1.109   .     S
C731   H732    1.110   .     S
C741   C752    1.443   .     S
C741   O791    1.289   .     A
C741   O863    1.294   .     S
C742   O792    1.291   .     A
C743   H783    1.076   .     S
C743   C745    1.387   .     A
C743   C772    1.417   .     A
C744   C746    1.386   .     A
C744   H784    1.076   .     S
C744   C771    1.417   .     A
C745   H775    1.084   .     S
C746   H776    1.084   .     S
C746   C104    1.390   1_556 S
C747   C752    1.414   .     A
C747   C797    1.525   .     S
C747   C1193   1.402   1_545 S
C748   C804    1.523   .     S
C748   C972    1.401   .     S
C749   C751    1.406   .     A
C749   Cl811   1.777   .     S
C749   C969    1.402   .     S
C750   Cl812   1.777   .     S
C750   C1192   1.401   1_545 S
C751   C822    1.413   .     S
C751   C816    1.444   .     S
C752   C824    1.405   .     S
C753   C755    1.415   .     A
C753   N788    1.361   .     A
C753   H785    1.082   .     S
C754   H786    1.079   .     S
C754   C756    1.416   .     A
C754   N787    1.361   .     A
C755   N787    1.378   .     A
C755   Cl813   1.752   .     S
C756   N788    1.378   .     A
C756   Cl814   1.755   .     S
C757   O795    1.297   .     A
C757   C759    1.468   .     S
C757   O867    1.302   .     S
C758   O796    1.297   .     A
C758   C760    1.469   .     S
C759   C763    1.398   .     A
C759   C765    1.399   .     A
C760   C764    1.398   .     A
C760   C766    1.400   .     A
C761   C763    1.392   .     A
C761   C769    1.404   .     A
C761   H781    1.083   .     S
C762   C764    1.391   .     A
C762   C770    1.404   .     A
C763   H854    1.081   .     S
C765   H778    1.075   .     S
C765   C767    1.406   .     A
C766   H777    1.075   .     S
C766   C768    1.406   .     A
C767   C769    1.418   .     A
C767   C771    1.428   .     A
C768   C772    1.428   .     A
C768   C770    1.418   .     A
C769   C79     1.390   1_556 S
C771   C106    1.425   1_556 S
Cu773  O792    1.954   .     S
Cu773  O793    1.954   .     S
Cu773  N787    2.022   .     S
Cu773  O796    1.938   .     S
Cu773  O789    1.955   .     S
Cu774  O791    1.954   .     S
Cu774  O795    1.938   .     S
Cu774  O790    1.955   .     S
Cu774  O794    1.954   .     S
Cu774  N788    2.022   .     S
Cu774  Cu847   2.690   .     S
H779   C838    1.082   .     S
H782   C836    1.083   .     S
O790   C816    1.292   .     S
O794   C832    1.302   .     S
C797   H802    1.106   .     S
C797   H803    1.110   .     S
C797   C798    1.525   .     S
C798   H801    1.110   .     S
C798   H799    1.110   .     S
C798   H874    1.109   .     S
C804   H810    1.111   .     S
C804   H809    1.109   .     S
C804   C805    1.528   .     S
C805   H807    1.111   .     S
C805   H808    1.109   .     S
C805   H806    1.110   .     S
C815   C826    1.443   .     S
C815   O865    1.289   .     A
C815   O715    1.294   1_655 S
C816   O866    1.291   .     A
C817   H857    1.076   .     S
C817   C819    1.387   .     A
C817   C846    1.417   .     A
C818   C820    1.386   .     A
C818   H858    1.076   .     S
C818   C845    1.417   .     A
C819   H849    1.084   .     S
C820   H850    1.084   .     S
C820   C178    1.390   1_556 S
C821   C826    1.414   .     A
C821   C871    1.525   .     S
C821   C1267   1.402   1_545 S
C822   C878    1.523   .     S
C822   C1046   1.401   .     S
C823   C825    1.406   .     A
C823   Cl885   1.777   .     S
C823   C1043   1.402   .     S
C824   Cl886   1.777   .     S
C824   C1266   1.401   1_545 S
C825   C674    1.413   1_655 S
C825   C668    1.444   1_655 S
C826   C676    1.405   1_655 S
C827   C829    1.415   .     A
C827   N862    1.361   .     A
C827   H859    1.082   .     S
C828   H860    1.079   .     S
C828   C830    1.416   .     A
C828   N861    1.361   .     A
C829   N861    1.378   .     A
C829   Cl887   1.752   .     S
C830   N862    1.378   .     A
C830   Cl888   1.755   .     S
C831   O869    1.297   .     A
C831   C833    1.468   .     S
C831   O719    1.302   1_655 S
C832   O870    1.297   .     A
C832   C834    1.469   .     S
C833   C837    1.398   .     A
C833   C839    1.399   .     A
C834   C838    1.398   .     A
C834   C840    1.400   .     A
C835   C837    1.392   .     A
C835   C843    1.404   .     A
C835   H855    1.083   .     S
C836   C838    1.391   .     A
C836   C844    1.404   .     A
C837   H706    1.081   1_655 S
C839   H852    1.075   .     S
C839   C841    1.406   .     A
C840   H851    1.075   .     S
C840   C842    1.406   .     A
C841   C843    1.418   .     A
C841   C845    1.428   .     A
C842   C846    1.428   .     A
C842   C844    1.418   .     A
C843   C153    1.390   1_556 S
C845   C180    1.425   1_556 S
Cu847  O866    1.954   .     S
Cu847  O867    1.954   .     S
Cu847  N861    2.022   .     S
Cu847  O870    1.938   .     S
Cu847  O863    1.955   .     S
Cu848  O865    1.954   .     S
Cu848  O869    1.938   .     S
Cu848  O864    1.955   .     S
Cu848  O868    1.954   .     S
Cu848  N862    2.022   .     S
Cu848  Cu699   2.690   1_655 S
H853   C690    1.082   1_655 S
H856   C688    1.083   1_655 S
O864   C668    1.292   1_655 S
O868   C684    1.302   1_655 S
C871   H876    1.106   .     S
C871   H877    1.110   .     S
C871   C872    1.525   .     S
C872   H875    1.110   .     S
C872   H873    1.110   .     S
C872   H726    1.109   1_655 S
C878   H884    1.111   .     S
C878   H883    1.109   .     S
C878   C879    1.528   .     S
C879   H881    1.111   .     S
C879   H882    1.109   .     S
C879   H880    1.110   .     S
C889   C900    1.443   .     S
C889   O939    1.289   .     A
C889   O1011   1.294   .     S
C890   O940    1.291   .     A
C890   C1047   1.444   1_455 S
C890   O1086   1.292   1_455 S
C891   H931    1.076   .     S
C891   C893    1.387   .     A
C891   C920    1.417   .     A
C892   C894    1.386   .     A
C892   H932    1.076   .     S
C892   C919    1.417   .     A
C893   H923    1.084   .     S
C894   H924    1.084   .     S
C894   C252    1.390   1_556 S
C895   C900    1.414   .     A
C895   C945    1.525   .     S
C896   C952    1.523   .     S
C896   C1120   1.401   .     S
C896   C1047   1.413   1_455 S
C897   C899    1.406   .     A
C897   Cl959   1.777   .     S
C897   C1117   1.402   .     S
C898   Cl960   1.777   .     S
C898   C1048   1.405   1_455 S
C899   C970    1.413   .     S
C899   C964    1.444   .     S
C900   C972    1.405   .     S
C901   C903    1.415   .     A
C901   N936    1.361   .     A
C901   H933    1.082   .     S
C902   H934    1.079   .     S
C902   C904    1.416   .     A
C902   N935    1.361   .     A
C903   N935    1.378   .     A
C903   Cl961   1.752   .     S
C904   N936    1.378   .     A
C904   Cl962   1.755   .     S
C905   O943    1.297   .     A
C905   C907    1.468   .     S
C905   O1015   1.302   .     S
C906   O944    1.297   .     A
C906   C908    1.469   .     S
C906   O1090   1.302   1_455 S
C907   C911    1.398   .     A
C907   C913    1.399   .     A
C908   C912    1.398   .     A
C908   C914    1.400   .     A
C909   C911    1.392   .     A
C909   C917    1.404   .     A
C909   H929    1.083   .     S
C910   C912    1.391   .     A
C910   C918    1.404   .     A
C910   H1078   1.083   1_455 S
C911   H1002   1.081   .     S
C912   H1075   1.082   1_455 S
C913   H926    1.075   .     S
C913   C915    1.406   .     A
C914   H925    1.075   .     S
C914   C916    1.406   .     A
C915   C917    1.418   .     A
C915   C919    1.428   .     A
C916   C920    1.428   .     A
C916   C918    1.418   .     A
C917   C227    1.390   1_556 S
C919   C254    1.425   1_556 S
Cu921  O940    1.954   .     S
Cu921  O941    1.954   .     S
Cu921  N935    2.022   .     S
Cu921  O944    1.938   .     S
Cu921  O937    1.955   .     S
Cu921  Cu1070  2.690   1_455 S
Cu922  O939    1.954   .     S
Cu922  O943    1.938   .     S
Cu922  O938    1.955   .     S
Cu922  O942    1.954   .     S
Cu922  N936    2.022   .     S
Cu922  Cu995   2.690   .     S
H927   C986    1.082   .     S
H928   C1059   1.081   1_455 S
H930   C984    1.083   .     S
O937   C1037   1.294   1_455 S
O938   C964    1.292   .     S
O941   C1053   1.302   1_455 S
O942   C980    1.302   .     S
C945   H950    1.106   .     S
C945   H951    1.110   .     S
C945   C946    1.525   .     S
C946   H949    1.110   .     S
C946   H947    1.110   .     S
C946   H1022   1.109   .     S
H948   C1094   1.109   1_455 S
C952   H958    1.111   .     S
C952   H957    1.109   .     S
C952   C953    1.528   .     S
C953   H955    1.111   .     S
C953   H956    1.109   .     S
C953   H954    1.110   .     S
C963   C974    1.443   .     S
C963   O1013   1.289   .     A
C963   O1085   1.294   .     S
C964   O1014   1.291   .     A
C965   H1005   1.076   .     S
C965   C967    1.387   .     A
C965   C994    1.417   .     A
C966   C968    1.386   .     A
C966   H1006   1.076   .     S
C966   C993    1.417   .     A
C967   H997    1.084   .     S
C968   H998    1.084   .     S
C968   C326    1.390   1_556 S
C969   C974    1.414   .     A
C969   C1019   1.525   .     S
C970   C1026   1.523   .     S
C970   C1194   1.401   .     S
C971   C973    1.406   .     A
C971   Cl1033  1.777   .     S
C971   C1191   1.402   .     S
C972   Cl1034  1.777   .     S
C973   C1044   1.413   .     S
C973   C1038   1.444   .     S
C974   C1046   1.405   .     S
C975   C977    1.415   .     A
C975   N1010   1.361   .     A
C975   H1007   1.082   .     S
C976   H1008   1.079   .     S
C976   C978    1.416   .     A
C976   N1009   1.361   .     A
C977   N1009   1.378   .     A
C977   Cl1035  1.752   .     S
C978   N1010   1.378   .     A
C978   Cl1036  1.755   .     S
C979   O1017   1.297   .     A
C979   C981    1.468   .     S
C979   O1089   1.302   .     S
C980   O1018   1.297   .     A
C980   C982    1.469   .     S
C981   C985    1.398   .     A
C981   C987    1.399   .     A
C982   C986    1.398   .     A
C982   C988    1.400   .     A
C983   C985    1.392   .     A
C983   C991    1.404   .     A
C983   H1003   1.083   .     S
C984   C986    1.391   .     A
C984   C992    1.404   .     A
C985   H1076   1.081   .     S
C987   H1000   1.075   .     S
C987   C989    1.406   .     A
C988   H999    1.075   .     S
C988   C990    1.406   .     A
C989   C991    1.418   .     A
C989   C993    1.428   .     A
C990   C994    1.428   .     A
C990   C992    1.418   .     A
C991   C301    1.390   1_556 S
C993   C328    1.425   1_556 S
Cu995  O1014   1.954   .     S
Cu995  O1015   1.954   .     S
Cu995  N1009   2.022   .     S
Cu995  O1018   1.938   .     S
Cu995  O1011   1.955   .     S
Cu996  O1013   1.954   .     S
Cu996  O1017   1.938   .     S
Cu996  O1012   1.955   .     S
Cu996  O1016   1.954   .     S
Cu996  N1010   2.022   .     S
Cu996  Cu1069  2.690   .     S
H1001  C1060   1.082   .     S
H1004  C1058   1.083   .     S
O1012  C1038   1.292   .     S
O1016  C1054   1.302   .     S
C1019  H1024   1.106   .     S
C1019  H1025   1.110   .     S
C1019  C1020   1.525   .     S
C1020  H1023   1.110   .     S
C1020  H1021   1.110   .     S
C1020  H1096   1.109   .     S
C1026  H1032   1.111   .     S
C1026  H1031   1.109   .     S
C1026  C1027   1.528   .     S
C1027  H1029   1.111   .     S
C1027  H1030   1.109   .     S
C1027  H1028   1.110   .     S
C1037  C1048   1.443   .     S
C1037  O1087   1.289   .     A
C1037  O937    1.294   1_655 S
C1038  O1088   1.291   .     A
C1039  H1079   1.076   .     S
C1039  C1041   1.387   .     A
C1039  C1068   1.417   .     A
C1040  C1042   1.386   .     A
C1040  H1080   1.076   .     S
C1040  C1067   1.417   .     A
C1041  H1071   1.084   .     S
C1042  H1072   1.084   .     S
C1042  C400    1.390   1_556 S
C1043  C1048   1.414   .     A
C1043  C1093   1.525   .     S
C1044  C1100   1.523   .     S
C1044  C1268   1.401   .     S
C1045  C1047   1.406   .     A
C1045  Cl1107  1.777   .     S
C1045  C1265   1.402   .     S
C1046  Cl1108  1.777   .     S
C1047  C896    1.413   1_655 S
C1047  C890    1.444   1_655 S
C1048  C898    1.405   1_655 S
C1049  C1051   1.415   .     A
C1049  N1084   1.361   .     A
C1049  H1081   1.082   .     S
C1050  H1082   1.079   .     S
C1050  C1052   1.416   .     A
C1050  N1083   1.361   .     A
C1051  N1083   1.378   .     A
C1051  Cl1109  1.752   .     S
C1052  N1084   1.378   .     A
C1052  Cl1110  1.755   .     S
C1053  O1091   1.297   .     A
C1053  C1055   1.468   .     S
C1053  O941    1.302   1_655 S
C1054  O1092   1.297   .     A
C1054  C1056   1.469   .     S
C1055  C1059   1.398   .     A
C1055  C1061   1.399   .     A
C1056  C1060   1.398   .     A
C1056  C1062   1.400   .     A
C1057  C1059   1.392   .     A
C1057  C1065   1.404   .     A
C1057  H1077   1.083   .     S
C1058  C1060   1.391   .     A
C1058  C1066   1.404   .     A
C1059  H928    1.081   1_655 S
C1061  H1074   1.075   .     S
C1061  C1063   1.406   .     A
C1062  H1073   1.075   .     S
C1062  C1064   1.406   .     A
C1063  C1065   1.418   .     A
C1063  C1067   1.428   .     A
C1064  C1068   1.428   .     A
C1064  C1066   1.418   .     A
C1065  C375    1.390   1_556 S
C1067  C402    1.425   1_556 S
Cu1069 O1088   1.954   .     S
Cu1069 O1089   1.954   .     S
Cu1069 N1083   2.022   .     S
Cu1069 O1092   1.938   .     S
Cu1069 O1085   1.955   .     S
Cu1070 O1087   1.954   .     S
Cu1070 O1091   1.938   .     S
Cu1070 O1086   1.955   .     S
Cu1070 O1090   1.954   .     S
Cu1070 N1084   2.022   .     S
Cu1070 Cu921   2.690   1_655 S
H1075  C912    1.082   1_655 S
H1078  C910    1.083   1_655 S
O1086  C890    1.292   1_655 S
O1090  C906    1.302   1_655 S
C1093  H1098   1.106   .     S
C1093  H1099   1.110   .     S
C1093  C1094   1.525   .     S
C1094  H1097   1.110   .     S
C1094  H1095   1.110   .     S
C1094  H948    1.109   1_655 S
C1100  H1106   1.111   .     S
C1100  H1105   1.109   .     S
C1100  C1101   1.528   .     S
C1101  H1103   1.111   .     S
C1101  H1104   1.109   .     S
C1101  H1102   1.110   .     S
C1111  C1122   1.443   .     S
C1111  O1161   1.289   .     A
C1111  O1233   1.294   .     S
C1112  O1162   1.291   .     A
C1112  C1269   1.444   1_455 S
C1112  O1308   1.292   1_455 S
C1113  H1153   1.076   .     S
C1113  C1115   1.387   .     A
C1113  C1142   1.417   .     A
C1114  C1116   1.386   .     A
C1114  H1154   1.076   .     S
C1114  C1141   1.417   .     A
C1115  H1145   1.084   .     S
C1116  H1146   1.084   .     S
C1116  C474    1.390   1_556 S
C1117  C1122   1.414   .     A
C1117  C1167   1.525   .     S
C1118  C1174   1.523   .     S
C1118  C676    1.401   1_565 S
C1118  C1269   1.413   1_455 S
C1119  C1121   1.406   .     A
C1119  Cl1181  1.777   .     S
C1119  C673    1.402   1_565 S
C1120  Cl1182  1.777   .     S
C1120  C1270   1.405   1_455 S
C1121  C1192   1.413   .     S
C1121  C1186   1.444   .     S
C1122  C1194   1.405   .     S
C1123  C1125   1.415   .     A
C1123  N1158   1.361   .     A
C1123  H1155   1.082   .     S
C1124  H1156   1.079   .     S
C1124  C1126   1.416   .     A
C1124  N1157   1.361   .     A
C1125  N1157   1.378   .     A
C1125  Cl1183  1.752   .     S
C1126  N1158   1.378   .     A
C1126  Cl1184  1.755   .     S
C1127  O1165   1.297   .     A
C1127  C1129   1.468   .     S
C1127  O1237   1.302   .     S
C1128  O1166   1.297   .     A
C1128  C1130   1.469   .     S
C1128  O1312   1.302   1_455 S
C1129  C1133   1.398   .     A
C1129  C1135   1.399   .     A
C1130  C1134   1.398   .     A
C1130  C1136   1.400   .     A
C1131  C1133   1.392   .     A
C1131  C1139   1.404   .     A
C1131  H1151   1.083   .     S
C1132  C1134   1.391   .     A
C1132  C1140   1.404   .     A
C1132  H1300   1.083   1_455 S
C1133  H1224   1.081   .     S
C1134  H1297   1.082   1_455 S
C1135  H1148   1.075   .     S
C1135  C1137   1.406   .     A
C1136  H1147   1.075   .     S
C1136  C1138   1.406   .     A
C1137  C1139   1.418   .     A
C1137  C1141   1.428   .     A
C1138  C1142   1.428   .     A
C1138  C1140   1.418   .     A
C1139  C449    1.390   1_556 S
C1141  C476    1.425   1_556 S
Cu1143 O1162   1.954   .     S
Cu1143 O1163   1.954   .     S
Cu1143 N1157   2.022   .     S
Cu1143 O1166   1.938   .     S
Cu1143 O1159   1.955   .     S
Cu1143 Cu1292  2.690   1_455 S
Cu1144 O1161   1.954   .     S
Cu1144 O1165   1.938   .     S
Cu1144 O1160   1.955   .     S
Cu1144 O1164   1.954   .     S
Cu1144 N1158   2.022   .     S
Cu1144 Cu1217  2.690   .     S
H1149  C1208   1.082   .     S
H1150  C1281   1.081   1_455 S
H1152  C1206   1.083   .     S
O1159  C1259   1.294   1_455 S
O1160  C1186   1.292   .     S
O1163  C1275   1.302   1_455 S
O1164  C1202   1.302   .     S
C1167  H1172   1.106   .     S
C1167  H1173   1.110   .     S
C1167  C1168   1.525   .     S
C1168  H1171   1.110   .     S
C1168  H1169   1.110   .     S
C1168  H1244   1.109   .     S
H1170  C1316   1.109   1_455 S
C1174  H1180   1.111   .     S
C1174  H1179   1.109   .     S
C1174  C1175   1.528   .     S
C1175  H1177   1.111   .     S
C1175  H1178   1.109   .     S
C1175  H1176   1.110   .     S
C1185  C1196   1.443   .     S
C1185  O1235   1.289   .     A
C1185  O1307   1.294   .     S
C1186  O1236   1.291   .     A
C1187  H1227   1.076   .     S
C1187  C1189   1.387   .     A
C1187  C1216   1.417   .     A
C1188  C1190   1.386   .     A
C1188  H1228   1.076   .     S
C1188  C1215   1.417   .     A
C1189  H1219   1.084   .     S
C1190  H1220   1.084   .     S
C1190  C548    1.390   1_556 S
C1191  C1196   1.414   .     A
C1191  C1241   1.525   .     S
C1192  C1248   1.523   .     S
C1192  C750    1.401   1_565 S
C1193  C1195   1.406   .     A
C1193  Cl1255  1.777   .     S
C1193  C747    1.402   1_565 S
C1194  Cl1256  1.777   .     S
C1195  C1266   1.413   .     S
C1195  C1260   1.444   .     S
C1196  C1268   1.405   .     S
C1197  C1199   1.415   .     A
C1197  N1232   1.361   .     A
C1197  H1229   1.082   .     S
C1198  H1230   1.079   .     S
C1198  C1200   1.416   .     A
C1198  N1231   1.361   .     A
C1199  N1231   1.378   .     A
C1199  Cl1257  1.752   .     S
C1200  N1232   1.378   .     A
C1200  Cl1258  1.755   .     S
C1201  O1239   1.297   .     A
C1201  C1203   1.468   .     S
C1201  O1311   1.302   .     S
C1202  O1240   1.297   .     A
C1202  C1204   1.469   .     S
C1203  C1207   1.398   .     A
C1203  C1209   1.399   .     A
C1204  C1208   1.398   .     A
C1204  C1210   1.400   .     A
C1205  C1207   1.392   .     A
C1205  C1213   1.404   .     A
C1205  H1225   1.083   .     S
C1206  C1208   1.391   .     A
C1206  C1214   1.404   .     A
C1207  H1298   1.081   .     S
C1209  H1222   1.075   .     S
C1209  C1211   1.406   .     A
C1210  H1221   1.075   .     S
C1210  C1212   1.406   .     A
C1211  C1213   1.418   .     A
C1211  C1215   1.428   .     A
C1212  C1216   1.428   .     A
C1212  C1214   1.418   .     A
C1213  C523    1.390   1_556 S
C1215  C550    1.425   1_556 S
Cu1217 O1236   1.954   .     S
Cu1217 O1237   1.954   .     S
Cu1217 N1231   2.022   .     S
Cu1217 O1240   1.938   .     S
Cu1217 O1233   1.955   .     S
Cu1218 O1235   1.954   .     S
Cu1218 O1239   1.938   .     S
Cu1218 O1234   1.955   .     S
Cu1218 O1238   1.954   .     S
Cu1218 N1232   2.022   .     S
Cu1218 Cu1291  2.690   .     S
H1223  C1282   1.082   .     S
H1226  C1280   1.083   .     S
O1234  C1260   1.292   .     S
O1238  C1276   1.302   .     S
C1241  H1246   1.106   .     S
C1241  H1247   1.110   .     S
C1241  C1242   1.525   .     S
C1242  H1245   1.110   .     S
C1242  H1243   1.110   .     S
C1242  H1318   1.109   .     S
C1248  H1254   1.111   .     S
C1248  H1253   1.109   .     S
C1248  C1249   1.528   .     S
C1249  H1251   1.111   .     S
C1249  H1252   1.109   .     S
C1249  H1250   1.110   .     S
C1259  C1270   1.443   .     S
C1259  O1309   1.289   .     A
C1259  O1159   1.294   1_655 S
C1260  O1310   1.291   .     A
C1261  H1301   1.076   .     S
C1261  C1263   1.387   .     A
C1261  C1290   1.417   .     A
C1262  C1264   1.386   .     A
C1262  H1302   1.076   .     S
C1262  C1289   1.417   .     A
C1263  H1293   1.084   .     S
C1264  H1294   1.084   .     S
C1264  C622    1.390   1_556 S
C1265  C1270   1.414   .     A
C1265  C1315   1.525   .     S
C1266  C1322   1.523   .     S
C1266  C824    1.401   1_565 S
C1267  C1269   1.406   .     A
C1267  Cl1329  1.777   .     S
C1267  C821    1.402   1_565 S
C1268  Cl1330  1.777   .     S
C1269  C1118   1.413   1_655 S
C1269  C1112   1.444   1_655 S
C1270  C1120   1.405   1_655 S
C1271  C1273   1.415   .     A
C1271  N1306   1.361   .     A
C1271  H1303   1.082   .     S
C1272  H1304   1.079   .     S
C1272  C1274   1.416   .     A
C1272  N1305   1.361   .     A
C1273  N1305   1.378   .     A
C1273  Cl1331  1.752   .     S
C1274  N1306   1.378   .     A
C1274  Cl1332  1.755   .     S
C1275  O1313   1.297   .     A
C1275  C1277   1.468   .     S
C1275  O1163   1.302   1_655 S
C1276  O1314   1.297   .     A
C1276  C1278   1.469   .     S
C1277  C1281   1.398   .     A
C1277  C1283   1.399   .     A
C1278  C1282   1.398   .     A
C1278  C1284   1.400   .     A
C1279  C1281   1.392   .     A
C1279  C1287   1.404   .     A
C1279  H1299   1.083   .     S
C1280  C1282   1.391   .     A
C1280  C1288   1.404   .     A
C1281  H1150   1.081   1_655 S
C1283  H1296   1.075   .     S
C1283  C1285   1.406   .     A
C1284  H1295   1.075   .     S
C1284  C1286   1.406   .     A
C1285  C1287   1.418   .     A
C1285  C1289   1.428   .     A
C1286  C1290   1.428   .     A
C1286  C1288   1.418   .     A
C1287  C597    1.390   1_556 S
C1289  C624    1.425   1_556 S
Cu1291 O1310   1.954   .     S
Cu1291 O1311   1.954   .     S
Cu1291 N1305   2.022   .     S
Cu1291 O1314   1.938   .     S
Cu1291 O1307   1.955   .     S
Cu1292 O1309   1.954   .     S
Cu1292 O1313   1.938   .     S
Cu1292 O1308   1.955   .     S
Cu1292 O1312   1.954   .     S
Cu1292 N1306   2.022   .     S
Cu1292 Cu1143  2.690   1_655 S
H1297  C1134   1.082   1_655 S
H1300  C1132   1.083   1_655 S
O1308  C1112   1.292   1_655 S
O1312  C1128   1.302   1_655 S
C1315  H1320   1.106   .     S
C1315  H1321   1.110   .     S
C1315  C1316   1.525   .     S
C1316  H1319   1.110   .     S
C1316  H1317   1.110   .     S
C1316  H1170   1.109   1_655 S
C1322  H1328   1.111   .     S
C1322  H1327   1.109   .     S
C1322  C1323   1.528   .     S
C1323  H1325   1.111   .     S
C1323  H1326   1.109   .     S
C1323  H1324   1.110   .     S
