data_str_m2_o1_o10_pcu_sym.219
_audit_creation_date              2020-01-03
_audit_creation_method            'Materials Studio'
_symmetry_space_group_name_H-M    'P1'
_symmetry_Int_Tables_number       1
_symmetry_cell_setting            triclinic
loop_
_symmetry_equiv_pos_as_xyz
  x,y,z
_cell_length_a                    26.1806
_cell_length_b                    32.4879
_cell_length_c                    28.7589
_cell_angle_alpha                 89.4903
_cell_angle_beta                  97.3572
_cell_angle_gamma                 91.6503
loop_
_atom_site_label
_atom_site_type_symbol
_atom_site_fract_x
_atom_site_fract_y
_atom_site_fract_z
_atom_site_U_iso_or_equiv
_atom_site_adp_type
_atom_site_occupancy
C1     C     0.16659   0.08742   0.16676   0.00000  Uiso   1.00
C2     C     0.16674   0.24591   0.16657   0.00000  Uiso   1.00
C3     C     0.06805   0.16658   0.15473   0.00000  Uiso   1.00
C4     C     0.26528   0.16676   0.17860   0.00000  Uiso   1.00
C5     C     0.01284   0.16644   0.14813   0.00000  Uiso   1.00
C6     C     0.32049   0.16690   0.18520   0.00000  Uiso   1.00
C7     C     0.16823   0.02168   0.12468   0.00000  Uiso   1.00
C8     C     0.16511   0.31165   0.20865   0.00000  Uiso   1.00
C9     C     0.16831   0.31243   0.12456   0.00000  Uiso   1.00
C10    C     0.16502   0.02091   0.20877   0.00000  Uiso   1.00
C11    C     0.16673   0.29056   0.16654   0.00000  Uiso   1.00
C12    C     0.16660   0.04277   0.16679   0.00000  Uiso   1.00
C13    C     0.13116   0.14382   0.02151   0.00000  Uiso   1.00
C14    C     0.20217   0.18951   0.31182   0.00000  Uiso   1.00
C15    C     0.13068   0.14343   0.30537   0.00000  Uiso   1.00
C16    C     0.20265   0.18991   0.02796   0.00000  Uiso   1.00
Cu17   Cu    0.16667   0.16667   0.21355   0.00000  Uiso   1.00
Cu18   Cu    0.16667   0.16666   0.11978   0.00000  Uiso   1.00
H19    H     0.32657   0.16589   0.11245   0.00000  Uiso   1.00
H20    H     0.00676   0.16744   0.22089   0.00000  Uiso   1.00
H21    H     0.16950   0.03799   0.09182   0.00000  Uiso   1.00
H22    H     0.16384   0.29535   0.24152   0.00000  Uiso   1.00
H23    H     0.16966   0.29674   0.09168   0.00000  Uiso   1.00
H24    H     0.16367   0.03660   0.24165   0.00000  Uiso   1.00
H25    H     0.10339   0.12537   0.03801   0.00000  Uiso   1.00
H26    H     0.22995   0.20797   0.29532   0.00000  Uiso   1.00
N27    N     0.16668   0.16668   0.28403   0.00000  Uiso   1.00
N28    N     0.16665   0.16666   0.04931   0.00000  Uiso   1.00
O29    O     0.16666   0.10655   0.20625   0.00000  Uiso   1.00
O30    O     0.16667   0.22678   0.12709   0.00000  Uiso   1.00
O31    O     0.16666   0.10654   0.12706   0.00000  Uiso   1.00
O32    O     0.16667   0.22679   0.20628   0.00000  Uiso   1.00
O33    O     0.09161   0.16667   0.19712   0.00000  Uiso   1.00
O34    O     0.24172   0.16666   0.13621   0.00000  Uiso   1.00
O35    O     0.09161   0.16666   0.11793   0.00000  Uiso   1.00
O36    O     0.24172   0.16667   0.21540   0.00000  Uiso   1.00
C37    C     0.09059   0.11681   0.27839   0.00000  Uiso   1.00
H38    H     0.09409   0.10628   0.24374   0.00000  Uiso   1.00
O39    O     0.05206   0.10550   0.29538   0.00000  Uiso   1.00
C40    C     0.24274   0.21652   0.05494   0.00000  Uiso   1.00
H41    H     0.23925   0.22706   0.08960   0.00000  Uiso   1.00
O42    O     0.28126   0.22784   0.03795   0.00000  Uiso   1.00
C43    C     0.49992   0.08742   0.16676   0.00000  Uiso   1.00
C44    C     0.50008   0.24591   0.16657   0.00000  Uiso   1.00
C45    C     0.40138   0.16658   0.15473   0.00000  Uiso   1.00
C46    C     0.59862   0.16676   0.17860   0.00000  Uiso   1.00
C47    C     0.34617   0.16644   0.14813   0.00000  Uiso   1.00
C48    C     0.65383   0.16690   0.18520   0.00000  Uiso   1.00
C49    C     0.50156   0.02168   0.12468   0.00000  Uiso   1.00
C50    C     0.49844   0.31165   0.20865   0.00000  Uiso   1.00
C51    C     0.50165   0.31243   0.12456   0.00000  Uiso   1.00
C52    C     0.49835   0.02091   0.20877   0.00000  Uiso   1.00
C53    C     0.50007   0.29056   0.16654   0.00000  Uiso   1.00
C54    C     0.49993   0.04277   0.16679   0.00000  Uiso   1.00
C55    C     0.46449   0.14382   0.02151   0.00000  Uiso   1.00
C56    C     0.53551   0.18951   0.31182   0.00000  Uiso   1.00
C57    C     0.46401   0.14343   0.30537   0.00000  Uiso   1.00
C58    C     0.53599   0.18991   0.02796   0.00000  Uiso   1.00
Cu59   Cu    0.50000   0.16667   0.21355   0.00000  Uiso   1.00
Cu60   Cu    0.50000   0.16666   0.11978   0.00000  Uiso   1.00
H61    H     0.65990   0.16589   0.11245   0.00000  Uiso   1.00
H62    H     0.34010   0.16744   0.22089   0.00000  Uiso   1.00
H63    H     0.50283   0.03799   0.09182   0.00000  Uiso   1.00
H64    H     0.49717   0.29535   0.24152   0.00000  Uiso   1.00
H65    H     0.50300   0.29674   0.09168   0.00000  Uiso   1.00
H66    H     0.49700   0.03660   0.24165   0.00000  Uiso   1.00
H67    H     0.43672   0.12537   0.03801   0.00000  Uiso   1.00
H68    H     0.56328   0.20797   0.29532   0.00000  Uiso   1.00
N69    N     0.50001   0.16668   0.28403   0.00000  Uiso   1.00
N70    N     0.49999   0.16666   0.04931   0.00000  Uiso   1.00
O71    O     0.50000   0.10655   0.20625   0.00000  Uiso   1.00
O72    O     0.50000   0.22678   0.12709   0.00000  Uiso   1.00
O73    O     0.50000   0.10654   0.12706   0.00000  Uiso   1.00
O74    O     0.50000   0.22679   0.20628   0.00000  Uiso   1.00
O75    O     0.42495   0.16667   0.19712   0.00000  Uiso   1.00
O76    O     0.57505   0.16666   0.13621   0.00000  Uiso   1.00
O77    O     0.42494   0.16666   0.11793   0.00000  Uiso   1.00
O78    O     0.57506   0.16667   0.21540   0.00000  Uiso   1.00
C79    C     0.42392   0.11681   0.27839   0.00000  Uiso   1.00
H80    H     0.42742   0.10628   0.24374   0.00000  Uiso   1.00
O81    O     0.38540   0.10550   0.29538   0.00000  Uiso   1.00
C82    C     0.57608   0.21652   0.05494   0.00000  Uiso   1.00
H83    H     0.57258   0.22706   0.08960   0.00000  Uiso   1.00
O84    O     0.61460   0.22784   0.03795   0.00000  Uiso   1.00
C85    C     0.83326   0.08742   0.16676   0.00000  Uiso   1.00
C86    C     0.83341   0.24591   0.16657   0.00000  Uiso   1.00
C87    C     0.73471   0.16658   0.15473   0.00000  Uiso   1.00
C88    C     0.93195   0.16676   0.17860   0.00000  Uiso   1.00
C89    C     0.67951   0.16644   0.14813   0.00000  Uiso   1.00
C90    C     0.98716   0.16690   0.18520   0.00000  Uiso   1.00
C91    C     0.83489   0.02168   0.12468   0.00000  Uiso   1.00
C92    C     0.83177   0.31165   0.20865   0.00000  Uiso   1.00
C93    C     0.83498   0.31243   0.12456   0.00000  Uiso   1.00
C94    C     0.83169   0.02091   0.20877   0.00000  Uiso   1.00
C95    C     0.83340   0.29056   0.16654   0.00000  Uiso   1.00
C96    C     0.83327   0.04277   0.16679   0.00000  Uiso   1.00
C97    C     0.79783   0.14382   0.02151   0.00000  Uiso   1.00
C98    C     0.86884   0.18951   0.31182   0.00000  Uiso   1.00
C99    C     0.79735   0.14343   0.30537   0.00000  Uiso   1.00
C100   C     0.86932   0.18991   0.02796   0.00000  Uiso   1.00
Cu101  Cu    0.83333   0.16667   0.21355   0.00000  Uiso   1.00
Cu102  Cu    0.83333   0.16666   0.11978   0.00000  Uiso   1.00
H103   H     0.99324   0.16589   0.11245   0.00000  Uiso   1.00
H104   H     0.67343   0.16744   0.22089   0.00000  Uiso   1.00
H105   H     0.83616   0.03799   0.09182   0.00000  Uiso   1.00
H106   H     0.83050   0.29535   0.24152   0.00000  Uiso   1.00
H107   H     0.83633   0.29674   0.09168   0.00000  Uiso   1.00
H108   H     0.83034   0.03660   0.24165   0.00000  Uiso   1.00
H109   H     0.77005   0.12537   0.03801   0.00000  Uiso   1.00
H110   H     0.89661   0.20797   0.29532   0.00000  Uiso   1.00
N111   N     0.83335   0.16668   0.28403   0.00000  Uiso   1.00
N112   N     0.83332   0.16666   0.04931   0.00000  Uiso   1.00
O113   O     0.83333   0.10655   0.20625   0.00000  Uiso   1.00
O114   O     0.83334   0.22678   0.12709   0.00000  Uiso   1.00
O115   O     0.83333   0.10654   0.12706   0.00000  Uiso   1.00
O116   O     0.83334   0.22679   0.20628   0.00000  Uiso   1.00
O117   O     0.75828   0.16667   0.19712   0.00000  Uiso   1.00
O118   O     0.90839   0.16666   0.13621   0.00000  Uiso   1.00
O119   O     0.75828   0.16666   0.11793   0.00000  Uiso   1.00
O120   O     0.90839   0.16667   0.21540   0.00000  Uiso   1.00
C121   C     0.75725   0.11681   0.27839   0.00000  Uiso   1.00
H122   H     0.76075   0.10628   0.24374   0.00000  Uiso   1.00
O123   O     0.71873   0.10550   0.29538   0.00000  Uiso   1.00
C124   C     0.90941   0.21652   0.05494   0.00000  Uiso   1.00
H125   H     0.90591   0.22706   0.08960   0.00000  Uiso   1.00
O126   O     0.94793   0.22784   0.03795   0.00000  Uiso   1.00
C127   C     0.16659   0.42076   0.16676   0.00000  Uiso   1.00
C128   C     0.16674   0.57924   0.16657   0.00000  Uiso   1.00
C129   C     0.06805   0.49991   0.15473   0.00000  Uiso   1.00
C130   C     0.26528   0.50009   0.17860   0.00000  Uiso   1.00
C131   C     0.01284   0.49977   0.14813   0.00000  Uiso   1.00
C132   C     0.32049   0.50023   0.18520   0.00000  Uiso   1.00
C133   C     0.16823   0.35501   0.12468   0.00000  Uiso   1.00
C134   C     0.16511   0.64499   0.20865   0.00000  Uiso   1.00
C135   C     0.16831   0.64576   0.12456   0.00000  Uiso   1.00
C136   C     0.16502   0.35424   0.20877   0.00000  Uiso   1.00
C137   C     0.16673   0.62390   0.16654   0.00000  Uiso   1.00
C138   C     0.16660   0.37610   0.16679   0.00000  Uiso   1.00
C139   C     0.13116   0.47716   0.02151   0.00000  Uiso   1.00
C140   C     0.20217   0.52284   0.31182   0.00000  Uiso   1.00
C141   C     0.13068   0.47676   0.30537   0.00000  Uiso   1.00
C142   C     0.20265   0.52324   0.02796   0.00000  Uiso   1.00
Cu143  Cu    0.16667   0.50001   0.21355   0.00000  Uiso   1.00
Cu144  Cu    0.16667   0.49999   0.11978   0.00000  Uiso   1.00
H145   H     0.32657   0.49923   0.11245   0.00000  Uiso   1.00
H146   H     0.00676   0.50077   0.22089   0.00000  Uiso   1.00
H147   H     0.16950   0.37132   0.09182   0.00000  Uiso   1.00
H148   H     0.16384   0.62868   0.24152   0.00000  Uiso   1.00
H149   H     0.16966   0.63007   0.09168   0.00000  Uiso   1.00
H150   H     0.16367   0.36993   0.24165   0.00000  Uiso   1.00
H151   H     0.10339   0.45870   0.03801   0.00000  Uiso   1.00
H152   H     0.22995   0.54130   0.29532   0.00000  Uiso   1.00
N153   N     0.16668   0.50001   0.28403   0.00000  Uiso   1.00
N154   N     0.16665   0.49999   0.04931   0.00000  Uiso   1.00
O155   O     0.16666   0.43989   0.20625   0.00000  Uiso   1.00
O156   O     0.16667   0.56011   0.12709   0.00000  Uiso   1.00
O157   O     0.16666   0.43988   0.12706   0.00000  Uiso   1.00
O158   O     0.16667   0.56012   0.20628   0.00000  Uiso   1.00
O159   O     0.09161   0.50000   0.19712   0.00000  Uiso   1.00
O160   O     0.24172   0.50000   0.13621   0.00000  Uiso   1.00
O161   O     0.09161   0.49999   0.11793   0.00000  Uiso   1.00
O162   O     0.24172   0.50001   0.21540   0.00000  Uiso   1.00
C163   C     0.09059   0.45014   0.27839   0.00000  Uiso   1.00
H164   H     0.09409   0.43961   0.24374   0.00000  Uiso   1.00
O165   O     0.05206   0.43883   0.29538   0.00000  Uiso   1.00
C166   C     0.24274   0.54986   0.05494   0.00000  Uiso   1.00
H167   H     0.23925   0.56039   0.08960   0.00000  Uiso   1.00
O168   O     0.28126   0.56118   0.03795   0.00000  Uiso   1.00
C169   C     0.49992   0.42076   0.16676   0.00000  Uiso   1.00
C170   C     0.50008   0.57924   0.16657   0.00000  Uiso   1.00
C171   C     0.40138   0.49991   0.15473   0.00000  Uiso   1.00
C172   C     0.59862   0.50009   0.17860   0.00000  Uiso   1.00
C173   C     0.34617   0.49977   0.14813   0.00000  Uiso   1.00
C174   C     0.65383   0.50023   0.18520   0.00000  Uiso   1.00
C175   C     0.50156   0.35501   0.12468   0.00000  Uiso   1.00
C176   C     0.49844   0.64499   0.20865   0.00000  Uiso   1.00
C177   C     0.50165   0.64576   0.12456   0.00000  Uiso   1.00
C178   C     0.49835   0.35424   0.20877   0.00000  Uiso   1.00
C179   C     0.50007   0.62390   0.16654   0.00000  Uiso   1.00
C180   C     0.49993   0.37610   0.16679   0.00000  Uiso   1.00
C181   C     0.46449   0.47716   0.02151   0.00000  Uiso   1.00
C182   C     0.53551   0.52284   0.31182   0.00000  Uiso   1.00
C183   C     0.46401   0.47676   0.30537   0.00000  Uiso   1.00
C184   C     0.53599   0.52324   0.02796   0.00000  Uiso   1.00
Cu185  Cu    0.50000   0.50001   0.21355   0.00000  Uiso   1.00
Cu186  Cu    0.50000   0.49999   0.11978   0.00000  Uiso   1.00
H187   H     0.65990   0.49923   0.11245   0.00000  Uiso   1.00
H188   H     0.34010   0.50077   0.22089   0.00000  Uiso   1.00
H189   H     0.50283   0.37132   0.09182   0.00000  Uiso   1.00
H190   H     0.49717   0.62868   0.24152   0.00000  Uiso   1.00
H191   H     0.50300   0.63007   0.09168   0.00000  Uiso   1.00
H192   H     0.49700   0.36993   0.24165   0.00000  Uiso   1.00
H193   H     0.43672   0.45870   0.03801   0.00000  Uiso   1.00
H194   H     0.56328   0.54130   0.29532   0.00000  Uiso   1.00
N195   N     0.50001   0.50001   0.28403   0.00000  Uiso   1.00
N196   N     0.49999   0.49999   0.04931   0.00000  Uiso   1.00
O197   O     0.50000   0.43989   0.20625   0.00000  Uiso   1.00
O198   O     0.50000   0.56011   0.12709   0.00000  Uiso   1.00
O199   O     0.50000   0.43988   0.12706   0.00000  Uiso   1.00
O200   O     0.50000   0.56012   0.20628   0.00000  Uiso   1.00
O201   O     0.42495   0.50000   0.19712   0.00000  Uiso   1.00
O202   O     0.57505   0.50000   0.13621   0.00000  Uiso   1.00
O203   O     0.42494   0.49999   0.11793   0.00000  Uiso   1.00
O204   O     0.57506   0.50001   0.21540   0.00000  Uiso   1.00
C205   C     0.42392   0.45014   0.27839   0.00000  Uiso   1.00
H206   H     0.42742   0.43961   0.24374   0.00000  Uiso   1.00
O207   O     0.38540   0.43883   0.29538   0.00000  Uiso   1.00
C208   C     0.57608   0.54986   0.05494   0.00000  Uiso   1.00
H209   H     0.57258   0.56039   0.08960   0.00000  Uiso   1.00
O210   O     0.61460   0.56118   0.03795   0.00000  Uiso   1.00
C211   C     0.83326   0.42076   0.16676   0.00000  Uiso   1.00
C212   C     0.83341   0.57924   0.16657   0.00000  Uiso   1.00
C213   C     0.73471   0.49991   0.15473   0.00000  Uiso   1.00
C214   C     0.93195   0.50009   0.17860   0.00000  Uiso   1.00
C215   C     0.67951   0.49977   0.14813   0.00000  Uiso   1.00
C216   C     0.98716   0.50023   0.18520   0.00000  Uiso   1.00
C217   C     0.83489   0.35501   0.12468   0.00000  Uiso   1.00
C218   C     0.83177   0.64499   0.20865   0.00000  Uiso   1.00
C219   C     0.83498   0.64576   0.12456   0.00000  Uiso   1.00
C220   C     0.83169   0.35424   0.20877   0.00000  Uiso   1.00
C221   C     0.83340   0.62390   0.16654   0.00000  Uiso   1.00
C222   C     0.83327   0.37610   0.16679   0.00000  Uiso   1.00
C223   C     0.79783   0.47716   0.02151   0.00000  Uiso   1.00
C224   C     0.86884   0.52284   0.31182   0.00000  Uiso   1.00
C225   C     0.79735   0.47676   0.30537   0.00000  Uiso   1.00
C226   C     0.86932   0.52324   0.02796   0.00000  Uiso   1.00
Cu227  Cu    0.83333   0.50001   0.21355   0.00000  Uiso   1.00
Cu228  Cu    0.83333   0.49999   0.11978   0.00000  Uiso   1.00
H229   H     0.99324   0.49923   0.11245   0.00000  Uiso   1.00
H230   H     0.67343   0.50077   0.22089   0.00000  Uiso   1.00
H231   H     0.83616   0.37132   0.09182   0.00000  Uiso   1.00
H232   H     0.83050   0.62868   0.24152   0.00000  Uiso   1.00
H233   H     0.83633   0.63007   0.09168   0.00000  Uiso   1.00
H234   H     0.83034   0.36993   0.24165   0.00000  Uiso   1.00
H235   H     0.77005   0.45870   0.03801   0.00000  Uiso   1.00
H236   H     0.89661   0.54130   0.29532   0.00000  Uiso   1.00
N237   N     0.83335   0.50001   0.28403   0.00000  Uiso   1.00
N238   N     0.83332   0.49999   0.04931   0.00000  Uiso   1.00
O239   O     0.83333   0.43989   0.20625   0.00000  Uiso   1.00
O240   O     0.83334   0.56011   0.12709   0.00000  Uiso   1.00
O241   O     0.83333   0.43988   0.12706   0.00000  Uiso   1.00
O242   O     0.83334   0.56012   0.20628   0.00000  Uiso   1.00
O243   O     0.75828   0.50000   0.19712   0.00000  Uiso   1.00
O244   O     0.90839   0.50000   0.13621   0.00000  Uiso   1.00
O245   O     0.75828   0.49999   0.11793   0.00000  Uiso   1.00
O246   O     0.90839   0.50001   0.21540   0.00000  Uiso   1.00
C247   C     0.75725   0.45014   0.27839   0.00000  Uiso   1.00
H248   H     0.76075   0.43961   0.24374   0.00000  Uiso   1.00
O249   O     0.71873   0.43883   0.29538   0.00000  Uiso   1.00
C250   C     0.90941   0.54986   0.05494   0.00000  Uiso   1.00
H251   H     0.90591   0.56039   0.08960   0.00000  Uiso   1.00
O252   O     0.94793   0.56118   0.03795   0.00000  Uiso   1.00
C253   C     0.16659   0.75409   0.16676   0.00000  Uiso   1.00
C254   C     0.16674   0.91258   0.16657   0.00000  Uiso   1.00
C255   C     0.06805   0.83324   0.15473   0.00000  Uiso   1.00
C256   C     0.26528   0.83342   0.17860   0.00000  Uiso   1.00
C257   C     0.01284   0.83310   0.14813   0.00000  Uiso   1.00
C258   C     0.32049   0.83357   0.18520   0.00000  Uiso   1.00
C259   C     0.16823   0.68835   0.12468   0.00000  Uiso   1.00
C260   C     0.16511   0.97832   0.20865   0.00000  Uiso   1.00
C261   C     0.16831   0.97910   0.12456   0.00000  Uiso   1.00
C262   C     0.16502   0.68757   0.20877   0.00000  Uiso   1.00
C263   C     0.16673   0.95723   0.16654   0.00000  Uiso   1.00
C264   C     0.16660   0.70944   0.16679   0.00000  Uiso   1.00
C265   C     0.13116   0.81049   0.02151   0.00000  Uiso   1.00
C266   C     0.20217   0.85618   0.31182   0.00000  Uiso   1.00
C267   C     0.13068   0.81009   0.30537   0.00000  Uiso   1.00
C268   C     0.20265   0.85657   0.02796   0.00000  Uiso   1.00
Cu269  Cu    0.16667   0.83334   0.21355   0.00000  Uiso   1.00
Cu270  Cu    0.16667   0.83333   0.11978   0.00000  Uiso   1.00
H271   H     0.32657   0.83256   0.11245   0.00000  Uiso   1.00
H272   H     0.00676   0.83411   0.22089   0.00000  Uiso   1.00
H273   H     0.16950   0.70465   0.09182   0.00000  Uiso   1.00
H274   H     0.16384   0.96201   0.24152   0.00000  Uiso   1.00
H275   H     0.16966   0.96340   0.09168   0.00000  Uiso   1.00
H276   H     0.16367   0.70327   0.24165   0.00000  Uiso   1.00
H277   H     0.10339   0.79203   0.03801   0.00000  Uiso   1.00
H278   H     0.22995   0.87463   0.29532   0.00000  Uiso   1.00
N279   N     0.16668   0.83334   0.28403   0.00000  Uiso   1.00
N280   N     0.16665   0.83332   0.04931   0.00000  Uiso   1.00
O281   O     0.16666   0.77322   0.20625   0.00000  Uiso   1.00
O282   O     0.16667   0.89345   0.12709   0.00000  Uiso   1.00
O283   O     0.16666   0.77321   0.12706   0.00000  Uiso   1.00
O284   O     0.16667   0.89346   0.20628   0.00000  Uiso   1.00
O285   O     0.09161   0.83334   0.19712   0.00000  Uiso   1.00
O286   O     0.24172   0.83333   0.13621   0.00000  Uiso   1.00
O287   O     0.09161   0.83333   0.11793   0.00000  Uiso   1.00
O288   O     0.24172   0.83334   0.21540   0.00000  Uiso   1.00
C289   C     0.09059   0.78348   0.27839   0.00000  Uiso   1.00
H290   H     0.09409   0.77294   0.24374   0.00000  Uiso   1.00
O291   O     0.05206   0.77216   0.29538   0.00000  Uiso   1.00
C292   C     0.24274   0.88319   0.05494   0.00000  Uiso   1.00
H293   H     0.23925   0.89372   0.08960   0.00000  Uiso   1.00
O294   O     0.28126   0.89451   0.03795   0.00000  Uiso   1.00
C295   C     0.49992   0.75409   0.16676   0.00000  Uiso   1.00
C296   C     0.50008   0.91258   0.16657   0.00000  Uiso   1.00
C297   C     0.40138   0.83324   0.15473   0.00000  Uiso   1.00
C298   C     0.59862   0.83342   0.17860   0.00000  Uiso   1.00
C299   C     0.34617   0.83310   0.14813   0.00000  Uiso   1.00
C300   C     0.65383   0.83357   0.18520   0.00000  Uiso   1.00
C301   C     0.50156   0.68835   0.12468   0.00000  Uiso   1.00
C302   C     0.49844   0.97832   0.20865   0.00000  Uiso   1.00
C303   C     0.50165   0.97910   0.12456   0.00000  Uiso   1.00
C304   C     0.49835   0.68757   0.20877   0.00000  Uiso   1.00
C305   C     0.50007   0.95723   0.16654   0.00000  Uiso   1.00
C306   C     0.49993   0.70944   0.16679   0.00000  Uiso   1.00
C307   C     0.46449   0.81049   0.02151   0.00000  Uiso   1.00
C308   C     0.53551   0.85618   0.31182   0.00000  Uiso   1.00
C309   C     0.46401   0.81009   0.30537   0.00000  Uiso   1.00
C310   C     0.53599   0.85657   0.02796   0.00000  Uiso   1.00
Cu311  Cu    0.50000   0.83334   0.21355   0.00000  Uiso   1.00
Cu312  Cu    0.50000   0.83333   0.11978   0.00000  Uiso   1.00
H313   H     0.65990   0.83256   0.11245   0.00000  Uiso   1.00
H314   H     0.34010   0.83411   0.22089   0.00000  Uiso   1.00
H315   H     0.50283   0.70465   0.09182   0.00000  Uiso   1.00
H316   H     0.49717   0.96201   0.24152   0.00000  Uiso   1.00
H317   H     0.50300   0.96340   0.09168   0.00000  Uiso   1.00
H318   H     0.49700   0.70327   0.24165   0.00000  Uiso   1.00
H319   H     0.43672   0.79203   0.03801   0.00000  Uiso   1.00
H320   H     0.56328   0.87463   0.29532   0.00000  Uiso   1.00
N321   N     0.50001   0.83334   0.28403   0.00000  Uiso   1.00
N322   N     0.49999   0.83332   0.04931   0.00000  Uiso   1.00
O323   O     0.50000   0.77322   0.20625   0.00000  Uiso   1.00
O324   O     0.50000   0.89345   0.12709   0.00000  Uiso   1.00
O325   O     0.50000   0.77321   0.12706   0.00000  Uiso   1.00
O326   O     0.50000   0.89346   0.20628   0.00000  Uiso   1.00
O327   O     0.42495   0.83334   0.19712   0.00000  Uiso   1.00
O328   O     0.57505   0.83333   0.13621   0.00000  Uiso   1.00
O329   O     0.42494   0.83333   0.11793   0.00000  Uiso   1.00
O330   O     0.57506   0.83334   0.21540   0.00000  Uiso   1.00
C331   C     0.42392   0.78348   0.27839   0.00000  Uiso   1.00
H332   H     0.42742   0.77294   0.24374   0.00000  Uiso   1.00
O333   O     0.38540   0.77216   0.29538   0.00000  Uiso   1.00
C334   C     0.57608   0.88319   0.05494   0.00000  Uiso   1.00
H335   H     0.57258   0.89372   0.08960   0.00000  Uiso   1.00
O336   O     0.61460   0.89451   0.03795   0.00000  Uiso   1.00
C337   C     0.83326   0.75409   0.16676   0.00000  Uiso   1.00
C338   C     0.83341   0.91258   0.16657   0.00000  Uiso   1.00
C339   C     0.73471   0.83324   0.15473   0.00000  Uiso   1.00
C340   C     0.93195   0.83342   0.17860   0.00000  Uiso   1.00
C341   C     0.67951   0.83310   0.14813   0.00000  Uiso   1.00
C342   C     0.98716   0.83357   0.18520   0.00000  Uiso   1.00
C343   C     0.83489   0.68835   0.12468   0.00000  Uiso   1.00
C344   C     0.83177   0.97832   0.20865   0.00000  Uiso   1.00
C345   C     0.83498   0.97910   0.12456   0.00000  Uiso   1.00
C346   C     0.83169   0.68757   0.20877   0.00000  Uiso   1.00
C347   C     0.83340   0.95723   0.16654   0.00000  Uiso   1.00
C348   C     0.83327   0.70944   0.16679   0.00000  Uiso   1.00
C349   C     0.79783   0.81049   0.02151   0.00000  Uiso   1.00
C350   C     0.86884   0.85618   0.31182   0.00000  Uiso   1.00
C351   C     0.79735   0.81009   0.30537   0.00000  Uiso   1.00
C352   C     0.86932   0.85657   0.02796   0.00000  Uiso   1.00
Cu353  Cu    0.83333   0.83334   0.21355   0.00000  Uiso   1.00
Cu354  Cu    0.83333   0.83333   0.11978   0.00000  Uiso   1.00
H355   H     0.99324   0.83256   0.11245   0.00000  Uiso   1.00
H356   H     0.67343   0.83411   0.22089   0.00000  Uiso   1.00
H357   H     0.83616   0.70465   0.09182   0.00000  Uiso   1.00
H358   H     0.83050   0.96201   0.24152   0.00000  Uiso   1.00
H359   H     0.83633   0.96340   0.09168   0.00000  Uiso   1.00
H360   H     0.83034   0.70327   0.24165   0.00000  Uiso   1.00
H361   H     0.77005   0.79203   0.03801   0.00000  Uiso   1.00
H362   H     0.89661   0.87463   0.29532   0.00000  Uiso   1.00
N363   N     0.83335   0.83334   0.28403   0.00000  Uiso   1.00
N364   N     0.83332   0.83332   0.04931   0.00000  Uiso   1.00
O365   O     0.83333   0.77322   0.20625   0.00000  Uiso   1.00
O366   O     0.83334   0.89345   0.12709   0.00000  Uiso   1.00
O367   O     0.83333   0.77321   0.12706   0.00000  Uiso   1.00
O368   O     0.83334   0.89346   0.20628   0.00000  Uiso   1.00
O369   O     0.75828   0.83334   0.19712   0.00000  Uiso   1.00
O370   O     0.90839   0.83333   0.13621   0.00000  Uiso   1.00
O371   O     0.75828   0.83333   0.11793   0.00000  Uiso   1.00
O372   O     0.90839   0.83334   0.21540   0.00000  Uiso   1.00
C373   C     0.75725   0.78348   0.27839   0.00000  Uiso   1.00
H374   H     0.76075   0.77294   0.24374   0.00000  Uiso   1.00
O375   O     0.71873   0.77216   0.29538   0.00000  Uiso   1.00
C376   C     0.90941   0.88319   0.05494   0.00000  Uiso   1.00
H377   H     0.90591   0.89372   0.08960   0.00000  Uiso   1.00
O378   O     0.94793   0.89451   0.03795   0.00000  Uiso   1.00
C379   C     0.16659   0.08742   0.50010   0.00000  Uiso   1.00
C380   C     0.16674   0.24591   0.49990   0.00000  Uiso   1.00
C381   C     0.06805   0.16658   0.48806   0.00000  Uiso   1.00
C382   C     0.26528   0.16676   0.51193   0.00000  Uiso   1.00
C383   C     0.01284   0.16644   0.48146   0.00000  Uiso   1.00
C384   C     0.32049   0.16690   0.51854   0.00000  Uiso   1.00
C385   C     0.16823   0.02168   0.45802   0.00000  Uiso   1.00
C386   C     0.16511   0.31165   0.54198   0.00000  Uiso   1.00
C387   C     0.16831   0.31243   0.45790   0.00000  Uiso   1.00
C388   C     0.16502   0.02091   0.54210   0.00000  Uiso   1.00
C389   C     0.16673   0.29056   0.49987   0.00000  Uiso   1.00
C390   C     0.16660   0.04277   0.50013   0.00000  Uiso   1.00
C391   C     0.13116   0.14382   0.35484   0.00000  Uiso   1.00
C392   C     0.20217   0.18951   0.64515   0.00000  Uiso   1.00
C393   C     0.13068   0.14343   0.63870   0.00000  Uiso   1.00
C394   C     0.20265   0.18991   0.36130   0.00000  Uiso   1.00
Cu395  Cu    0.16667   0.16667   0.54689   0.00000  Uiso   1.00
Cu396  Cu    0.16667   0.16666   0.45311   0.00000  Uiso   1.00
H397   H     0.32657   0.16589   0.44578   0.00000  Uiso   1.00
H398   H     0.00676   0.16744   0.55422   0.00000  Uiso   1.00
H399   H     0.16950   0.03799   0.42515   0.00000  Uiso   1.00
H400   H     0.16384   0.29535   0.57485   0.00000  Uiso   1.00
H401   H     0.16966   0.29674   0.42502   0.00000  Uiso   1.00
H402   H     0.16367   0.03660   0.57498   0.00000  Uiso   1.00
H403   H     0.10339   0.12537   0.37135   0.00000  Uiso   1.00
H404   H     0.22995   0.20797   0.62865   0.00000  Uiso   1.00
N405   N     0.16668   0.16668   0.61736   0.00000  Uiso   1.00
N406   N     0.16665   0.16666   0.38264   0.00000  Uiso   1.00
O407   O     0.16666   0.10655   0.53958   0.00000  Uiso   1.00
O408   O     0.16667   0.22678   0.46042   0.00000  Uiso   1.00
O409   O     0.16666   0.10654   0.46039   0.00000  Uiso   1.00
O410   O     0.16667   0.22679   0.53961   0.00000  Uiso   1.00
O411   O     0.09161   0.16667   0.53046   0.00000  Uiso   1.00
O412   O     0.24172   0.16666   0.46954   0.00000  Uiso   1.00
O413   O     0.09161   0.16666   0.45127   0.00000  Uiso   1.00
O414   O     0.24172   0.16667   0.54873   0.00000  Uiso   1.00
C415   C     0.09059   0.11681   0.61172   0.00000  Uiso   1.00
H416   H     0.09409   0.10628   0.57707   0.00000  Uiso   1.00
O417   O     0.05206   0.10550   0.62871   0.00000  Uiso   1.00
C418   C     0.24274   0.21652   0.38828   0.00000  Uiso   1.00
H419   H     0.23925   0.22706   0.42293   0.00000  Uiso   1.00
O420   O     0.28126   0.22784   0.37128   0.00000  Uiso   1.00
C421   C     0.49992   0.08742   0.50010   0.00000  Uiso   1.00
C422   C     0.50008   0.24591   0.49990   0.00000  Uiso   1.00
C423   C     0.40138   0.16658   0.48806   0.00000  Uiso   1.00
C424   C     0.59862   0.16676   0.51193   0.00000  Uiso   1.00
C425   C     0.34617   0.16644   0.48146   0.00000  Uiso   1.00
C426   C     0.65383   0.16690   0.51854   0.00000  Uiso   1.00
C427   C     0.50156   0.02168   0.45802   0.00000  Uiso   1.00
C428   C     0.49844   0.31165   0.54198   0.00000  Uiso   1.00
C429   C     0.50165   0.31243   0.45790   0.00000  Uiso   1.00
C430   C     0.49835   0.02091   0.54210   0.00000  Uiso   1.00
C431   C     0.50007   0.29056   0.49987   0.00000  Uiso   1.00
C432   C     0.49993   0.04277   0.50013   0.00000  Uiso   1.00
C433   C     0.46449   0.14382   0.35484   0.00000  Uiso   1.00
C434   C     0.53551   0.18951   0.64515   0.00000  Uiso   1.00
C435   C     0.46401   0.14343   0.63870   0.00000  Uiso   1.00
C436   C     0.53599   0.18991   0.36130   0.00000  Uiso   1.00
Cu437  Cu    0.50000   0.16667   0.54689   0.00000  Uiso   1.00
Cu438  Cu    0.50000   0.16666   0.45311   0.00000  Uiso   1.00
H439   H     0.65990   0.16589   0.44578   0.00000  Uiso   1.00
H440   H     0.34010   0.16744   0.55422   0.00000  Uiso   1.00
H441   H     0.50283   0.03799   0.42515   0.00000  Uiso   1.00
H442   H     0.49717   0.29535   0.57485   0.00000  Uiso   1.00
H443   H     0.50300   0.29674   0.42502   0.00000  Uiso   1.00
H444   H     0.49700   0.03660   0.57498   0.00000  Uiso   1.00
H445   H     0.43672   0.12537   0.37135   0.00000  Uiso   1.00
H446   H     0.56328   0.20797   0.62865   0.00000  Uiso   1.00
N447   N     0.50001   0.16668   0.61736   0.00000  Uiso   1.00
N448   N     0.49999   0.16666   0.38264   0.00000  Uiso   1.00
O449   O     0.50000   0.10655   0.53958   0.00000  Uiso   1.00
O450   O     0.50000   0.22678   0.46042   0.00000  Uiso   1.00
O451   O     0.50000   0.10654   0.46039   0.00000  Uiso   1.00
O452   O     0.50000   0.22679   0.53961   0.00000  Uiso   1.00
O453   O     0.42495   0.16667   0.53046   0.00000  Uiso   1.00
O454   O     0.57505   0.16666   0.46954   0.00000  Uiso   1.00
O455   O     0.42494   0.16666   0.45127   0.00000  Uiso   1.00
O456   O     0.57506   0.16667   0.54873   0.00000  Uiso   1.00
C457   C     0.42392   0.11681   0.61172   0.00000  Uiso   1.00
H458   H     0.42742   0.10628   0.57707   0.00000  Uiso   1.00
O459   O     0.38540   0.10550   0.62871   0.00000  Uiso   1.00
C460   C     0.57608   0.21652   0.38828   0.00000  Uiso   1.00
H461   H     0.57258   0.22706   0.42293   0.00000  Uiso   1.00
O462   O     0.61460   0.22784   0.37128   0.00000  Uiso   1.00
C463   C     0.83326   0.08742   0.50010   0.00000  Uiso   1.00
C464   C     0.83341   0.24591   0.49990   0.00000  Uiso   1.00
C465   C     0.73471   0.16658   0.48806   0.00000  Uiso   1.00
C466   C     0.93195   0.16676   0.51193   0.00000  Uiso   1.00
C467   C     0.67951   0.16644   0.48146   0.00000  Uiso   1.00
C468   C     0.98716   0.16690   0.51854   0.00000  Uiso   1.00
C469   C     0.83489   0.02168   0.45802   0.00000  Uiso   1.00
C470   C     0.83177   0.31165   0.54198   0.00000  Uiso   1.00
C471   C     0.83498   0.31243   0.45790   0.00000  Uiso   1.00
C472   C     0.83169   0.02091   0.54210   0.00000  Uiso   1.00
C473   C     0.83340   0.29056   0.49987   0.00000  Uiso   1.00
C474   C     0.83327   0.04277   0.50013   0.00000  Uiso   1.00
C475   C     0.79783   0.14382   0.35484   0.00000  Uiso   1.00
C476   C     0.86884   0.18951   0.64515   0.00000  Uiso   1.00
C477   C     0.79735   0.14343   0.63870   0.00000  Uiso   1.00
C478   C     0.86932   0.18991   0.36130   0.00000  Uiso   1.00
Cu479  Cu    0.83333   0.16667   0.54689   0.00000  Uiso   1.00
Cu480  Cu    0.83333   0.16666   0.45311   0.00000  Uiso   1.00
H481   H     0.99324   0.16589   0.44578   0.00000  Uiso   1.00
H482   H     0.67343   0.16744   0.55422   0.00000  Uiso   1.00
H483   H     0.83616   0.03799   0.42515   0.00000  Uiso   1.00
H484   H     0.83050   0.29535   0.57485   0.00000  Uiso   1.00
H485   H     0.83633   0.29674   0.42502   0.00000  Uiso   1.00
H486   H     0.83034   0.03660   0.57498   0.00000  Uiso   1.00
H487   H     0.77005   0.12537   0.37135   0.00000  Uiso   1.00
H488   H     0.89661   0.20797   0.62865   0.00000  Uiso   1.00
N489   N     0.83335   0.16668   0.61736   0.00000  Uiso   1.00
N490   N     0.83332   0.16666   0.38264   0.00000  Uiso   1.00
O491   O     0.83333   0.10655   0.53958   0.00000  Uiso   1.00
O492   O     0.83334   0.22678   0.46042   0.00000  Uiso   1.00
O493   O     0.83333   0.10654   0.46039   0.00000  Uiso   1.00
O494   O     0.83334   0.22679   0.53961   0.00000  Uiso   1.00
O495   O     0.75828   0.16667   0.53046   0.00000  Uiso   1.00
O496   O     0.90839   0.16666   0.46954   0.00000  Uiso   1.00
O497   O     0.75828   0.16666   0.45127   0.00000  Uiso   1.00
O498   O     0.90839   0.16667   0.54873   0.00000  Uiso   1.00
C499   C     0.75725   0.11681   0.61172   0.00000  Uiso   1.00
H500   H     0.76075   0.10628   0.57707   0.00000  Uiso   1.00
O501   O     0.71873   0.10550   0.62871   0.00000  Uiso   1.00
C502   C     0.90941   0.21652   0.38828   0.00000  Uiso   1.00
H503   H     0.90591   0.22706   0.42293   0.00000  Uiso   1.00
O504   O     0.94793   0.22784   0.37128   0.00000  Uiso   1.00
C505   C     0.16659   0.42076   0.50010   0.00000  Uiso   1.00
C506   C     0.16674   0.57924   0.49990   0.00000  Uiso   1.00
C507   C     0.06805   0.49991   0.48806   0.00000  Uiso   1.00
C508   C     0.26528   0.50009   0.51193   0.00000  Uiso   1.00
C509   C     0.01284   0.49977   0.48146   0.00000  Uiso   1.00
C510   C     0.32049   0.50023   0.51854   0.00000  Uiso   1.00
C511   C     0.16823   0.35501   0.45802   0.00000  Uiso   1.00
C512   C     0.16511   0.64499   0.54198   0.00000  Uiso   1.00
C513   C     0.16831   0.64576   0.45790   0.00000  Uiso   1.00
C514   C     0.16502   0.35424   0.54210   0.00000  Uiso   1.00
C515   C     0.16673   0.62390   0.49987   0.00000  Uiso   1.00
C516   C     0.16660   0.37610   0.50013   0.00000  Uiso   1.00
C517   C     0.13116   0.47716   0.35484   0.00000  Uiso   1.00
C518   C     0.20217   0.52284   0.64515   0.00000  Uiso   1.00
C519   C     0.13068   0.47676   0.63870   0.00000  Uiso   1.00
C520   C     0.20265   0.52324   0.36130   0.00000  Uiso   1.00
Cu521  Cu    0.16667   0.50001   0.54689   0.00000  Uiso   1.00
Cu522  Cu    0.16667   0.49999   0.45311   0.00000  Uiso   1.00
H523   H     0.32657   0.49923   0.44578   0.00000  Uiso   1.00
H524   H     0.00676   0.50077   0.55422   0.00000  Uiso   1.00
H525   H     0.16950   0.37132   0.42515   0.00000  Uiso   1.00
H526   H     0.16384   0.62868   0.57485   0.00000  Uiso   1.00
H527   H     0.16966   0.63007   0.42502   0.00000  Uiso   1.00
H528   H     0.16367   0.36993   0.57498   0.00000  Uiso   1.00
H529   H     0.10339   0.45870   0.37135   0.00000  Uiso   1.00
H530   H     0.22995   0.54130   0.62865   0.00000  Uiso   1.00
N531   N     0.16668   0.50001   0.61736   0.00000  Uiso   1.00
N532   N     0.16665   0.49999   0.38264   0.00000  Uiso   1.00
O533   O     0.16666   0.43989   0.53958   0.00000  Uiso   1.00
O534   O     0.16667   0.56011   0.46042   0.00000  Uiso   1.00
O535   O     0.16666   0.43988   0.46039   0.00000  Uiso   1.00
O536   O     0.16667   0.56012   0.53961   0.00000  Uiso   1.00
O537   O     0.09161   0.50000   0.53046   0.00000  Uiso   1.00
O538   O     0.24172   0.50000   0.46954   0.00000  Uiso   1.00
O539   O     0.09161   0.49999   0.45127   0.00000  Uiso   1.00
O540   O     0.24172   0.50001   0.54873   0.00000  Uiso   1.00
C541   C     0.09059   0.45014   0.61172   0.00000  Uiso   1.00
H542   H     0.09409   0.43961   0.57707   0.00000  Uiso   1.00
O543   O     0.05206   0.43883   0.62871   0.00000  Uiso   1.00
C544   C     0.24274   0.54986   0.38828   0.00000  Uiso   1.00
H545   H     0.23925   0.56039   0.42293   0.00000  Uiso   1.00
O546   O     0.28126   0.56118   0.37128   0.00000  Uiso   1.00
C547   C     0.49992   0.42076   0.50010   0.00000  Uiso   1.00
C548   C     0.50008   0.57924   0.49990   0.00000  Uiso   1.00
C549   C     0.40138   0.49991   0.48806   0.00000  Uiso   1.00
C550   C     0.59862   0.50009   0.51193   0.00000  Uiso   1.00
C551   C     0.34617   0.49977   0.48146   0.00000  Uiso   1.00
C552   C     0.65383   0.50023   0.51854   0.00000  Uiso   1.00
C553   C     0.50156   0.35501   0.45802   0.00000  Uiso   1.00
C554   C     0.49844   0.64499   0.54198   0.00000  Uiso   1.00
C555   C     0.50165   0.64576   0.45790   0.00000  Uiso   1.00
C556   C     0.49835   0.35424   0.54210   0.00000  Uiso   1.00
C557   C     0.50007   0.62390   0.49987   0.00000  Uiso   1.00
C558   C     0.49993   0.37610   0.50013   0.00000  Uiso   1.00
C559   C     0.46449   0.47716   0.35484   0.00000  Uiso   1.00
C560   C     0.53551   0.52284   0.64515   0.00000  Uiso   1.00
C561   C     0.46401   0.47676   0.63870   0.00000  Uiso   1.00
C562   C     0.53599   0.52324   0.36130   0.00000  Uiso   1.00
Cu563  Cu    0.50000   0.50001   0.54689   0.00000  Uiso   1.00
Cu564  Cu    0.50000   0.49999   0.45311   0.00000  Uiso   1.00
H565   H     0.65990   0.49923   0.44578   0.00000  Uiso   1.00
H566   H     0.34010   0.50077   0.55422   0.00000  Uiso   1.00
H567   H     0.50283   0.37132   0.42515   0.00000  Uiso   1.00
H568   H     0.49717   0.62868   0.57485   0.00000  Uiso   1.00
H569   H     0.50300   0.63007   0.42502   0.00000  Uiso   1.00
H570   H     0.49700   0.36993   0.57498   0.00000  Uiso   1.00
H571   H     0.43672   0.45870   0.37135   0.00000  Uiso   1.00
H572   H     0.56328   0.54130   0.62865   0.00000  Uiso   1.00
N573   N     0.50001   0.50001   0.61736   0.00000  Uiso   1.00
N574   N     0.49999   0.49999   0.38264   0.00000  Uiso   1.00
O575   O     0.50000   0.43989   0.53958   0.00000  Uiso   1.00
O576   O     0.50000   0.56011   0.46042   0.00000  Uiso   1.00
O577   O     0.50000   0.43988   0.46039   0.00000  Uiso   1.00
O578   O     0.50000   0.56012   0.53961   0.00000  Uiso   1.00
O579   O     0.42495   0.50000   0.53046   0.00000  Uiso   1.00
O580   O     0.57505   0.50000   0.46954   0.00000  Uiso   1.00
O581   O     0.42494   0.49999   0.45127   0.00000  Uiso   1.00
O582   O     0.57506   0.50001   0.54873   0.00000  Uiso   1.00
C583   C     0.42392   0.45014   0.61172   0.00000  Uiso   1.00
H584   H     0.42742   0.43961   0.57707   0.00000  Uiso   1.00
O585   O     0.38540   0.43883   0.62871   0.00000  Uiso   1.00
C586   C     0.57608   0.54986   0.38828   0.00000  Uiso   1.00
H587   H     0.57258   0.56039   0.42293   0.00000  Uiso   1.00
O588   O     0.61460   0.56118   0.37128   0.00000  Uiso   1.00
C589   C     0.83326   0.42076   0.50010   0.00000  Uiso   1.00
C590   C     0.83341   0.57924   0.49990   0.00000  Uiso   1.00
C591   C     0.73471   0.49991   0.48806   0.00000  Uiso   1.00
C592   C     0.93195   0.50009   0.51193   0.00000  Uiso   1.00
C593   C     0.67951   0.49977   0.48146   0.00000  Uiso   1.00
C594   C     0.98716   0.50023   0.51854   0.00000  Uiso   1.00
C595   C     0.83489   0.35501   0.45802   0.00000  Uiso   1.00
C596   C     0.83177   0.64499   0.54198   0.00000  Uiso   1.00
C597   C     0.83498   0.64576   0.45790   0.00000  Uiso   1.00
C598   C     0.83169   0.35424   0.54210   0.00000  Uiso   1.00
C599   C     0.83340   0.62390   0.49987   0.00000  Uiso   1.00
C600   C     0.83327   0.37610   0.50013   0.00000  Uiso   1.00
C601   C     0.79783   0.47716   0.35484   0.00000  Uiso   1.00
C602   C     0.86884   0.52284   0.64515   0.00000  Uiso   1.00
C603   C     0.79735   0.47676   0.63870   0.00000  Uiso   1.00
C604   C     0.86932   0.52324   0.36130   0.00000  Uiso   1.00
Cu605  Cu    0.83333   0.50001   0.54689   0.00000  Uiso   1.00
Cu606  Cu    0.83333   0.49999   0.45311   0.00000  Uiso   1.00
H607   H     0.99324   0.49923   0.44578   0.00000  Uiso   1.00
H608   H     0.67343   0.50077   0.55422   0.00000  Uiso   1.00
H609   H     0.83616   0.37132   0.42515   0.00000  Uiso   1.00
H610   H     0.83050   0.62868   0.57485   0.00000  Uiso   1.00
H611   H     0.83633   0.63007   0.42502   0.00000  Uiso   1.00
H612   H     0.83034   0.36993   0.57498   0.00000  Uiso   1.00
H613   H     0.77005   0.45870   0.37135   0.00000  Uiso   1.00
H614   H     0.89661   0.54130   0.62865   0.00000  Uiso   1.00
N615   N     0.83335   0.50001   0.61736   0.00000  Uiso   1.00
N616   N     0.83332   0.49999   0.38264   0.00000  Uiso   1.00
O617   O     0.83333   0.43989   0.53958   0.00000  Uiso   1.00
O618   O     0.83334   0.56011   0.46042   0.00000  Uiso   1.00
O619   O     0.83333   0.43988   0.46039   0.00000  Uiso   1.00
O620   O     0.83334   0.56012   0.53961   0.00000  Uiso   1.00
O621   O     0.75828   0.50000   0.53046   0.00000  Uiso   1.00
O622   O     0.90839   0.50000   0.46954   0.00000  Uiso   1.00
O623   O     0.75828   0.49999   0.45127   0.00000  Uiso   1.00
O624   O     0.90839   0.50001   0.54873   0.00000  Uiso   1.00
C625   C     0.75725   0.45014   0.61172   0.00000  Uiso   1.00
H626   H     0.76075   0.43961   0.57707   0.00000  Uiso   1.00
O627   O     0.71873   0.43883   0.62871   0.00000  Uiso   1.00
C628   C     0.90941   0.54986   0.38828   0.00000  Uiso   1.00
H629   H     0.90591   0.56039   0.42293   0.00000  Uiso   1.00
O630   O     0.94793   0.56118   0.37128   0.00000  Uiso   1.00
C631   C     0.16659   0.75409   0.50010   0.00000  Uiso   1.00
C632   C     0.16674   0.91258   0.49990   0.00000  Uiso   1.00
C633   C     0.06805   0.83324   0.48806   0.00000  Uiso   1.00
C634   C     0.26528   0.83342   0.51193   0.00000  Uiso   1.00
C635   C     0.01284   0.83310   0.48146   0.00000  Uiso   1.00
C636   C     0.32049   0.83357   0.51854   0.00000  Uiso   1.00
C637   C     0.16823   0.68835   0.45802   0.00000  Uiso   1.00
C638   C     0.16511   0.97832   0.54198   0.00000  Uiso   1.00
C639   C     0.16831   0.97910   0.45790   0.00000  Uiso   1.00
C640   C     0.16502   0.68757   0.54210   0.00000  Uiso   1.00
C641   C     0.16673   0.95723   0.49987   0.00000  Uiso   1.00
C642   C     0.16660   0.70944   0.50013   0.00000  Uiso   1.00
C643   C     0.13116   0.81049   0.35484   0.00000  Uiso   1.00
C644   C     0.20217   0.85618   0.64515   0.00000  Uiso   1.00
C645   C     0.13068   0.81009   0.63870   0.00000  Uiso   1.00
C646   C     0.20265   0.85657   0.36130   0.00000  Uiso   1.00
Cu647  Cu    0.16667   0.83334   0.54689   0.00000  Uiso   1.00
Cu648  Cu    0.16667   0.83333   0.45311   0.00000  Uiso   1.00
H649   H     0.32657   0.83256   0.44578   0.00000  Uiso   1.00
H650   H     0.00676   0.83411   0.55422   0.00000  Uiso   1.00
H651   H     0.16950   0.70465   0.42515   0.00000  Uiso   1.00
H652   H     0.16384   0.96201   0.57485   0.00000  Uiso   1.00
H653   H     0.16966   0.96340   0.42502   0.00000  Uiso   1.00
H654   H     0.16367   0.70327   0.57498   0.00000  Uiso   1.00
H655   H     0.10339   0.79203   0.37135   0.00000  Uiso   1.00
H656   H     0.22995   0.87463   0.62865   0.00000  Uiso   1.00
N657   N     0.16668   0.83334   0.61736   0.00000  Uiso   1.00
N658   N     0.16665   0.83332   0.38264   0.00000  Uiso   1.00
O659   O     0.16666   0.77322   0.53958   0.00000  Uiso   1.00
O660   O     0.16667   0.89345   0.46042   0.00000  Uiso   1.00
O661   O     0.16666   0.77321   0.46039   0.00000  Uiso   1.00
O662   O     0.16667   0.89346   0.53961   0.00000  Uiso   1.00
O663   O     0.09161   0.83334   0.53046   0.00000  Uiso   1.00
O664   O     0.24172   0.83333   0.46954   0.00000  Uiso   1.00
O665   O     0.09161   0.83333   0.45127   0.00000  Uiso   1.00
O666   O     0.24172   0.83334   0.54873   0.00000  Uiso   1.00
C667   C     0.09059   0.78348   0.61172   0.00000  Uiso   1.00
H668   H     0.09409   0.77294   0.57707   0.00000  Uiso   1.00
O669   O     0.05206   0.77216   0.62871   0.00000  Uiso   1.00
C670   C     0.24274   0.88319   0.38828   0.00000  Uiso   1.00
H671   H     0.23925   0.89372   0.42293   0.00000  Uiso   1.00
O672   O     0.28126   0.89451   0.37128   0.00000  Uiso   1.00
C673   C     0.49992   0.75409   0.50010   0.00000  Uiso   1.00
C674   C     0.50008   0.91258   0.49990   0.00000  Uiso   1.00
C675   C     0.40138   0.83324   0.48806   0.00000  Uiso   1.00
C676   C     0.59862   0.83342   0.51193   0.00000  Uiso   1.00
C677   C     0.34617   0.83310   0.48146   0.00000  Uiso   1.00
C678   C     0.65383   0.83357   0.51854   0.00000  Uiso   1.00
C679   C     0.50156   0.68835   0.45802   0.00000  Uiso   1.00
C680   C     0.49844   0.97832   0.54198   0.00000  Uiso   1.00
C681   C     0.50165   0.97910   0.45790   0.00000  Uiso   1.00
C682   C     0.49835   0.68757   0.54210   0.00000  Uiso   1.00
C683   C     0.50007   0.95723   0.49987   0.00000  Uiso   1.00
C684   C     0.49993   0.70944   0.50013   0.00000  Uiso   1.00
C685   C     0.46449   0.81049   0.35484   0.00000  Uiso   1.00
C686   C     0.53551   0.85618   0.64515   0.00000  Uiso   1.00
C687   C     0.46401   0.81009   0.63870   0.00000  Uiso   1.00
C688   C     0.53599   0.85657   0.36130   0.00000  Uiso   1.00
Cu689  Cu    0.50000   0.83334   0.54689   0.00000  Uiso   1.00
Cu690  Cu    0.50000   0.83333   0.45311   0.00000  Uiso   1.00
H691   H     0.65990   0.83256   0.44578   0.00000  Uiso   1.00
H692   H     0.34010   0.83411   0.55422   0.00000  Uiso   1.00
H693   H     0.50283   0.70465   0.42515   0.00000  Uiso   1.00
H694   H     0.49717   0.96201   0.57485   0.00000  Uiso   1.00
H695   H     0.50300   0.96340   0.42502   0.00000  Uiso   1.00
H696   H     0.49700   0.70327   0.57498   0.00000  Uiso   1.00
H697   H     0.43672   0.79203   0.37135   0.00000  Uiso   1.00
H698   H     0.56328   0.87463   0.62865   0.00000  Uiso   1.00
N699   N     0.50001   0.83334   0.61736   0.00000  Uiso   1.00
N700   N     0.49999   0.83332   0.38264   0.00000  Uiso   1.00
O701   O     0.50000   0.77322   0.53958   0.00000  Uiso   1.00
O702   O     0.50000   0.89345   0.46042   0.00000  Uiso   1.00
O703   O     0.50000   0.77321   0.46039   0.00000  Uiso   1.00
O704   O     0.50000   0.89346   0.53961   0.00000  Uiso   1.00
O705   O     0.42495   0.83334   0.53046   0.00000  Uiso   1.00
O706   O     0.57505   0.83333   0.46954   0.00000  Uiso   1.00
O707   O     0.42494   0.83333   0.45127   0.00000  Uiso   1.00
O708   O     0.57506   0.83334   0.54873   0.00000  Uiso   1.00
C709   C     0.42392   0.78348   0.61172   0.00000  Uiso   1.00
H710   H     0.42742   0.77294   0.57707   0.00000  Uiso   1.00
O711   O     0.38540   0.77216   0.62871   0.00000  Uiso   1.00
C712   C     0.57608   0.88319   0.38828   0.00000  Uiso   1.00
H713   H     0.57258   0.89372   0.42293   0.00000  Uiso   1.00
O714   O     0.61460   0.89451   0.37128   0.00000  Uiso   1.00
C715   C     0.83326   0.75409   0.50010   0.00000  Uiso   1.00
C716   C     0.83341   0.91258   0.49990   0.00000  Uiso   1.00
C717   C     0.73471   0.83324   0.48806   0.00000  Uiso   1.00
C718   C     0.93195   0.83342   0.51193   0.00000  Uiso   1.00
C719   C     0.67951   0.83310   0.48146   0.00000  Uiso   1.00
C720   C     0.98716   0.83357   0.51854   0.00000  Uiso   1.00
C721   C     0.83489   0.68835   0.45802   0.00000  Uiso   1.00
C722   C     0.83177   0.97832   0.54198   0.00000  Uiso   1.00
C723   C     0.83498   0.97910   0.45790   0.00000  Uiso   1.00
C724   C     0.83169   0.68757   0.54210   0.00000  Uiso   1.00
C725   C     0.83340   0.95723   0.49987   0.00000  Uiso   1.00
C726   C     0.83327   0.70944   0.50013   0.00000  Uiso   1.00
C727   C     0.79783   0.81049   0.35484   0.00000  Uiso   1.00
C728   C     0.86884   0.85618   0.64515   0.00000  Uiso   1.00
C729   C     0.79735   0.81009   0.63870   0.00000  Uiso   1.00
C730   C     0.86932   0.85657   0.36130   0.00000  Uiso   1.00
Cu731  Cu    0.83333   0.83334   0.54689   0.00000  Uiso   1.00
Cu732  Cu    0.83333   0.83333   0.45311   0.00000  Uiso   1.00
H733   H     0.99324   0.83256   0.44578   0.00000  Uiso   1.00
H734   H     0.67343   0.83411   0.55422   0.00000  Uiso   1.00
H735   H     0.83616   0.70465   0.42515   0.00000  Uiso   1.00
H736   H     0.83050   0.96201   0.57485   0.00000  Uiso   1.00
H737   H     0.83633   0.96340   0.42502   0.00000  Uiso   1.00
H738   H     0.83034   0.70327   0.57498   0.00000  Uiso   1.00
H739   H     0.77005   0.79203   0.37135   0.00000  Uiso   1.00
H740   H     0.89661   0.87463   0.62865   0.00000  Uiso   1.00
N741   N     0.83335   0.83334   0.61736   0.00000  Uiso   1.00
N742   N     0.83332   0.83332   0.38264   0.00000  Uiso   1.00
O743   O     0.83333   0.77322   0.53958   0.00000  Uiso   1.00
O744   O     0.83334   0.89345   0.46042   0.00000  Uiso   1.00
O745   O     0.83333   0.77321   0.46039   0.00000  Uiso   1.00
O746   O     0.83334   0.89346   0.53961   0.00000  Uiso   1.00
O747   O     0.75828   0.83334   0.53046   0.00000  Uiso   1.00
O748   O     0.90839   0.83333   0.46954   0.00000  Uiso   1.00
O749   O     0.75828   0.83333   0.45127   0.00000  Uiso   1.00
O750   O     0.90839   0.83334   0.54873   0.00000  Uiso   1.00
C751   C     0.75725   0.78348   0.61172   0.00000  Uiso   1.00
H752   H     0.76075   0.77294   0.57707   0.00000  Uiso   1.00
O753   O     0.71873   0.77216   0.62871   0.00000  Uiso   1.00
C754   C     0.90941   0.88319   0.38828   0.00000  Uiso   1.00
H755   H     0.90591   0.89372   0.42293   0.00000  Uiso   1.00
O756   O     0.94793   0.89451   0.37128   0.00000  Uiso   1.00
C757   C     0.16659   0.08742   0.83343   0.00000  Uiso   1.00
C758   C     0.16674   0.24591   0.83324   0.00000  Uiso   1.00
C759   C     0.06805   0.16658   0.82140   0.00000  Uiso   1.00
C760   C     0.26528   0.16676   0.84527   0.00000  Uiso   1.00
C761   C     0.01284   0.16644   0.81480   0.00000  Uiso   1.00
C762   C     0.32049   0.16690   0.85187   0.00000  Uiso   1.00
C763   C     0.16823   0.02168   0.79135   0.00000  Uiso   1.00
C764   C     0.16511   0.31165   0.87532   0.00000  Uiso   1.00
C765   C     0.16831   0.31243   0.79123   0.00000  Uiso   1.00
C766   C     0.16502   0.02091   0.87544   0.00000  Uiso   1.00
C767   C     0.16673   0.29056   0.83320   0.00000  Uiso   1.00
C768   C     0.16660   0.04277   0.83346   0.00000  Uiso   1.00
C769   C     0.13116   0.14382   0.68818   0.00000  Uiso   1.00
C770   C     0.20217   0.18951   0.97849   0.00000  Uiso   1.00
C771   C     0.13068   0.14343   0.97204   0.00000  Uiso   1.00
C772   C     0.20265   0.18991   0.69463   0.00000  Uiso   1.00
Cu773  Cu    0.16667   0.16667   0.88022   0.00000  Uiso   1.00
Cu774  Cu    0.16667   0.16666   0.78645   0.00000  Uiso   1.00
H775   H     0.32657   0.16589   0.77911   0.00000  Uiso   1.00
H776   H     0.00676   0.16744   0.88755   0.00000  Uiso   1.00
H777   H     0.16950   0.03799   0.75848   0.00000  Uiso   1.00
H778   H     0.16384   0.29535   0.90818   0.00000  Uiso   1.00
H779   H     0.16966   0.29674   0.75835   0.00000  Uiso   1.00
H780   H     0.16367   0.03660   0.90832   0.00000  Uiso   1.00
H781   H     0.10339   0.12537   0.70468   0.00000  Uiso   1.00
H782   H     0.22995   0.20797   0.96199   0.00000  Uiso   1.00
N783   N     0.16668   0.16668   0.95069   0.00000  Uiso   1.00
N784   N     0.16665   0.16666   0.71597   0.00000  Uiso   1.00
O785   O     0.16666   0.10655   0.87291   0.00000  Uiso   1.00
O786   O     0.16667   0.22678   0.79375   0.00000  Uiso   1.00
O787   O     0.16666   0.10654   0.79372   0.00000  Uiso   1.00
O788   O     0.16667   0.22679   0.87294   0.00000  Uiso   1.00
O789   O     0.09161   0.16667   0.86379   0.00000  Uiso   1.00
O790   O     0.24172   0.16666   0.80288   0.00000  Uiso   1.00
O791   O     0.09161   0.16666   0.78460   0.00000  Uiso   1.00
O792   O     0.24172   0.16667   0.88207   0.00000  Uiso   1.00
C793   C     0.09059   0.11681   0.94506   0.00000  Uiso   1.00
H794   H     0.09409   0.10628   0.91040   0.00000  Uiso   1.00
O795   O     0.05206   0.10550   0.96205   0.00000  Uiso   1.00
C796   C     0.24274   0.21652   0.72161   0.00000  Uiso   1.00
H797   H     0.23925   0.22706   0.75627   0.00000  Uiso   1.00
O798   O     0.28126   0.22784   0.70462   0.00000  Uiso   1.00
C799   C     0.49992   0.08742   0.83343   0.00000  Uiso   1.00
C800   C     0.50008   0.24591   0.83324   0.00000  Uiso   1.00
C801   C     0.40138   0.16658   0.82140   0.00000  Uiso   1.00
C802   C     0.59862   0.16676   0.84527   0.00000  Uiso   1.00
C803   C     0.34617   0.16644   0.81480   0.00000  Uiso   1.00
C804   C     0.65383   0.16690   0.85187   0.00000  Uiso   1.00
C805   C     0.50156   0.02168   0.79135   0.00000  Uiso   1.00
C806   C     0.49844   0.31165   0.87532   0.00000  Uiso   1.00
C807   C     0.50165   0.31243   0.79123   0.00000  Uiso   1.00
C808   C     0.49835   0.02091   0.87544   0.00000  Uiso   1.00
C809   C     0.50007   0.29056   0.83320   0.00000  Uiso   1.00
C810   C     0.49993   0.04277   0.83346   0.00000  Uiso   1.00
C811   C     0.46449   0.14382   0.68818   0.00000  Uiso   1.00
C812   C     0.53551   0.18951   0.97849   0.00000  Uiso   1.00
C813   C     0.46401   0.14343   0.97204   0.00000  Uiso   1.00
C814   C     0.53599   0.18991   0.69463   0.00000  Uiso   1.00
Cu815  Cu    0.50000   0.16667   0.88022   0.00000  Uiso   1.00
Cu816  Cu    0.50000   0.16666   0.78645   0.00000  Uiso   1.00
H817   H     0.65990   0.16589   0.77911   0.00000  Uiso   1.00
H818   H     0.34010   0.16744   0.88755   0.00000  Uiso   1.00
H819   H     0.50283   0.03799   0.75848   0.00000  Uiso   1.00
H820   H     0.49717   0.29535   0.90818   0.00000  Uiso   1.00
H821   H     0.50300   0.29674   0.75835   0.00000  Uiso   1.00
H822   H     0.49700   0.03660   0.90832   0.00000  Uiso   1.00
H823   H     0.43672   0.12537   0.70468   0.00000  Uiso   1.00
H824   H     0.56328   0.20797   0.96199   0.00000  Uiso   1.00
N825   N     0.50001   0.16668   0.95069   0.00000  Uiso   1.00
N826   N     0.49999   0.16666   0.71597   0.00000  Uiso   1.00
O827   O     0.50000   0.10655   0.87291   0.00000  Uiso   1.00
O828   O     0.50000   0.22678   0.79375   0.00000  Uiso   1.00
O829   O     0.50000   0.10654   0.79372   0.00000  Uiso   1.00
O830   O     0.50000   0.22679   0.87294   0.00000  Uiso   1.00
O831   O     0.42495   0.16667   0.86379   0.00000  Uiso   1.00
O832   O     0.57505   0.16666   0.80288   0.00000  Uiso   1.00
O833   O     0.42494   0.16666   0.78460   0.00000  Uiso   1.00
O834   O     0.57506   0.16667   0.88207   0.00000  Uiso   1.00
C835   C     0.42392   0.11681   0.94506   0.00000  Uiso   1.00
H836   H     0.42742   0.10628   0.91040   0.00000  Uiso   1.00
O837   O     0.38540   0.10550   0.96205   0.00000  Uiso   1.00
C838   C     0.57608   0.21652   0.72161   0.00000  Uiso   1.00
H839   H     0.57258   0.22706   0.75627   0.00000  Uiso   1.00
O840   O     0.61460   0.22784   0.70462   0.00000  Uiso   1.00
C841   C     0.83326   0.08742   0.83343   0.00000  Uiso   1.00
C842   C     0.83341   0.24591   0.83324   0.00000  Uiso   1.00
C843   C     0.73471   0.16658   0.82140   0.00000  Uiso   1.00
C844   C     0.93195   0.16676   0.84527   0.00000  Uiso   1.00
C845   C     0.67951   0.16644   0.81480   0.00000  Uiso   1.00
C846   C     0.98716   0.16690   0.85187   0.00000  Uiso   1.00
C847   C     0.83489   0.02168   0.79135   0.00000  Uiso   1.00
C848   C     0.83177   0.31165   0.87532   0.00000  Uiso   1.00
C849   C     0.83498   0.31243   0.79123   0.00000  Uiso   1.00
C850   C     0.83169   0.02091   0.87544   0.00000  Uiso   1.00
C851   C     0.83340   0.29056   0.83320   0.00000  Uiso   1.00
C852   C     0.83327   0.04277   0.83346   0.00000  Uiso   1.00
C853   C     0.79783   0.14382   0.68818   0.00000  Uiso   1.00
C854   C     0.86884   0.18951   0.97849   0.00000  Uiso   1.00
C855   C     0.79735   0.14343   0.97204   0.00000  Uiso   1.00
C856   C     0.86932   0.18991   0.69463   0.00000  Uiso   1.00
Cu857  Cu    0.83333   0.16667   0.88022   0.00000  Uiso   1.00
Cu858  Cu    0.83333   0.16666   0.78645   0.00000  Uiso   1.00
H859   H     0.99324   0.16589   0.77911   0.00000  Uiso   1.00
H860   H     0.67343   0.16744   0.88755   0.00000  Uiso   1.00
H861   H     0.83616   0.03799   0.75848   0.00000  Uiso   1.00
H862   H     0.83050   0.29535   0.90818   0.00000  Uiso   1.00
H863   H     0.83633   0.29674   0.75835   0.00000  Uiso   1.00
H864   H     0.83034   0.03660   0.90832   0.00000  Uiso   1.00
H865   H     0.77005   0.12537   0.70468   0.00000  Uiso   1.00
H866   H     0.89661   0.20797   0.96199   0.00000  Uiso   1.00
N867   N     0.83335   0.16668   0.95069   0.00000  Uiso   1.00
N868   N     0.83332   0.16666   0.71597   0.00000  Uiso   1.00
O869   O     0.83333   0.10655   0.87291   0.00000  Uiso   1.00
O870   O     0.83334   0.22678   0.79375   0.00000  Uiso   1.00
O871   O     0.83333   0.10654   0.79372   0.00000  Uiso   1.00
O872   O     0.83334   0.22679   0.87294   0.00000  Uiso   1.00
O873   O     0.75828   0.16667   0.86379   0.00000  Uiso   1.00
O874   O     0.90839   0.16666   0.80288   0.00000  Uiso   1.00
O875   O     0.75828   0.16666   0.78460   0.00000  Uiso   1.00
O876   O     0.90839   0.16667   0.88207   0.00000  Uiso   1.00
C877   C     0.75725   0.11681   0.94506   0.00000  Uiso   1.00
H878   H     0.76075   0.10628   0.91040   0.00000  Uiso   1.00
O879   O     0.71873   0.10550   0.96205   0.00000  Uiso   1.00
C880   C     0.90941   0.21652   0.72161   0.00000  Uiso   1.00
H881   H     0.90591   0.22706   0.75627   0.00000  Uiso   1.00
O882   O     0.94793   0.22784   0.70462   0.00000  Uiso   1.00
C883   C     0.16659   0.42076   0.83343   0.00000  Uiso   1.00
C884   C     0.16674   0.57924   0.83324   0.00000  Uiso   1.00
C885   C     0.06805   0.49991   0.82140   0.00000  Uiso   1.00
C886   C     0.26528   0.50009   0.84527   0.00000  Uiso   1.00
C887   C     0.01284   0.49977   0.81480   0.00000  Uiso   1.00
C888   C     0.32049   0.50023   0.85187   0.00000  Uiso   1.00
C889   C     0.16823   0.35501   0.79135   0.00000  Uiso   1.00
C890   C     0.16511   0.64499   0.87532   0.00000  Uiso   1.00
C891   C     0.16831   0.64576   0.79123   0.00000  Uiso   1.00
C892   C     0.16502   0.35424   0.87544   0.00000  Uiso   1.00
C893   C     0.16673   0.62390   0.83320   0.00000  Uiso   1.00
C894   C     0.16660   0.37610   0.83346   0.00000  Uiso   1.00
C895   C     0.13116   0.47716   0.68818   0.00000  Uiso   1.00
C896   C     0.20217   0.52284   0.97849   0.00000  Uiso   1.00
C897   C     0.13068   0.47676   0.97204   0.00000  Uiso   1.00
C898   C     0.20265   0.52324   0.69463   0.00000  Uiso   1.00
Cu899  Cu    0.16667   0.50001   0.88022   0.00000  Uiso   1.00
Cu900  Cu    0.16667   0.49999   0.78645   0.00000  Uiso   1.00
H901   H     0.32657   0.49923   0.77911   0.00000  Uiso   1.00
H902   H     0.00676   0.50077   0.88755   0.00000  Uiso   1.00
H903   H     0.16950   0.37132   0.75848   0.00000  Uiso   1.00
H904   H     0.16384   0.62868   0.90818   0.00000  Uiso   1.00
H905   H     0.16966   0.63007   0.75835   0.00000  Uiso   1.00
H906   H     0.16367   0.36993   0.90832   0.00000  Uiso   1.00
H907   H     0.10339   0.45870   0.70468   0.00000  Uiso   1.00
H908   H     0.22995   0.54130   0.96199   0.00000  Uiso   1.00
N909   N     0.16668   0.50001   0.95069   0.00000  Uiso   1.00
N910   N     0.16665   0.49999   0.71597   0.00000  Uiso   1.00
O911   O     0.16666   0.43989   0.87291   0.00000  Uiso   1.00
O912   O     0.16667   0.56011   0.79375   0.00000  Uiso   1.00
O913   O     0.16666   0.43988   0.79372   0.00000  Uiso   1.00
O914   O     0.16667   0.56012   0.87294   0.00000  Uiso   1.00
O915   O     0.09161   0.50000   0.86379   0.00000  Uiso   1.00
O916   O     0.24172   0.50000   0.80288   0.00000  Uiso   1.00
O917   O     0.09161   0.49999   0.78460   0.00000  Uiso   1.00
O918   O     0.24172   0.50001   0.88207   0.00000  Uiso   1.00
C919   C     0.09059   0.45014   0.94506   0.00000  Uiso   1.00
H920   H     0.09409   0.43961   0.91040   0.00000  Uiso   1.00
O921   O     0.05206   0.43883   0.96205   0.00000  Uiso   1.00
C922   C     0.24274   0.54986   0.72161   0.00000  Uiso   1.00
H923   H     0.23925   0.56039   0.75627   0.00000  Uiso   1.00
O924   O     0.28126   0.56118   0.70462   0.00000  Uiso   1.00
C925   C     0.49992   0.42076   0.83343   0.00000  Uiso   1.00
C926   C     0.50008   0.57924   0.83324   0.00000  Uiso   1.00
C927   C     0.40138   0.49991   0.82140   0.00000  Uiso   1.00
C928   C     0.59862   0.50009   0.84527   0.00000  Uiso   1.00
C929   C     0.34617   0.49977   0.81480   0.00000  Uiso   1.00
C930   C     0.65383   0.50023   0.85187   0.00000  Uiso   1.00
C931   C     0.50156   0.35501   0.79135   0.00000  Uiso   1.00
C932   C     0.49844   0.64499   0.87532   0.00000  Uiso   1.00
C933   C     0.50165   0.64576   0.79123   0.00000  Uiso   1.00
C934   C     0.49835   0.35424   0.87544   0.00000  Uiso   1.00
C935   C     0.50007   0.62390   0.83320   0.00000  Uiso   1.00
C936   C     0.49993   0.37610   0.83346   0.00000  Uiso   1.00
C937   C     0.46449   0.47716   0.68818   0.00000  Uiso   1.00
C938   C     0.53551   0.52284   0.97849   0.00000  Uiso   1.00
C939   C     0.46401   0.47676   0.97204   0.00000  Uiso   1.00
C940   C     0.53599   0.52324   0.69463   0.00000  Uiso   1.00
Cu941  Cu    0.50000   0.50001   0.88022   0.00000  Uiso   1.00
Cu942  Cu    0.50000   0.49999   0.78645   0.00000  Uiso   1.00
H943   H     0.65990   0.49923   0.77911   0.00000  Uiso   1.00
H944   H     0.34010   0.50077   0.88755   0.00000  Uiso   1.00
H945   H     0.50283   0.37132   0.75848   0.00000  Uiso   1.00
H946   H     0.49717   0.62868   0.90818   0.00000  Uiso   1.00
H947   H     0.50300   0.63007   0.75835   0.00000  Uiso   1.00
H948   H     0.49700   0.36993   0.90832   0.00000  Uiso   1.00
H949   H     0.43672   0.45870   0.70468   0.00000  Uiso   1.00
H950   H     0.56328   0.54130   0.96199   0.00000  Uiso   1.00
N951   N     0.50001   0.50001   0.95069   0.00000  Uiso   1.00
N952   N     0.49999   0.49999   0.71597   0.00000  Uiso   1.00
O953   O     0.50000   0.43989   0.87291   0.00000  Uiso   1.00
O954   O     0.50000   0.56011   0.79375   0.00000  Uiso   1.00
O955   O     0.50000   0.43988   0.79372   0.00000  Uiso   1.00
O956   O     0.50000   0.56012   0.87294   0.00000  Uiso   1.00
O957   O     0.42495   0.50000   0.86379   0.00000  Uiso   1.00
O958   O     0.57505   0.50000   0.80288   0.00000  Uiso   1.00
O959   O     0.42494   0.49999   0.78460   0.00000  Uiso   1.00
O960   O     0.57506   0.50001   0.88207   0.00000  Uiso   1.00
C961   C     0.42392   0.45014   0.94506   0.00000  Uiso   1.00
H962   H     0.42742   0.43961   0.91040   0.00000  Uiso   1.00
O963   O     0.38540   0.43883   0.96205   0.00000  Uiso   1.00
C964   C     0.57608   0.54986   0.72161   0.00000  Uiso   1.00
H965   H     0.57258   0.56039   0.75627   0.00000  Uiso   1.00
O966   O     0.61460   0.56118   0.70462   0.00000  Uiso   1.00
C967   C     0.83326   0.42076   0.83343   0.00000  Uiso   1.00
C968   C     0.83341   0.57924   0.83324   0.00000  Uiso   1.00
C969   C     0.73471   0.49991   0.82140   0.00000  Uiso   1.00
C970   C     0.93195   0.50009   0.84527   0.00000  Uiso   1.00
C971   C     0.67951   0.49977   0.81480   0.00000  Uiso   1.00
C972   C     0.98716   0.50023   0.85187   0.00000  Uiso   1.00
C973   C     0.83489   0.35501   0.79135   0.00000  Uiso   1.00
C974   C     0.83177   0.64499   0.87532   0.00000  Uiso   1.00
C975   C     0.83498   0.64576   0.79123   0.00000  Uiso   1.00
C976   C     0.83169   0.35424   0.87544   0.00000  Uiso   1.00
C977   C     0.83340   0.62390   0.83320   0.00000  Uiso   1.00
C978   C     0.83327   0.37610   0.83346   0.00000  Uiso   1.00
C979   C     0.79783   0.47716   0.68818   0.00000  Uiso   1.00
C980   C     0.86884   0.52284   0.97849   0.00000  Uiso   1.00
C981   C     0.79735   0.47676   0.97204   0.00000  Uiso   1.00
C982   C     0.86932   0.52324   0.69463   0.00000  Uiso   1.00
Cu983  Cu    0.83333   0.50001   0.88022   0.00000  Uiso   1.00
Cu984  Cu    0.83333   0.49999   0.78645   0.00000  Uiso   1.00
H985   H     0.99324   0.49923   0.77911   0.00000  Uiso   1.00
H986   H     0.67343   0.50077   0.88755   0.00000  Uiso   1.00
H987   H     0.83616   0.37132   0.75848   0.00000  Uiso   1.00
H988   H     0.83050   0.62868   0.90818   0.00000  Uiso   1.00
H989   H     0.83633   0.63007   0.75835   0.00000  Uiso   1.00
H990   H     0.83034   0.36993   0.90832   0.00000  Uiso   1.00
H991   H     0.77005   0.45870   0.70468   0.00000  Uiso   1.00
H992   H     0.89661   0.54130   0.96199   0.00000  Uiso   1.00
N993   N     0.83335   0.50001   0.95069   0.00000  Uiso   1.00
N994   N     0.83332   0.49999   0.71597   0.00000  Uiso   1.00
O995   O     0.83333   0.43989   0.87291   0.00000  Uiso   1.00
O996   O     0.83334   0.56011   0.79375   0.00000  Uiso   1.00
O997   O     0.83333   0.43988   0.79372   0.00000  Uiso   1.00
O998   O     0.83334   0.56012   0.87294   0.00000  Uiso   1.00
O999   O     0.75828   0.50000   0.86379   0.00000  Uiso   1.00
O1000  O     0.90839   0.50000   0.80288   0.00000  Uiso   1.00
O1001  O     0.75828   0.49999   0.78460   0.00000  Uiso   1.00
O1002  O     0.90839   0.50001   0.88207   0.00000  Uiso   1.00
C1003  C     0.75725   0.45014   0.94506   0.00000  Uiso   1.00
H1004  H     0.76075   0.43961   0.91040   0.00000  Uiso   1.00
O1005  O     0.71873   0.43883   0.96205   0.00000  Uiso   1.00
C1006  C     0.90941   0.54986   0.72161   0.00000  Uiso   1.00
H1007  H     0.90591   0.56039   0.75627   0.00000  Uiso   1.00
O1008  O     0.94793   0.56118   0.70462   0.00000  Uiso   1.00
C1009  C     0.16659   0.75409   0.83343   0.00000  Uiso   1.00
C1010  C     0.16674   0.91258   0.83324   0.00000  Uiso   1.00
C1011  C     0.06805   0.83324   0.82140   0.00000  Uiso   1.00
C1012  C     0.26528   0.83342   0.84527   0.00000  Uiso   1.00
C1013  C     0.01284   0.83310   0.81480   0.00000  Uiso   1.00
C1014  C     0.32049   0.83357   0.85187   0.00000  Uiso   1.00
C1015  C     0.16823   0.68835   0.79135   0.00000  Uiso   1.00
C1016  C     0.16511   0.97832   0.87532   0.00000  Uiso   1.00
C1017  C     0.16831   0.97910   0.79123   0.00000  Uiso   1.00
C1018  C     0.16502   0.68757   0.87544   0.00000  Uiso   1.00
C1019  C     0.16673   0.95723   0.83320   0.00000  Uiso   1.00
C1020  C     0.16660   0.70944   0.83346   0.00000  Uiso   1.00
C1021  C     0.13116   0.81049   0.68818   0.00000  Uiso   1.00
C1022  C     0.20217   0.85618   0.97849   0.00000  Uiso   1.00
C1023  C     0.13068   0.81009   0.97204   0.00000  Uiso   1.00
C1024  C     0.20265   0.85657   0.69463   0.00000  Uiso   1.00
Cu1025 Cu    0.16667   0.83334   0.88022   0.00000  Uiso   1.00
Cu1026 Cu    0.16667   0.83333   0.78645   0.00000  Uiso   1.00
H1027  H     0.32657   0.83256   0.77911   0.00000  Uiso   1.00
H1028  H     0.00676   0.83411   0.88755   0.00000  Uiso   1.00
H1029  H     0.16950   0.70465   0.75848   0.00000  Uiso   1.00
H1030  H     0.16384   0.96201   0.90818   0.00000  Uiso   1.00
H1031  H     0.16966   0.96340   0.75835   0.00000  Uiso   1.00
H1032  H     0.16367   0.70327   0.90832   0.00000  Uiso   1.00
H1033  H     0.10339   0.79203   0.70468   0.00000  Uiso   1.00
H1034  H     0.22995   0.87463   0.96199   0.00000  Uiso   1.00
N1035  N     0.16668   0.83334   0.95069   0.00000  Uiso   1.00
N1036  N     0.16665   0.83332   0.71597   0.00000  Uiso   1.00
O1037  O     0.16666   0.77322   0.87291   0.00000  Uiso   1.00
O1038  O     0.16667   0.89345   0.79375   0.00000  Uiso   1.00
O1039  O     0.16666   0.77321   0.79372   0.00000  Uiso   1.00
O1040  O     0.16667   0.89346   0.87294   0.00000  Uiso   1.00
O1041  O     0.09161   0.83334   0.86379   0.00000  Uiso   1.00
O1042  O     0.24172   0.83333   0.80288   0.00000  Uiso   1.00
O1043  O     0.09161   0.83333   0.78460   0.00000  Uiso   1.00
O1044  O     0.24172   0.83334   0.88207   0.00000  Uiso   1.00
C1045  C     0.09059   0.78348   0.94506   0.00000  Uiso   1.00
H1046  H     0.09409   0.77294   0.91040   0.00000  Uiso   1.00
O1047  O     0.05206   0.77216   0.96205   0.00000  Uiso   1.00
C1048  C     0.24274   0.88319   0.72161   0.00000  Uiso   1.00
H1049  H     0.23925   0.89372   0.75627   0.00000  Uiso   1.00
O1050  O     0.28126   0.89451   0.70462   0.00000  Uiso   1.00
C1051  C     0.49992   0.75409   0.83343   0.00000  Uiso   1.00
C1052  C     0.50008   0.91258   0.83324   0.00000  Uiso   1.00
C1053  C     0.40138   0.83324   0.82140   0.00000  Uiso   1.00
C1054  C     0.59862   0.83342   0.84527   0.00000  Uiso   1.00
C1055  C     0.34617   0.83310   0.81480   0.00000  Uiso   1.00
C1056  C     0.65383   0.83357   0.85187   0.00000  Uiso   1.00
C1057  C     0.50156   0.68835   0.79135   0.00000  Uiso   1.00
C1058  C     0.49844   0.97832   0.87532   0.00000  Uiso   1.00
C1059  C     0.50165   0.97910   0.79123   0.00000  Uiso   1.00
C1060  C     0.49835   0.68757   0.87544   0.00000  Uiso   1.00
C1061  C     0.50007   0.95723   0.83320   0.00000  Uiso   1.00
C1062  C     0.49993   0.70944   0.83346   0.00000  Uiso   1.00
C1063  C     0.46449   0.81049   0.68818   0.00000  Uiso   1.00
C1064  C     0.53551   0.85618   0.97849   0.00000  Uiso   1.00
C1065  C     0.46401   0.81009   0.97204   0.00000  Uiso   1.00
C1066  C     0.53599   0.85657   0.69463   0.00000  Uiso   1.00
Cu1067 Cu    0.50000   0.83334   0.88022   0.00000  Uiso   1.00
Cu1068 Cu    0.50000   0.83333   0.78645   0.00000  Uiso   1.00
H1069  H     0.65990   0.83256   0.77911   0.00000  Uiso   1.00
H1070  H     0.34010   0.83411   0.88755   0.00000  Uiso   1.00
H1071  H     0.50283   0.70465   0.75848   0.00000  Uiso   1.00
H1072  H     0.49717   0.96201   0.90818   0.00000  Uiso   1.00
H1073  H     0.50300   0.96340   0.75835   0.00000  Uiso   1.00
H1074  H     0.49700   0.70327   0.90832   0.00000  Uiso   1.00
H1075  H     0.43672   0.79203   0.70468   0.00000  Uiso   1.00
H1076  H     0.56328   0.87463   0.96199   0.00000  Uiso   1.00
N1077  N     0.50001   0.83334   0.95069   0.00000  Uiso   1.00
N1078  N     0.49999   0.83332   0.71597   0.00000  Uiso   1.00
O1079  O     0.50000   0.77322   0.87291   0.00000  Uiso   1.00
O1080  O     0.50000   0.89345   0.79375   0.00000  Uiso   1.00
O1081  O     0.50000   0.77321   0.79372   0.00000  Uiso   1.00
O1082  O     0.50000   0.89346   0.87294   0.00000  Uiso   1.00
O1083  O     0.42495   0.83334   0.86379   0.00000  Uiso   1.00
O1084  O     0.57505   0.83333   0.80288   0.00000  Uiso   1.00
O1085  O     0.42494   0.83333   0.78460   0.00000  Uiso   1.00
O1086  O     0.57506   0.83334   0.88207   0.00000  Uiso   1.00
C1087  C     0.42392   0.78348   0.94506   0.00000  Uiso   1.00
H1088  H     0.42742   0.77294   0.91040   0.00000  Uiso   1.00
O1089  O     0.38540   0.77216   0.96205   0.00000  Uiso   1.00
C1090  C     0.57608   0.88319   0.72161   0.00000  Uiso   1.00
H1091  H     0.57258   0.89372   0.75627   0.00000  Uiso   1.00
O1092  O     0.61460   0.89451   0.70462   0.00000  Uiso   1.00
C1093  C     0.83326   0.75409   0.83343   0.00000  Uiso   1.00
C1094  C     0.83341   0.91258   0.83324   0.00000  Uiso   1.00
C1095  C     0.73471   0.83324   0.82140   0.00000  Uiso   1.00
C1096  C     0.93195   0.83342   0.84527   0.00000  Uiso   1.00
C1097  C     0.67951   0.83310   0.81480   0.00000  Uiso   1.00
C1098  C     0.98716   0.83357   0.85187   0.00000  Uiso   1.00
C1099  C     0.83489   0.68835   0.79135   0.00000  Uiso   1.00
C1100  C     0.83177   0.97832   0.87532   0.00000  Uiso   1.00
C1101  C     0.83498   0.97910   0.79123   0.00000  Uiso   1.00
C1102  C     0.83169   0.68757   0.87544   0.00000  Uiso   1.00
C1103  C     0.83340   0.95723   0.83320   0.00000  Uiso   1.00
C1104  C     0.83327   0.70944   0.83346   0.00000  Uiso   1.00
C1105  C     0.79783   0.81049   0.68818   0.00000  Uiso   1.00
C1106  C     0.86884   0.85618   0.97849   0.00000  Uiso   1.00
C1107  C     0.79735   0.81009   0.97204   0.00000  Uiso   1.00
C1108  C     0.86932   0.85657   0.69463   0.00000  Uiso   1.00
Cu1109 Cu    0.83333   0.83334   0.88022   0.00000  Uiso   1.00
Cu1110 Cu    0.83333   0.83333   0.78645   0.00000  Uiso   1.00
H1111  H     0.99324   0.83256   0.77911   0.00000  Uiso   1.00
H1112  H     0.67343   0.83411   0.88755   0.00000  Uiso   1.00
H1113  H     0.83616   0.70465   0.75848   0.00000  Uiso   1.00
H1114  H     0.83050   0.96201   0.90818   0.00000  Uiso   1.00
H1115  H     0.83633   0.96340   0.75835   0.00000  Uiso   1.00
H1116  H     0.83034   0.70327   0.90832   0.00000  Uiso   1.00
H1117  H     0.77005   0.79203   0.70468   0.00000  Uiso   1.00
H1118  H     0.89661   0.87463   0.96199   0.00000  Uiso   1.00
N1119  N     0.83335   0.83334   0.95069   0.00000  Uiso   1.00
N1120  N     0.83332   0.83332   0.71597   0.00000  Uiso   1.00
O1121  O     0.83333   0.77322   0.87291   0.00000  Uiso   1.00
O1122  O     0.83334   0.89345   0.79375   0.00000  Uiso   1.00
O1123  O     0.83333   0.77321   0.79372   0.00000  Uiso   1.00
O1124  O     0.83334   0.89346   0.87294   0.00000  Uiso   1.00
O1125  O     0.75828   0.83334   0.86379   0.00000  Uiso   1.00
O1126  O     0.90839   0.83333   0.80288   0.00000  Uiso   1.00
O1127  O     0.75828   0.83333   0.78460   0.00000  Uiso   1.00
O1128  O     0.90839   0.83334   0.88207   0.00000  Uiso   1.00
C1129  C     0.75725   0.78348   0.94506   0.00000  Uiso   1.00
H1130  H     0.76075   0.77294   0.91040   0.00000  Uiso   1.00
O1131  O     0.71873   0.77216   0.96205   0.00000  Uiso   1.00
C1132  C     0.90941   0.88319   0.72161   0.00000  Uiso   1.00
H1133  H     0.90591   0.89372   0.75627   0.00000  Uiso   1.00
O1134  O     0.94793   0.89451   0.70462   0.00000  Uiso   1.00
loop_
_geom_bond_atom_site_label_1
_geom_bond_atom_site_label_2
_geom_bond_distance
_geom_bond_site_symmetry_2
_ccdc_geom_bond_type
C1     O29     1.299   .     A
C1     C12     1.451   .     S
C1     O31     1.295   .     A
C2     O30     1.299   .     A
C2     C11     1.451   .     S
C2     O32     1.295   .     A
C3     O35     1.291   .     A
C3     O33     1.294   .     A
C3     C5      1.433   .     S
C4     O36     1.291   .     A
C4     O34     1.294   .     A
C4     C6      1.433   .     S
C5     C90     1.332   1_455 S
C5     H103    1.087   1_455 S
C6     C47     1.332   .     S
C6     H62     1.087   .     S
C7     C12     1.403   .     A
C7     H21     1.083   .     S
C7     C261    1.384   1_545 S
C8     H22     1.083   .     S
C8     C11     1.403   .     A
C8     C136    1.384   .     S
C9     C11     1.400   .     A
C9     H23     1.083   .     S
C9     C133    1.384   .     S
C10    C12     1.400   .     A
C10    H24     1.083   .     S
C10    C260    1.384   1_545 S
C13    N28     1.354   .     A
C13    H25     1.082   .     S
C13    C771    1.421   1_554 S
C14    N27     1.354   .     A
C14    H26     1.082   .     S
C14    C394    1.421   .     S
C15    N27     1.391   .     A
C15    C37     1.484   .     S
C15    C391    1.421   .     S
C16    N28     1.391   .     A
C16    C40     1.484   .     S
C16    C770    1.421   1_554 S
Cu17   O36     1.959   .     S
Cu17   Cu18    2.697   .     S
Cu17   O33     1.961   .     S
Cu17   N27     2.027   .     S
Cu17   O29     1.966   .     S
Cu17   O32     1.962   .     S
Cu18   O35     1.959   .     S
Cu18   N28     2.027   .     S
Cu18   O30     1.966   .     S
Cu18   O34     1.961   .     S
Cu18   O31     1.962   .     S
H19    C47     1.087   .     S
H20    C90     1.087   1_455 S
C37    H38     1.072   .     S
C37    O39     1.222   .     D
C40    O42     1.222   .     D
C40    H41     1.072   .     S
C43    O71     1.299   .     A
C43    C54     1.451   .     S
C43    O73     1.295   .     A
C44    O72     1.299   .     A
C44    C53     1.451   .     S
C44    O74     1.295   .     A
C45    O77     1.291   .     A
C45    O75     1.294   .     A
C45    C47     1.433   .     S
C46    O78     1.291   .     A
C46    O76     1.294   .     A
C46    C48     1.433   .     S
C48    C89     1.332   .     S
C48    H104    1.087   .     S
C49    C54     1.403   .     A
C49    H63     1.083   .     S
C49    C303    1.384   1_545 S
C50    H64     1.083   .     S
C50    C53     1.403   .     A
C50    C178    1.384   .     S
C51    C53     1.400   .     A
C51    H65     1.083   .     S
C51    C175    1.384   .     S
C52    C54     1.400   .     A
C52    H66     1.083   .     S
C52    C302    1.384   1_545 S
C55    N70     1.354   .     A
C55    H67     1.082   .     S
C55    C813    1.421   1_554 S
C56    N69     1.354   .     A
C56    H68     1.082   .     S
C56    C436    1.421   .     S
C57    N69     1.391   .     A
C57    C79     1.484   .     S
C57    C433    1.421   .     S
C58    N70     1.391   .     A
C58    C82     1.484   .     S
C58    C812    1.421   1_554 S
Cu59   O78     1.959   .     S
Cu59   Cu60    2.697   .     S
Cu59   O75     1.961   .     S
Cu59   N69     2.027   .     S
Cu59   O71     1.966   .     S
Cu59   O74     1.962   .     S
Cu60   O77     1.959   .     S
Cu60   N70     2.027   .     S
Cu60   O72     1.966   .     S
Cu60   O76     1.961   .     S
Cu60   O73     1.962   .     S
H61    C89     1.087   .     S
C79    H80     1.072   .     S
C79    O81     1.222   .     D
C82    O84     1.222   .     D
C82    H83     1.072   .     S
C85    O113    1.299   .     A
C85    C96     1.451   .     S
C85    O115    1.295   .     A
C86    O114    1.299   .     A
C86    C95     1.451   .     S
C86    O116    1.295   .     A
C87    O119    1.291   .     A
C87    O117    1.294   .     A
C87    C89     1.433   .     S
C88    O120    1.291   .     A
C88    O118    1.294   .     A
C88    C90     1.433   .     S
C90    C5      1.332   1_655 S
C90    H20     1.087   1_655 S
C91    C96     1.403   .     A
C91    H105    1.083   .     S
C91    C345    1.384   1_545 S
C92    H106    1.083   .     S
C92    C95     1.403   .     A
C92    C220    1.384   .     S
C93    C95     1.400   .     A
C93    H107    1.083   .     S
C93    C217    1.384   .     S
C94    C96     1.400   .     A
C94    H108    1.083   .     S
C94    C344    1.384   1_545 S
C97    N112    1.354   .     A
C97    H109    1.082   .     S
C97    C855    1.421   1_554 S
C98    N111    1.354   .     A
C98    H110    1.082   .     S
C98    C478    1.421   .     S
C99    N111    1.391   .     A
C99    C121    1.484   .     S
C99    C475    1.421   .     S
C100   N112    1.391   .     A
C100   C124    1.484   .     S
C100   C854    1.421   1_554 S
Cu101  O120    1.959   .     S
Cu101  Cu102   2.697   .     S
Cu101  O117    1.961   .     S
Cu101  N111    2.027   .     S
Cu101  O113    1.966   .     S
Cu101  O116    1.962   .     S
Cu102  O119    1.959   .     S
Cu102  N112    2.027   .     S
Cu102  O114    1.966   .     S
Cu102  O118    1.961   .     S
Cu102  O115    1.962   .     S
H103   C5      1.087   1_655 S
C121   H122    1.072   .     S
C121   O123    1.222   .     D
C124   O126    1.222   .     D
C124   H125    1.072   .     S
C127   O155    1.299   .     A
C127   C138    1.451   .     S
C127   O157    1.295   .     A
C128   O156    1.299   .     A
C128   C137    1.451   .     S
C128   O158    1.295   .     A
C129   O161    1.291   .     A
C129   O159    1.294   .     A
C129   C131    1.433   .     S
C130   O162    1.291   .     A
C130   O160    1.294   .     A
C130   C132    1.433   .     S
C131   C216    1.332   1_455 S
C131   H229    1.087   1_455 S
C132   C173    1.332   .     S
C132   H188    1.087   .     S
C133   C138    1.403   .     A
C133   H147    1.083   .     S
C134   H148    1.083   .     S
C134   C137    1.403   .     A
C134   C262    1.384   .     S
C135   C137    1.400   .     A
C135   H149    1.083   .     S
C135   C259    1.384   .     S
C136   C138    1.400   .     A
C136   H150    1.083   .     S
C139   N154    1.354   .     A
C139   H151    1.082   .     S
C139   C897    1.421   1_554 S
C140   N153    1.354   .     A
C140   H152    1.082   .     S
C140   C520    1.421   .     S
C141   N153    1.391   .     A
C141   C163    1.484   .     S
C141   C517    1.421   .     S
C142   N154    1.391   .     A
C142   C166    1.484   .     S
C142   C896    1.421   1_554 S
Cu143  O162    1.959   .     S
Cu143  Cu144   2.697   .     S
Cu143  O159    1.961   .     S
Cu143  N153    2.027   .     S
Cu143  O155    1.966   .     S
Cu143  O158    1.962   .     S
Cu144  O161    1.959   .     S
Cu144  N154    2.027   .     S
Cu144  O156    1.966   .     S
Cu144  O160    1.961   .     S
Cu144  O157    1.962   .     S
H145   C173    1.087   .     S
H146   C216    1.087   1_455 S
C163   H164    1.072   .     S
C163   O165    1.222   .     D
C166   O168    1.222   .     D
C166   H167    1.072   .     S
C169   O197    1.299   .     A
C169   C180    1.451   .     S
C169   O199    1.295   .     A
C170   O198    1.299   .     A
C170   C179    1.451   .     S
C170   O200    1.295   .     A
C171   O203    1.291   .     A
C171   O201    1.294   .     A
C171   C173    1.433   .     S
C172   O204    1.291   .     A
C172   O202    1.294   .     A
C172   C174    1.433   .     S
C174   C215    1.332   .     S
C174   H230    1.087   .     S
C175   C180    1.403   .     A
C175   H189    1.083   .     S
C176   H190    1.083   .     S
C176   C179    1.403   .     A
C176   C304    1.384   .     S
C177   C179    1.400   .     A
C177   H191    1.083   .     S
C177   C301    1.384   .     S
C178   C180    1.400   .     A
C178   H192    1.083   .     S
C181   N196    1.354   .     A
C181   H193    1.082   .     S
C181   C939    1.421   1_554 S
C182   N195    1.354   .     A
C182   H194    1.082   .     S
C182   C562    1.421   .     S
C183   N195    1.391   .     A
C183   C205    1.484   .     S
C183   C559    1.421   .     S
C184   N196    1.391   .     A
C184   C208    1.484   .     S
C184   C938    1.421   1_554 S
Cu185  O204    1.959   .     S
Cu185  Cu186   2.697   .     S
Cu185  O201    1.961   .     S
Cu185  N195    2.027   .     S
Cu185  O197    1.966   .     S
Cu185  O200    1.962   .     S
Cu186  O203    1.959   .     S
Cu186  N196    2.027   .     S
Cu186  O198    1.966   .     S
Cu186  O202    1.961   .     S
Cu186  O199    1.962   .     S
H187   C215    1.087   .     S
C205   H206    1.072   .     S
C205   O207    1.222   .     D
C208   O210    1.222   .     D
C208   H209    1.072   .     S
C211   O239    1.299   .     A
C211   C222    1.451   .     S
C211   O241    1.295   .     A
C212   O240    1.299   .     A
C212   C221    1.451   .     S
C212   O242    1.295   .     A
C213   O245    1.291   .     A
C213   O243    1.294   .     A
C213   C215    1.433   .     S
C214   O246    1.291   .     A
C214   O244    1.294   .     A
C214   C216    1.433   .     S
C216   C131    1.332   1_655 S
C216   H146    1.087   1_655 S
C217   C222    1.403   .     A
C217   H231    1.083   .     S
C218   H232    1.083   .     S
C218   C221    1.403   .     A
C218   C346    1.384   .     S
C219   C221    1.400   .     A
C219   H233    1.083   .     S
C219   C343    1.384   .     S
C220   C222    1.400   .     A
C220   H234    1.083   .     S
C223   N238    1.354   .     A
C223   H235    1.082   .     S
C223   C981    1.421   1_554 S
C224   N237    1.354   .     A
C224   H236    1.082   .     S
C224   C604    1.421   .     S
C225   N237    1.391   .     A
C225   C247    1.484   .     S
C225   C601    1.421   .     S
C226   N238    1.391   .     A
C226   C250    1.484   .     S
C226   C980    1.421   1_554 S
Cu227  O246    1.959   .     S
Cu227  Cu228   2.697   .     S
Cu227  O243    1.961   .     S
Cu227  N237    2.027   .     S
Cu227  O239    1.966   .     S
Cu227  O242    1.962   .     S
Cu228  O245    1.959   .     S
Cu228  N238    2.027   .     S
Cu228  O240    1.966   .     S
Cu228  O244    1.961   .     S
Cu228  O241    1.962   .     S
H229   C131    1.087   1_655 S
C247   H248    1.072   .     S
C247   O249    1.222   .     D
C250   O252    1.222   .     D
C250   H251    1.072   .     S
C253   O281    1.299   .     A
C253   C264    1.451   .     S
C253   O283    1.295   .     A
C254   O282    1.299   .     A
C254   C263    1.451   .     S
C254   O284    1.295   .     A
C255   O287    1.291   .     A
C255   O285    1.294   .     A
C255   C257    1.433   .     S
C256   O288    1.291   .     A
C256   O286    1.294   .     A
C256   C258    1.433   .     S
C257   C342    1.332   1_455 S
C257   H355    1.087   1_455 S
C258   C299    1.332   .     S
C258   H314    1.087   .     S
C259   C264    1.403   .     A
C259   H273    1.083   .     S
C260   H274    1.083   .     S
C260   C263    1.403   .     A
C260   C10     1.384   1_565 S
C261   C263    1.400   .     A
C261   H275    1.083   .     S
C261   C7      1.384   1_565 S
C262   C264    1.400   .     A
C262   H276    1.083   .     S
C265   N280    1.354   .     A
C265   H277    1.082   .     S
C265   C1023   1.421   1_554 S
C266   N279    1.354   .     A
C266   H278    1.082   .     S
C266   C646    1.421   .     S
C267   N279    1.391   .     A
C267   C289    1.484   .     S
C267   C643    1.421   .     S
C268   N280    1.391   .     A
C268   C292    1.484   .     S
C268   C1022   1.421   1_554 S
Cu269  O288    1.959   .     S
Cu269  Cu270   2.697   .     S
Cu269  O285    1.961   .     S
Cu269  N279    2.027   .     S
Cu269  O281    1.966   .     S
Cu269  O284    1.962   .     S
Cu270  O287    1.959   .     S
Cu270  N280    2.027   .     S
Cu270  O282    1.966   .     S
Cu270  O286    1.961   .     S
Cu270  O283    1.962   .     S
H271   C299    1.087   .     S
H272   C342    1.087   1_455 S
C289   H290    1.072   .     S
C289   O291    1.222   .     D
C292   O294    1.222   .     D
C292   H293    1.072   .     S
C295   O323    1.299   .     A
C295   C306    1.451   .     S
C295   O325    1.295   .     A
C296   O324    1.299   .     A
C296   C305    1.451   .     S
C296   O326    1.295   .     A
C297   O329    1.291   .     A
C297   O327    1.294   .     A
C297   C299    1.433   .     S
C298   O330    1.291   .     A
C298   O328    1.294   .     A
C298   C300    1.433   .     S
C300   C341    1.332   .     S
C300   H356    1.087   .     S
C301   C306    1.403   .     A
C301   H315    1.083   .     S
C302   H316    1.083   .     S
C302   C305    1.403   .     A
C302   C52     1.384   1_565 S
C303   C305    1.400   .     A
C303   H317    1.083   .     S
C303   C49     1.384   1_565 S
C304   C306    1.400   .     A
C304   H318    1.083   .     S
C307   N322    1.354   .     A
C307   H319    1.082   .     S
C307   C1065   1.421   1_554 S
C308   N321    1.354   .     A
C308   H320    1.082   .     S
C308   C688    1.421   .     S
C309   N321    1.391   .     A
C309   C331    1.484   .     S
C309   C685    1.421   .     S
C310   N322    1.391   .     A
C310   C334    1.484   .     S
C310   C1064   1.421   1_554 S
Cu311  O330    1.959   .     S
Cu311  Cu312   2.697   .     S
Cu311  O327    1.961   .     S
Cu311  N321    2.027   .     S
Cu311  O323    1.966   .     S
Cu311  O326    1.962   .     S
Cu312  O329    1.959   .     S
Cu312  N322    2.027   .     S
Cu312  O324    1.966   .     S
Cu312  O328    1.961   .     S
Cu312  O325    1.962   .     S
H313   C341    1.087   .     S
C331   H332    1.072   .     S
C331   O333    1.222   .     D
C334   O336    1.222   .     D
C334   H335    1.072   .     S
C337   O365    1.299   .     A
C337   C348    1.451   .     S
C337   O367    1.295   .     A
C338   O366    1.299   .     A
C338   C347    1.451   .     S
C338   O368    1.295   .     A
C339   O371    1.291   .     A
C339   O369    1.294   .     A
C339   C341    1.433   .     S
C340   O372    1.291   .     A
C340   O370    1.294   .     A
C340   C342    1.433   .     S
C342   C257    1.332   1_655 S
C342   H272    1.087   1_655 S
C343   C348    1.403   .     A
C343   H357    1.083   .     S
C344   H358    1.083   .     S
C344   C347    1.403   .     A
C344   C94     1.384   1_565 S
C345   C347    1.400   .     A
C345   H359    1.083   .     S
C345   C91     1.384   1_565 S
C346   C348    1.400   .     A
C346   H360    1.083   .     S
C349   N364    1.354   .     A
C349   H361    1.082   .     S
C349   C1107   1.421   1_554 S
C350   N363    1.354   .     A
C350   H362    1.082   .     S
C350   C730    1.421   .     S
C351   N363    1.391   .     A
C351   C373    1.484   .     S
C351   C727    1.421   .     S
C352   N364    1.391   .     A
C352   C376    1.484   .     S
C352   C1106   1.421   1_554 S
Cu353  O372    1.959   .     S
Cu353  Cu354   2.697   .     S
Cu353  O369    1.961   .     S
Cu353  N363    2.027   .     S
Cu353  O365    1.966   .     S
Cu353  O368    1.962   .     S
Cu354  O371    1.959   .     S
Cu354  N364    2.027   .     S
Cu354  O366    1.966   .     S
Cu354  O370    1.961   .     S
Cu354  O367    1.962   .     S
H355   C257    1.087   1_655 S
C373   H374    1.072   .     S
C373   O375    1.222   .     D
C376   O378    1.222   .     D
C376   H377    1.072   .     S
C379   O407    1.299   .     A
C379   C390    1.451   .     S
C379   O409    1.295   .     A
C380   O408    1.299   .     A
C380   C389    1.451   .     S
C380   O410    1.295   .     A
C381   O413    1.291   .     A
C381   O411    1.294   .     A
C381   C383    1.433   .     S
C382   O414    1.291   .     A
C382   O412    1.294   .     A
C382   C384    1.433   .     S
C383   C468    1.332   1_455 S
C383   H481    1.087   1_455 S
C384   C425    1.332   .     S
C384   H440    1.087   .     S
C385   C390    1.403   .     A
C385   H399    1.083   .     S
C385   C639    1.384   1_545 S
C386   H400    1.083   .     S
C386   C389    1.403   .     A
C386   C514    1.384   .     S
C387   C389    1.400   .     A
C387   H401    1.083   .     S
C387   C511    1.384   .     S
C388   C390    1.400   .     A
C388   H402    1.083   .     S
C388   C638    1.384   1_545 S
C391   N406    1.354   .     A
C391   H403    1.082   .     S
C392   N405    1.354   .     A
C392   H404    1.082   .     S
C392   C772    1.421   .     S
C393   N405    1.391   .     A
C393   C415    1.484   .     S
C393   C769    1.421   .     S
C394   N406    1.391   .     A
C394   C418    1.484   .     S
Cu395  O414    1.959   .     S
Cu395  Cu396   2.697   .     S
Cu395  O411    1.961   .     S
Cu395  N405    2.027   .     S
Cu395  O407    1.966   .     S
Cu395  O410    1.962   .     S
Cu396  O413    1.959   .     S
Cu396  N406    2.027   .     S
Cu396  O408    1.966   .     S
Cu396  O412    1.961   .     S
Cu396  O409    1.962   .     S
H397   C425    1.087   .     S
H398   C468    1.087   1_455 S
C415   H416    1.072   .     S
C415   O417    1.222   .     D
C418   O420    1.222   .     D
C418   H419    1.072   .     S
C421   O449    1.299   .     A
C421   C432    1.451   .     S
C421   O451    1.295   .     A
C422   O450    1.299   .     A
C422   C431    1.451   .     S
C422   O452    1.295   .     A
C423   O455    1.291   .     A
C423   O453    1.294   .     A
C423   C425    1.433   .     S
C424   O456    1.291   .     A
C424   O454    1.294   .     A
C424   C426    1.433   .     S
C426   C467    1.332   .     S
C426   H482    1.087   .     S
C427   C432    1.403   .     A
C427   H441    1.083   .     S
C427   C681    1.384   1_545 S
C428   H442    1.083   .     S
C428   C431    1.403   .     A
C428   C556    1.384   .     S
C429   C431    1.400   .     A
C429   H443    1.083   .     S
C429   C553    1.384   .     S
C430   C432    1.400   .     A
C430   H444    1.083   .     S
C430   C680    1.384   1_545 S
C433   N448    1.354   .     A
C433   H445    1.082   .     S
C434   N447    1.354   .     A
C434   H446    1.082   .     S
C434   C814    1.421   .     S
C435   N447    1.391   .     A
C435   C457    1.484   .     S
C435   C811    1.421   .     S
C436   N448    1.391   .     A
C436   C460    1.484   .     S
Cu437  O456    1.959   .     S
Cu437  Cu438   2.697   .     S
Cu437  O453    1.961   .     S
Cu437  N447    2.027   .     S
Cu437  O449    1.966   .     S
Cu437  O452    1.962   .     S
Cu438  O455    1.959   .     S
Cu438  N448    2.027   .     S
Cu438  O450    1.966   .     S
Cu438  O454    1.961   .     S
Cu438  O451    1.962   .     S
H439   C467    1.087   .     S
C457   H458    1.072   .     S
C457   O459    1.222   .     D
C460   O462    1.222   .     D
C460   H461    1.072   .     S
C463   O491    1.299   .     A
C463   C474    1.451   .     S
C463   O493    1.295   .     A
C464   O492    1.299   .     A
C464   C473    1.451   .     S
C464   O494    1.295   .     A
C465   O497    1.291   .     A
C465   O495    1.294   .     A
C465   C467    1.433   .     S
C466   O498    1.291   .     A
C466   O496    1.294   .     A
C466   C468    1.433   .     S
C468   C383    1.332   1_655 S
C468   H398    1.087   1_655 S
C469   C474    1.403   .     A
C469   H483    1.083   .     S
C469   C723    1.384   1_545 S
C470   H484    1.083   .     S
C470   C473    1.403   .     A
C470   C598    1.384   .     S
C471   C473    1.400   .     A
C471   H485    1.083   .     S
C471   C595    1.384   .     S
C472   C474    1.400   .     A
C472   H486    1.083   .     S
C472   C722    1.384   1_545 S
C475   N490    1.354   .     A
C475   H487    1.082   .     S
C476   N489    1.354   .     A
C476   H488    1.082   .     S
C476   C856    1.421   .     S
C477   N489    1.391   .     A
C477   C499    1.484   .     S
C477   C853    1.421   .     S
C478   N490    1.391   .     A
C478   C502    1.484   .     S
Cu479  O498    1.959   .     S
Cu479  Cu480   2.697   .     S
Cu479  O495    1.961   .     S
Cu479  N489    2.027   .     S
Cu479  O491    1.966   .     S
Cu479  O494    1.962   .     S
Cu480  O497    1.959   .     S
Cu480  N490    2.027   .     S
Cu480  O492    1.966   .     S
Cu480  O496    1.961   .     S
Cu480  O493    1.962   .     S
H481   C383    1.087   1_655 S
C499   H500    1.072   .     S
C499   O501    1.222   .     D
C502   O504    1.222   .     D
C502   H503    1.072   .     S
C505   O533    1.299   .     A
C505   C516    1.451   .     S
C505   O535    1.295   .     A
C506   O534    1.299   .     A
C506   C515    1.451   .     S
C506   O536    1.295   .     A
C507   O539    1.291   .     A
C507   O537    1.294   .     A
C507   C509    1.433   .     S
C508   O540    1.291   .     A
C508   O538    1.294   .     A
C508   C510    1.433   .     S
C509   C594    1.332   1_455 S
C509   H607    1.087   1_455 S
C510   C551    1.332   .     S
C510   H566    1.087   .     S
C511   C516    1.403   .     A
C511   H525    1.083   .     S
C512   H526    1.083   .     S
C512   C515    1.403   .     A
C512   C640    1.384   .     S
C513   C515    1.400   .     A
C513   H527    1.083   .     S
C513   C637    1.384   .     S
C514   C516    1.400   .     A
C514   H528    1.083   .     S
C517   N532    1.354   .     A
C517   H529    1.082   .     S
C518   N531    1.354   .     A
C518   H530    1.082   .     S
C518   C898    1.421   .     S
C519   N531    1.391   .     A
C519   C541    1.484   .     S
C519   C895    1.421   .     S
C520   N532    1.391   .     A
C520   C544    1.484   .     S
Cu521  O540    1.959   .     S
Cu521  Cu522   2.697   .     S
Cu521  O537    1.961   .     S
Cu521  N531    2.027   .     S
Cu521  O533    1.966   .     S
Cu521  O536    1.962   .     S
Cu522  O539    1.959   .     S
Cu522  N532    2.027   .     S
Cu522  O534    1.966   .     S
Cu522  O538    1.961   .     S
Cu522  O535    1.962   .     S
H523   C551    1.087   .     S
H524   C594    1.087   1_455 S
C541   H542    1.072   .     S
C541   O543    1.222   .     D
C544   O546    1.222   .     D
C544   H545    1.072   .     S
C547   O575    1.299   .     A
C547   C558    1.451   .     S
C547   O577    1.295   .     A
C548   O576    1.299   .     A
C548   C557    1.451   .     S
C548   O578    1.295   .     A
C549   O581    1.291   .     A
C549   O579    1.294   .     A
C549   C551    1.433   .     S
C550   O582    1.291   .     A
C550   O580    1.294   .     A
C550   C552    1.433   .     S
C552   C593    1.332   .     S
C552   H608    1.087   .     S
C553   C558    1.403   .     A
C553   H567    1.083   .     S
C554   H568    1.083   .     S
C554   C557    1.403   .     A
C554   C682    1.384   .     S
C555   C557    1.400   .     A
C555   H569    1.083   .     S
C555   C679    1.384   .     S
C556   C558    1.400   .     A
C556   H570    1.083   .     S
C559   N574    1.354   .     A
C559   H571    1.082   .     S
C560   N573    1.354   .     A
C560   H572    1.082   .     S
C560   C940    1.421   .     S
C561   N573    1.391   .     A
C561   C583    1.484   .     S
C561   C937    1.421   .     S
C562   N574    1.391   .     A
C562   C586    1.484   .     S
Cu563  O582    1.959   .     S
Cu563  Cu564   2.697   .     S
Cu563  O579    1.961   .     S
Cu563  N573    2.027   .     S
Cu563  O575    1.966   .     S
Cu563  O578    1.962   .     S
Cu564  O581    1.959   .     S
Cu564  N574    2.027   .     S
Cu564  O576    1.966   .     S
Cu564  O580    1.961   .     S
Cu564  O577    1.962   .     S
H565   C593    1.087   .     S
C583   H584    1.072   .     S
C583   O585    1.222   .     D
C586   O588    1.222   .     D
C586   H587    1.072   .     S
C589   O617    1.299   .     A
C589   C600    1.451   .     S
C589   O619    1.295   .     A
C590   O618    1.299   .     A
C590   C599    1.451   .     S
C590   O620    1.295   .     A
C591   O623    1.291   .     A
C591   O621    1.294   .     A
C591   C593    1.433   .     S
C592   O624    1.291   .     A
C592   O622    1.294   .     A
C592   C594    1.433   .     S
C594   C509    1.332   1_655 S
C594   H524    1.087   1_655 S
C595   C600    1.403   .     A
C595   H609    1.083   .     S
C596   H610    1.083   .     S
C596   C599    1.403   .     A
C596   C724    1.384   .     S
C597   C599    1.400   .     A
C597   H611    1.083   .     S
C597   C721    1.384   .     S
C598   C600    1.400   .     A
C598   H612    1.083   .     S
C601   N616    1.354   .     A
C601   H613    1.082   .     S
C602   N615    1.354   .     A
C602   H614    1.082   .     S
C602   C982    1.421   .     S
C603   N615    1.391   .     A
C603   C625    1.484   .     S
C603   C979    1.421   .     S
C604   N616    1.391   .     A
C604   C628    1.484   .     S
Cu605  O624    1.959   .     S
Cu605  Cu606   2.697   .     S
Cu605  O621    1.961   .     S
Cu605  N615    2.027   .     S
Cu605  O617    1.966   .     S
Cu605  O620    1.962   .     S
Cu606  O623    1.959   .     S
Cu606  N616    2.027   .     S
Cu606  O618    1.966   .     S
Cu606  O622    1.961   .     S
Cu606  O619    1.962   .     S
H607   C509    1.087   1_655 S
C625   H626    1.072   .     S
C625   O627    1.222   .     D
C628   O630    1.222   .     D
C628   H629    1.072   .     S
C631   O659    1.299   .     A
C631   C642    1.451   .     S
C631   O661    1.295   .     A
C632   O660    1.299   .     A
C632   C641    1.451   .     S
C632   O662    1.295   .     A
C633   O665    1.291   .     A
C633   O663    1.294   .     A
C633   C635    1.433   .     S
C634   O666    1.291   .     A
C634   O664    1.294   .     A
C634   C636    1.433   .     S
C635   C720    1.332   1_455 S
C635   H733    1.087   1_455 S
C636   C677    1.332   .     S
C636   H692    1.087   .     S
C637   C642    1.403   .     A
C637   H651    1.083   .     S
C638   H652    1.083   .     S
C638   C641    1.403   .     A
C638   C388    1.384   1_565 S
C639   C641    1.400   .     A
C639   H653    1.083   .     S
C639   C385    1.384   1_565 S
C640   C642    1.400   .     A
C640   H654    1.083   .     S
C643   N658    1.354   .     A
C643   H655    1.082   .     S
C644   N657    1.354   .     A
C644   H656    1.082   .     S
C644   C1024   1.421   .     S
C645   N657    1.391   .     A
C645   C667    1.484   .     S
C645   C1021   1.421   .     S
C646   N658    1.391   .     A
C646   C670    1.484   .     S
Cu647  O666    1.959   .     S
Cu647  Cu648   2.697   .     S
Cu647  O663    1.961   .     S
Cu647  N657    2.027   .     S
Cu647  O659    1.966   .     S
Cu647  O662    1.962   .     S
Cu648  O665    1.959   .     S
Cu648  N658    2.027   .     S
Cu648  O660    1.966   .     S
Cu648  O664    1.961   .     S
Cu648  O661    1.962   .     S
H649   C677    1.087   .     S
H650   C720    1.087   1_455 S
C667   H668    1.072   .     S
C667   O669    1.222   .     D
C670   O672    1.222   .     D
C670   H671    1.072   .     S
C673   O701    1.299   .     A
C673   C684    1.451   .     S
C673   O703    1.295   .     A
C674   O702    1.299   .     A
C674   C683    1.451   .     S
C674   O704    1.295   .     A
C675   O707    1.291   .     A
C675   O705    1.294   .     A
C675   C677    1.433   .     S
C676   O708    1.291   .     A
C676   O706    1.294   .     A
C676   C678    1.433   .     S
C678   C719    1.332   .     S
C678   H734    1.087   .     S
C679   C684    1.403   .     A
C679   H693    1.083   .     S
C680   H694    1.083   .     S
C680   C683    1.403   .     A
C680   C430    1.384   1_565 S
C681   C683    1.400   .     A
C681   H695    1.083   .     S
C681   C427    1.384   1_565 S
C682   C684    1.400   .     A
C682   H696    1.083   .     S
C685   N700    1.354   .     A
C685   H697    1.082   .     S
C686   N699    1.354   .     A
C686   H698    1.082   .     S
C686   C1066   1.421   .     S
C687   N699    1.391   .     A
C687   C709    1.484   .     S
C687   C1063   1.421   .     S
C688   N700    1.391   .     A
C688   C712    1.484   .     S
Cu689  O708    1.959   .     S
Cu689  Cu690   2.697   .     S
Cu689  O705    1.961   .     S
Cu689  N699    2.027   .     S
Cu689  O701    1.966   .     S
Cu689  O704    1.962   .     S
Cu690  O707    1.959   .     S
Cu690  N700    2.027   .     S
Cu690  O702    1.966   .     S
Cu690  O706    1.961   .     S
Cu690  O703    1.962   .     S
H691   C719    1.087   .     S
C709   H710    1.072   .     S
C709   O711    1.222   .     D
C712   O714    1.222   .     D
C712   H713    1.072   .     S
C715   O743    1.299   .     A
C715   C726    1.451   .     S
C715   O745    1.295   .     A
C716   O744    1.299   .     A
C716   C725    1.451   .     S
C716   O746    1.295   .     A
C717   O749    1.291   .     A
C717   O747    1.294   .     A
C717   C719    1.433   .     S
C718   O750    1.291   .     A
C718   O748    1.294   .     A
C718   C720    1.433   .     S
C720   C635    1.332   1_655 S
C720   H650    1.087   1_655 S
C721   C726    1.403   .     A
C721   H735    1.083   .     S
C722   H736    1.083   .     S
C722   C725    1.403   .     A
C722   C472    1.384   1_565 S
C723   C725    1.400   .     A
C723   H737    1.083   .     S
C723   C469    1.384   1_565 S
C724   C726    1.400   .     A
C724   H738    1.083   .     S
C727   N742    1.354   .     A
C727   H739    1.082   .     S
C728   N741    1.354   .     A
C728   H740    1.082   .     S
C728   C1108   1.421   .     S
C729   N741    1.391   .     A
C729   C751    1.484   .     S
C729   C1105   1.421   .     S
C730   N742    1.391   .     A
C730   C754    1.484   .     S
Cu731  O750    1.959   .     S
Cu731  Cu732   2.697   .     S
Cu731  O747    1.961   .     S
Cu731  N741    2.027   .     S
Cu731  O743    1.966   .     S
Cu731  O746    1.962   .     S
Cu732  O749    1.959   .     S
Cu732  N742    2.027   .     S
Cu732  O744    1.966   .     S
Cu732  O748    1.961   .     S
Cu732  O745    1.962   .     S
H733   C635    1.087   1_655 S
C751   H752    1.072   .     S
C751   O753    1.222   .     D
C754   O756    1.222   .     D
C754   H755    1.072   .     S
C757   O785    1.299   .     A
C757   C768    1.451   .     S
C757   O787    1.295   .     A
C758   O786    1.299   .     A
C758   C767    1.451   .     S
C758   O788    1.295   .     A
C759   O791    1.291   .     A
C759   O789    1.294   .     A
C759   C761    1.433   .     S
C760   O792    1.291   .     A
C760   O790    1.294   .     A
C760   C762    1.433   .     S
C761   C846    1.332   1_455 S
C761   H859    1.087   1_455 S
C762   C803    1.332   .     S
C762   H818    1.087   .     S
C763   C768    1.403   .     A
C763   H777    1.083   .     S
C763   C1017   1.384   1_545 S
C764   H778    1.083   .     S
C764   C767    1.403   .     A
C764   C892    1.384   .     S
C765   C767    1.400   .     A
C765   H779    1.083   .     S
C765   C889    1.384   .     S
C766   C768    1.400   .     A
C766   H780    1.083   .     S
C766   C1016   1.384   1_545 S
C769   N784    1.354   .     A
C769   H781    1.082   .     S
C770   N783    1.354   .     A
C770   H782    1.082   .     S
C770   C16     1.421   1_556 S
C771   N783    1.391   .     A
C771   C793    1.484   .     S
C771   C13     1.421   1_556 S
C772   N784    1.391   .     A
C772   C796    1.484   .     S
Cu773  O792    1.959   .     S
Cu773  Cu774   2.697   .     S
Cu773  O789    1.961   .     S
Cu773  N783    2.027   .     S
Cu773  O785    1.966   .     S
Cu773  O788    1.962   .     S
Cu774  O791    1.959   .     S
Cu774  N784    2.027   .     S
Cu774  O786    1.966   .     S
Cu774  O790    1.961   .     S
Cu774  O787    1.962   .     S
H775   C803    1.087   .     S
H776   C846    1.087   1_455 S
C793   H794    1.072   .     S
C793   O795    1.222   .     D
C796   O798    1.222   .     D
C796   H797    1.072   .     S
C799   O827    1.299   .     A
C799   C810    1.451   .     S
C799   O829    1.295   .     A
C800   O828    1.299   .     A
C800   C809    1.451   .     S
C800   O830    1.295   .     A
C801   O833    1.291   .     A
C801   O831    1.294   .     A
C801   C803    1.433   .     S
C802   O834    1.291   .     A
C802   O832    1.294   .     A
C802   C804    1.433   .     S
C804   C845    1.332   .     S
C804   H860    1.087   .     S
C805   C810    1.403   .     A
C805   H819    1.083   .     S
C805   C1059   1.384   1_545 S
C806   H820    1.083   .     S
C806   C809    1.403   .     A
C806   C934    1.384   .     S
C807   C809    1.400   .     A
C807   H821    1.083   .     S
C807   C931    1.384   .     S
C808   C810    1.400   .     A
C808   H822    1.083   .     S
C808   C1058   1.384   1_545 S
C811   N826    1.354   .     A
C811   H823    1.082   .     S
C812   N825    1.354   .     A
C812   H824    1.082   .     S
C812   C58     1.421   1_556 S
C813   N825    1.391   .     A
C813   C835    1.484   .     S
C813   C55     1.421   1_556 S
C814   N826    1.391   .     A
C814   C838    1.484   .     S
Cu815  O834    1.959   .     S
Cu815  Cu816   2.697   .     S
Cu815  O831    1.961   .     S
Cu815  N825    2.027   .     S
Cu815  O827    1.966   .     S
Cu815  O830    1.962   .     S
Cu816  O833    1.959   .     S
Cu816  N826    2.027   .     S
Cu816  O828    1.966   .     S
Cu816  O832    1.961   .     S
Cu816  O829    1.962   .     S
H817   C845    1.087   .     S
C835   H836    1.072   .     S
C835   O837    1.222   .     D
C838   O840    1.222   .     D
C838   H839    1.072   .     S
C841   O869    1.299   .     A
C841   C852    1.451   .     S
C841   O871    1.295   .     A
C842   O870    1.299   .     A
C842   C851    1.451   .     S
C842   O872    1.295   .     A
C843   O875    1.291   .     A
C843   O873    1.294   .     A
C843   C845    1.433   .     S
C844   O876    1.291   .     A
C844   O874    1.294   .     A
C844   C846    1.433   .     S
C846   C761    1.332   1_655 S
C846   H776    1.087   1_655 S
C847   C852    1.403   .     A
C847   H861    1.083   .     S
C847   C1101   1.384   1_545 S
C848   H862    1.083   .     S
C848   C851    1.403   .     A
C848   C976    1.384   .     S
C849   C851    1.400   .     A
C849   H863    1.083   .     S
C849   C973    1.384   .     S
C850   C852    1.400   .     A
C850   H864    1.083   .     S
C850   C1100   1.384   1_545 S
C853   N868    1.354   .     A
C853   H865    1.082   .     S
C854   N867    1.354   .     A
C854   H866    1.082   .     S
C854   C100    1.421   1_556 S
C855   N867    1.391   .     A
C855   C877    1.484   .     S
C855   C97     1.421   1_556 S
C856   N868    1.391   .     A
C856   C880    1.484   .     S
Cu857  O876    1.959   .     S
Cu857  Cu858   2.697   .     S
Cu857  O873    1.961   .     S
Cu857  N867    2.027   .     S
Cu857  O869    1.966   .     S
Cu857  O872    1.962   .     S
Cu858  O875    1.959   .     S
Cu858  N868    2.027   .     S
Cu858  O870    1.966   .     S
Cu858  O874    1.961   .     S
Cu858  O871    1.962   .     S
H859   C761    1.087   1_655 S
C877   H878    1.072   .     S
C877   O879    1.222   .     D
C880   O882    1.222   .     D
C880   H881    1.072   .     S
C883   O911    1.299   .     A
C883   C894    1.451   .     S
C883   O913    1.295   .     A
C884   O912    1.299   .     A
C884   C893    1.451   .     S
C884   O914    1.295   .     A
C885   O917    1.291   .     A
C885   O915    1.294   .     A
C885   C887    1.433   .     S
C886   O918    1.291   .     A
C886   O916    1.294   .     A
C886   C888    1.433   .     S
C887   C972    1.332   1_455 S
C887   H985    1.087   1_455 S
C888   C929    1.332   .     S
C888   H944    1.087   .     S
C889   C894    1.403   .     A
C889   H903    1.083   .     S
C890   H904    1.083   .     S
C890   C893    1.403   .     A
C890   C1018   1.384   .     S
C891   C893    1.400   .     A
C891   H905    1.083   .     S
C891   C1015   1.384   .     S
C892   C894    1.400   .     A
C892   H906    1.083   .     S
C895   N910    1.354   .     A
C895   H907    1.082   .     S
C896   N909    1.354   .     A
C896   H908    1.082   .     S
C896   C142    1.421   1_556 S
C897   N909    1.391   .     A
C897   C919    1.484   .     S
C897   C139    1.421   1_556 S
C898   N910    1.391   .     A
C898   C922    1.484   .     S
Cu899  O918    1.959   .     S
Cu899  Cu900   2.697   .     S
Cu899  O915    1.961   .     S
Cu899  N909    2.027   .     S
Cu899  O911    1.966   .     S
Cu899  O914    1.962   .     S
Cu900  O917    1.959   .     S
Cu900  N910    2.027   .     S
Cu900  O912    1.966   .     S
Cu900  O916    1.961   .     S
Cu900  O913    1.962   .     S
H901   C929    1.087   .     S
H902   C972    1.087   1_455 S
C919   H920    1.072   .     S
C919   O921    1.222   .     D
C922   O924    1.222   .     D
C922   H923    1.072   .     S
C925   O953    1.299   .     A
C925   C936    1.451   .     S
C925   O955    1.295   .     A
C926   O954    1.299   .     A
C926   C935    1.451   .     S
C926   O956    1.295   .     A
C927   O959    1.291   .     A
C927   O957    1.294   .     A
C927   C929    1.433   .     S
C928   O960    1.291   .     A
C928   O958    1.294   .     A
C928   C930    1.433   .     S
C930   C971    1.332   .     S
C930   H986    1.087   .     S
C931   C936    1.403   .     A
C931   H945    1.083   .     S
C932   H946    1.083   .     S
C932   C935    1.403   .     A
C932   C1060   1.384   .     S
C933   C935    1.400   .     A
C933   H947    1.083   .     S
C933   C1057   1.384   .     S
C934   C936    1.400   .     A
C934   H948    1.083   .     S
C937   N952    1.354   .     A
C937   H949    1.082   .     S
C938   N951    1.354   .     A
C938   H950    1.082   .     S
C938   C184    1.421   1_556 S
C939   N951    1.391   .     A
C939   C961    1.484   .     S
C939   C181    1.421   1_556 S
C940   N952    1.391   .     A
C940   C964    1.484   .     S
Cu941  O960    1.959   .     S
Cu941  Cu942   2.697   .     S
Cu941  O957    1.961   .     S
Cu941  N951    2.027   .     S
Cu941  O953    1.966   .     S
Cu941  O956    1.962   .     S
Cu942  O959    1.959   .     S
Cu942  N952    2.027   .     S
Cu942  O954    1.966   .     S
Cu942  O958    1.961   .     S
Cu942  O955    1.962   .     S
H943   C971    1.087   .     S
C961   H962    1.072   .     S
C961   O963    1.222   .     D
C964   O966    1.222   .     D
C964   H965    1.072   .     S
C967   O995    1.299   .     A
C967   C978    1.451   .     S
C967   O997    1.295   .     A
C968   O996    1.299   .     A
C968   C977    1.451   .     S
C968   O998    1.295   .     A
C969   O1001   1.291   .     A
C969   O999    1.294   .     A
C969   C971    1.433   .     S
C970   O1002   1.291   .     A
C970   O1000   1.294   .     A
C970   C972    1.433   .     S
C972   C887    1.332   1_655 S
C972   H902    1.087   1_655 S
C973   C978    1.403   .     A
C973   H987    1.083   .     S
C974   H988    1.083   .     S
C974   C977    1.403   .     A
C974   C1102   1.384   .     S
C975   C977    1.400   .     A
C975   H989    1.083   .     S
C975   C1099   1.384   .     S
C976   C978    1.400   .     A
C976   H990    1.083   .     S
C979   N994    1.354   .     A
C979   H991    1.082   .     S
C980   N993    1.354   .     A
C980   H992    1.082   .     S
C980   C226    1.421   1_556 S
C981   N993    1.391   .     A
C981   C1003   1.484   .     S
C981   C223    1.421   1_556 S
C982   N994    1.391   .     A
C982   C1006   1.484   .     S
Cu983  O1002   1.959   .     S
Cu983  Cu984   2.697   .     S
Cu983  O999    1.961   .     S
Cu983  N993    2.027   .     S
Cu983  O995    1.966   .     S
Cu983  O998    1.962   .     S
Cu984  O1001   1.959   .     S
Cu984  N994    2.027   .     S
Cu984  O996    1.966   .     S
Cu984  O1000   1.961   .     S
Cu984  O997    1.962   .     S
H985   C887    1.087   1_655 S
C1003  H1004   1.072   .     S
C1003  O1005   1.222   .     D
C1006  O1008   1.222   .     D
C1006  H1007   1.072   .     S
C1009  O1037   1.299   .     A
C1009  C1020   1.451   .     S
C1009  O1039   1.295   .     A
C1010  O1038   1.299   .     A
C1010  C1019   1.451   .     S
C1010  O1040   1.295   .     A
C1011  O1043   1.291   .     A
C1011  O1041   1.294   .     A
C1011  C1013   1.433   .     S
C1012  O1044   1.291   .     A
C1012  O1042   1.294   .     A
C1012  C1014   1.433   .     S
C1013  C1098   1.332   1_455 S
C1013  H1111   1.087   1_455 S
C1014  C1055   1.332   .     S
C1014  H1070   1.087   .     S
C1015  C1020   1.403   .     A
C1015  H1029   1.083   .     S
C1016  H1030   1.083   .     S
C1016  C1019   1.403   .     A
C1016  C766    1.384   1_565 S
C1017  C1019   1.400   .     A
C1017  H1031   1.083   .     S
C1017  C763    1.384   1_565 S
C1018  C1020   1.400   .     A
C1018  H1032   1.083   .     S
C1021  N1036   1.354   .     A
C1021  H1033   1.082   .     S
C1022  N1035   1.354   .     A
C1022  H1034   1.082   .     S
C1022  C268    1.421   1_556 S
C1023  N1035   1.391   .     A
C1023  C1045   1.484   .     S
C1023  C265    1.421   1_556 S
C1024  N1036   1.391   .     A
C1024  C1048   1.484   .     S
Cu1025 O1044   1.959   .     S
Cu1025 Cu1026  2.697   .     S
Cu1025 O1041   1.961   .     S
Cu1025 N1035   2.027   .     S
Cu1025 O1037   1.966   .     S
Cu1025 O1040   1.962   .     S
Cu1026 O1043   1.959   .     S
Cu1026 N1036   2.027   .     S
Cu1026 O1038   1.966   .     S
Cu1026 O1042   1.961   .     S
Cu1026 O1039   1.962   .     S
H1027  C1055   1.087   .     S
H1028  C1098   1.087   1_455 S
C1045  H1046   1.072   .     S
C1045  O1047   1.222   .     D
C1048  O1050   1.222   .     D
C1048  H1049   1.072   .     S
C1051  O1079   1.299   .     A
C1051  C1062   1.451   .     S
C1051  O1081   1.295   .     A
C1052  O1080   1.299   .     A
C1052  C1061   1.451   .     S
C1052  O1082   1.295   .     A
C1053  O1085   1.291   .     A
C1053  O1083   1.294   .     A
C1053  C1055   1.433   .     S
C1054  O1086   1.291   .     A
C1054  O1084   1.294   .     A
C1054  C1056   1.433   .     S
C1056  C1097   1.332   .     S
C1056  H1112   1.087   .     S
C1057  C1062   1.403   .     A
C1057  H1071   1.083   .     S
C1058  H1072   1.083   .     S
C1058  C1061   1.403   .     A
C1058  C808    1.384   1_565 S
C1059  C1061   1.400   .     A
C1059  H1073   1.083   .     S
C1059  C805    1.384   1_565 S
C1060  C1062   1.400   .     A
C1060  H1074   1.083   .     S
C1063  N1078   1.354   .     A
C1063  H1075   1.082   .     S
C1064  N1077   1.354   .     A
C1064  H1076   1.082   .     S
C1064  C310    1.421   1_556 S
C1065  N1077   1.391   .     A
C1065  C1087   1.484   .     S
C1065  C307    1.421   1_556 S
C1066  N1078   1.391   .     A
C1066  C1090   1.484   .     S
Cu1067 O1086   1.959   .     S
Cu1067 Cu1068  2.697   .     S
Cu1067 O1083   1.961   .     S
Cu1067 N1077   2.027   .     S
Cu1067 O1079   1.966   .     S
Cu1067 O1082   1.962   .     S
Cu1068 O1085   1.959   .     S
Cu1068 N1078   2.027   .     S
Cu1068 O1080   1.966   .     S
Cu1068 O1084   1.961   .     S
Cu1068 O1081   1.962   .     S
H1069  C1097   1.087   .     S
C1087  H1088   1.072   .     S
C1087  O1089   1.222   .     D
C1090  O1092   1.222   .     D
C1090  H1091   1.072   .     S
C1093  O1121   1.299   .     A
C1093  C1104   1.451   .     S
C1093  O1123   1.295   .     A
C1094  O1122   1.299   .     A
C1094  C1103   1.451   .     S
C1094  O1124   1.295   .     A
C1095  O1127   1.291   .     A
C1095  O1125   1.294   .     A
C1095  C1097   1.433   .     S
C1096  O1128   1.291   .     A
C1096  O1126   1.294   .     A
C1096  C1098   1.433   .     S
C1098  C1013   1.332   1_655 S
C1098  H1028   1.087   1_655 S
C1099  C1104   1.403   .     A
C1099  H1113   1.083   .     S
C1100  H1114   1.083   .     S
C1100  C1103   1.403   .     A
C1100  C850    1.384   1_565 S
C1101  C1103   1.400   .     A
C1101  H1115   1.083   .     S
C1101  C847    1.384   1_565 S
C1102  C1104   1.400   .     A
C1102  H1116   1.083   .     S
C1105  N1120   1.354   .     A
C1105  H1117   1.082   .     S
C1106  N1119   1.354   .     A
C1106  H1118   1.082   .     S
C1106  C352    1.421   1_556 S
C1107  N1119   1.391   .     A
C1107  C1129   1.484   .     S
C1107  C349    1.421   1_556 S
C1108  N1120   1.391   .     A
C1108  C1132   1.484   .     S
Cu1109 O1128   1.959   .     S
Cu1109 Cu1110  2.697   .     S
Cu1109 O1125   1.961   .     S
Cu1109 N1119   2.027   .     S
Cu1109 O1121   1.966   .     S
Cu1109 O1124   1.962   .     S
Cu1110 O1127   1.959   .     S
Cu1110 N1120   2.027   .     S
Cu1110 O1122   1.966   .     S
Cu1110 O1126   1.961   .     S
Cu1110 O1123   1.962   .     S
H1111  C1013   1.087   1_655 S
C1129  H1130   1.072   .     S
C1129  O1131   1.222   .     D
C1132  O1134   1.222   .     D
C1132  H1133   1.072   .     S
