data_str_m2_o1_o18_pcu_sym.162
_audit_creation_date              2020-01-03
_audit_creation_method            'Materials Studio'
_symmetry_space_group_name_H-M    'P1'
_symmetry_Int_Tables_number       1
_symmetry_cell_setting            triclinic
loop_
_symmetry_equiv_pos_as_xyz
  x,y,z
_cell_length_a                    28.7166
_cell_length_b                    32.4930
_cell_length_c                    30.8622
_cell_angle_alpha                 88.3098
_cell_angle_beta                  74.7375
_cell_angle_gamma                 89.4275
loop_
_atom_site_label
_atom_site_type_symbol
_atom_site_fract_x
_atom_site_fract_y
_atom_site_fract_z
_atom_site_U_iso_or_equiv
_atom_site_adp_type
_atom_site_occupancy
C1     C     0.00010   0.08741   0.25009   0.00000  Uiso   1.00
C2     C     0.33324   0.24593   0.24991   0.00000  Uiso   1.00
C3     C     0.19197   0.14305   0.04602   0.00000  Uiso   1.00
C4     C     0.13877   0.17438   0.45206   0.00000  Uiso   1.00
C5     C     0.24019   0.13756   0.02370   0.00000  Uiso   1.00
C6     C     0.09042   0.17925   0.47425   0.00000  Uiso   1.00
C7     C     0.29095   0.02168   0.25052   0.00000  Uiso   1.00
C8     C     0.04238   0.31166   0.24950   0.00000  Uiso   1.00
C9     C     0.29083   0.31243   0.25040   0.00000  Uiso   1.00
C10    C     0.04250   0.02090   0.24961   0.00000  Uiso   1.00
C11    C     0.33320   0.29057   0.24991   0.00000  Uiso   1.00
C12    C     0.00013   0.04276   0.25010   0.00000  Uiso   1.00
C13    C     0.18502   0.13917   0.27611   0.00000  Uiso   1.00
C14    C     0.14831   0.19417   0.22391   0.00000  Uiso   1.00
C15    C     0.13543   0.13877   0.27654   0.00000  Uiso   1.00
C16    C     0.19790   0.19457   0.22348   0.00000  Uiso   1.00
C17    C     0.30617   0.16617   0.33609   0.00000  Uiso   1.00
C18    C     0.02717   0.16683   0.16389   0.00000  Uiso   1.00
C19    C     0.29095   0.16234   0.38533   0.00000  Uiso   1.00
C20    C     0.04226   0.16778   0.11453   0.00000  Uiso   1.00
C21    C     0.30556   0.14031   0.45601   0.00000  Uiso   1.00
C22    C     0.02589   0.18089   0.04251   0.00000  Uiso   1.00
C23    C     0.32267   0.14826   0.40999   0.00000  Uiso   1.00
C24    C     0.00961   0.17719   0.08911   0.00000  Uiso   1.00
C25    C     0.24241   0.16939   0.40726   0.00000  Uiso   1.00
C26    C     0.09095   0.16090   0.09282   0.00000  Uiso   1.00
C27    C     0.22375   0.16013   0.45335   0.00000  Uiso   1.00
C28    C     0.10823   0.16362   0.04575   0.00000  Uiso   1.00
C29    C     0.25656   0.14611   0.47781   0.00000  Uiso   1.00
C30    C     0.07479   0.17450   0.02073   0.00000  Uiso   1.00
C31    C     0.17367   0.16424   0.47566   0.00000  Uiso   1.00
C32    C     0.15783   0.15705   0.02306   0.00000  Uiso   1.00
Cu33   Cu    0.04689   0.16667   0.25000   0.00000  Uiso   1.00
Cu34   Cu    0.28645   0.16666   0.25000   0.00000  Uiso   1.00
H35    H     0.25762   0.29675   0.25075   0.00000  Uiso   1.00
H36    H     0.07571   0.03659   0.24927   0.00000  Uiso   1.00
N37    N     0.11736   0.16668   0.24999   0.00000  Uiso   1.00
N38    N     0.21597   0.16666   0.25001   0.00000  Uiso   1.00
O39    O     0.03958   0.10655   0.25000   0.00000  Uiso   1.00
O40    O     0.29375   0.22678   0.25000   0.00000  Uiso   1.00
O41    O     0.29372   0.10654   0.25001   0.00000  Uiso   1.00
O42    O     0.03961   0.22679   0.24999   0.00000  Uiso   1.00
O43    O     0.01852   0.16668   0.31491   0.00000  Uiso   1.00
O44    O     0.31481   0.16666   0.18509   0.00000  Uiso   1.00
O45    O     0.27267   0.16667   0.31492   0.00000  Uiso   1.00
O46    O     0.06067   0.16667   0.18508   0.00000  Uiso   1.00
H47    H     0.26492   0.12651   0.04264   0.00000  Uiso   1.00
H48    H     0.06509   0.18724   0.45476   0.00000  Uiso   1.00
H49    H     0.11491   0.15456   0.11369   0.00000  Uiso   1.00
H50    H     0.21997   0.18220   0.38732   0.00000  Uiso   1.00
H51    H     0.30520   0.18280   0.10524   0.00000  Uiso   1.00
H52    H     0.02695   0.14240   0.39362   0.00000  Uiso   1.00
H53    H     0.33052   0.12881   0.47445   0.00000  Uiso   1.00
H54    H     0.00031   0.18944   0.02352   0.00000  Uiso   1.00
H55    H     0.18265   0.13489   0.08128   0.00000  Uiso   1.00
H56    H     0.14720   0.17800   0.41607   0.00000  Uiso   1.00
H57    H     0.25775   0.03798   0.25094   0.00000  Uiso   1.00
H58    H     0.07558   0.29535   0.24908   0.00000  Uiso   1.00
H59    H     0.19899   0.11761   0.29701   0.00000  Uiso   1.00
H60    H     0.13435   0.21574   0.20301   0.00000  Uiso   1.00
C61    C     0.10455   0.10757   0.30662   0.00000  Uiso   1.00
H62    H     0.06594   0.10934   0.31564   0.00000  Uiso   1.00
O63    O     0.12251   0.07861   0.32262   0.00000  Uiso   1.00
C64    C     0.22877   0.22581   0.19346   0.00000  Uiso   1.00
H65    H     0.26738   0.22389   0.18417   0.00000  Uiso   1.00
O66    O     0.21079   0.25498   0.17781   0.00000  Uiso   1.00
C67    C     0.33343   0.08741   0.25009   0.00000  Uiso   1.00
C68    C     0.66657   0.24593   0.24991   0.00000  Uiso   1.00
C69    C     0.52530   0.14305   0.04602   0.00000  Uiso   1.00
C70    C     0.47210   0.17438   0.45206   0.00000  Uiso   1.00
C71    C     0.57352   0.13756   0.02370   0.00000  Uiso   1.00
C72    C     0.42375   0.17925   0.47425   0.00000  Uiso   1.00
C73    C     0.62428   0.02168   0.25052   0.00000  Uiso   1.00
C74    C     0.37572   0.31166   0.24950   0.00000  Uiso   1.00
C75    C     0.62416   0.31243   0.25040   0.00000  Uiso   1.00
C76    C     0.37583   0.02090   0.24961   0.00000  Uiso   1.00
C77    C     0.66654   0.29057   0.24991   0.00000  Uiso   1.00
C78    C     0.33346   0.04276   0.25010   0.00000  Uiso   1.00
C79    C     0.51836   0.13917   0.27611   0.00000  Uiso   1.00
C80    C     0.48164   0.19417   0.22391   0.00000  Uiso   1.00
C81    C     0.46877   0.13877   0.27654   0.00000  Uiso   1.00
C82    C     0.53123   0.19457   0.22348   0.00000  Uiso   1.00
C83    C     0.63950   0.16617   0.33609   0.00000  Uiso   1.00
C84    C     0.36050   0.16683   0.16389   0.00000  Uiso   1.00
C85    C     0.62428   0.16234   0.38533   0.00000  Uiso   1.00
C86    C     0.37560   0.16778   0.11453   0.00000  Uiso   1.00
C87    C     0.63890   0.14031   0.45601   0.00000  Uiso   1.00
C88    C     0.35922   0.18089   0.04251   0.00000  Uiso   1.00
C89    C     0.65600   0.14826   0.40999   0.00000  Uiso   1.00
C90    C     0.34295   0.17719   0.08911   0.00000  Uiso   1.00
C91    C     0.57574   0.16939   0.40726   0.00000  Uiso   1.00
C92    C     0.42428   0.16090   0.09282   0.00000  Uiso   1.00
C93    C     0.55709   0.16013   0.45335   0.00000  Uiso   1.00
C94    C     0.44157   0.16362   0.04575   0.00000  Uiso   1.00
C95    C     0.58989   0.14611   0.47781   0.00000  Uiso   1.00
C96    C     0.40813   0.17450   0.02073   0.00000  Uiso   1.00
C97    C     0.50700   0.16424   0.47566   0.00000  Uiso   1.00
C98    C     0.49116   0.15705   0.02306   0.00000  Uiso   1.00
Cu99   Cu    0.38022   0.16667   0.25000   0.00000  Uiso   1.00
Cu100  Cu    0.61978   0.16666   0.25000   0.00000  Uiso   1.00
H101   H     0.59095   0.29675   0.25075   0.00000  Uiso   1.00
H102   H     0.40904   0.03659   0.24927   0.00000  Uiso   1.00
N103   N     0.45069   0.16668   0.24999   0.00000  Uiso   1.00
N104   N     0.54931   0.16666   0.25001   0.00000  Uiso   1.00
O105   O     0.37291   0.10655   0.25000   0.00000  Uiso   1.00
O106   O     0.62709   0.22678   0.25000   0.00000  Uiso   1.00
O107   O     0.62706   0.10654   0.25001   0.00000  Uiso   1.00
O108   O     0.37294   0.22679   0.24999   0.00000  Uiso   1.00
O109   O     0.35186   0.16668   0.31491   0.00000  Uiso   1.00
O110   O     0.64814   0.16666   0.18509   0.00000  Uiso   1.00
O111   O     0.60600   0.16667   0.31492   0.00000  Uiso   1.00
O112   O     0.39400   0.16667   0.18508   0.00000  Uiso   1.00
H113   H     0.59825   0.12651   0.04264   0.00000  Uiso   1.00
H114   H     0.39843   0.18724   0.45476   0.00000  Uiso   1.00
H115   H     0.44824   0.15456   0.11369   0.00000  Uiso   1.00
H116   H     0.55330   0.18220   0.38732   0.00000  Uiso   1.00
H117   H     0.63854   0.18280   0.10524   0.00000  Uiso   1.00
H118   H     0.36028   0.14240   0.39362   0.00000  Uiso   1.00
H119   H     0.66385   0.12881   0.47445   0.00000  Uiso   1.00
H120   H     0.33364   0.18944   0.02352   0.00000  Uiso   1.00
H121   H     0.51598   0.13489   0.08128   0.00000  Uiso   1.00
H122   H     0.48053   0.17800   0.41607   0.00000  Uiso   1.00
H123   H     0.59108   0.03798   0.25094   0.00000  Uiso   1.00
H124   H     0.40891   0.29535   0.24908   0.00000  Uiso   1.00
H125   H     0.53232   0.11761   0.29701   0.00000  Uiso   1.00
H126   H     0.46769   0.21574   0.20301   0.00000  Uiso   1.00
C127   C     0.43788   0.10757   0.30662   0.00000  Uiso   1.00
H128   H     0.39927   0.10934   0.31564   0.00000  Uiso   1.00
O129   O     0.45585   0.07861   0.32262   0.00000  Uiso   1.00
C130   C     0.56211   0.22581   0.19346   0.00000  Uiso   1.00
H131   H     0.60072   0.22389   0.18417   0.00000  Uiso   1.00
O132   O     0.54413   0.25498   0.17781   0.00000  Uiso   1.00
C133   C     0.66676   0.08741   0.25009   0.00000  Uiso   1.00
C134   C     0.99990   0.24593   0.24991   0.00000  Uiso   1.00
C135   C     0.85864   0.14305   0.04602   0.00000  Uiso   1.00
C136   C     0.80543   0.17438   0.45206   0.00000  Uiso   1.00
C137   C     0.90685   0.13756   0.02370   0.00000  Uiso   1.00
C138   C     0.75709   0.17925   0.47425   0.00000  Uiso   1.00
C139   C     0.95761   0.02168   0.25052   0.00000  Uiso   1.00
C140   C     0.70905   0.31166   0.24950   0.00000  Uiso   1.00
C141   C     0.95749   0.31243   0.25040   0.00000  Uiso   1.00
C142   C     0.70917   0.02090   0.24961   0.00000  Uiso   1.00
C143   C     0.99987   0.29057   0.24991   0.00000  Uiso   1.00
C144   C     0.66679   0.04276   0.25010   0.00000  Uiso   1.00
C145   C     0.85169   0.13917   0.27611   0.00000  Uiso   1.00
C146   C     0.81498   0.19417   0.22391   0.00000  Uiso   1.00
C147   C     0.80210   0.13877   0.27654   0.00000  Uiso   1.00
C148   C     0.86456   0.19457   0.22348   0.00000  Uiso   1.00
C149   C     0.97283   0.16617   0.33609   0.00000  Uiso   1.00
C150   C     0.69384   0.16683   0.16389   0.00000  Uiso   1.00
C151   C     0.95761   0.16234   0.38533   0.00000  Uiso   1.00
C152   C     0.70893   0.16778   0.11453   0.00000  Uiso   1.00
C153   C     0.97223   0.14031   0.45601   0.00000  Uiso   1.00
C154   C     0.69256   0.18089   0.04251   0.00000  Uiso   1.00
C155   C     0.98933   0.14826   0.40999   0.00000  Uiso   1.00
C156   C     0.67628   0.17719   0.08911   0.00000  Uiso   1.00
C157   C     0.90907   0.16939   0.40726   0.00000  Uiso   1.00
C158   C     0.75761   0.16090   0.09282   0.00000  Uiso   1.00
C159   C     0.89042   0.16013   0.45335   0.00000  Uiso   1.00
C160   C     0.77490   0.16362   0.04575   0.00000  Uiso   1.00
C161   C     0.92322   0.14611   0.47781   0.00000  Uiso   1.00
C162   C     0.74146   0.17450   0.02073   0.00000  Uiso   1.00
C163   C     0.84034   0.16424   0.47566   0.00000  Uiso   1.00
C164   C     0.82449   0.15705   0.02306   0.00000  Uiso   1.00
Cu165  Cu    0.71355   0.16667   0.25000   0.00000  Uiso   1.00
Cu166  Cu    0.95311   0.16666   0.25000   0.00000  Uiso   1.00
H167   H     0.92429   0.29675   0.25075   0.00000  Uiso   1.00
H168   H     0.74237   0.03659   0.24927   0.00000  Uiso   1.00
N169   N     0.78403   0.16668   0.24999   0.00000  Uiso   1.00
N170   N     0.88264   0.16666   0.25001   0.00000  Uiso   1.00
O171   O     0.70625   0.10655   0.25000   0.00000  Uiso   1.00
O172   O     0.96042   0.22678   0.25000   0.00000  Uiso   1.00
O173   O     0.96039   0.10654   0.25001   0.00000  Uiso   1.00
O174   O     0.70628   0.22679   0.24999   0.00000  Uiso   1.00
O175   O     0.68519   0.16668   0.31491   0.00000  Uiso   1.00
O176   O     0.98148   0.16666   0.18509   0.00000  Uiso   1.00
O177   O     0.93933   0.16667   0.31492   0.00000  Uiso   1.00
O178   O     0.72733   0.16667   0.18508   0.00000  Uiso   1.00
H179   H     0.93159   0.12651   0.04264   0.00000  Uiso   1.00
H180   H     0.73176   0.18724   0.45476   0.00000  Uiso   1.00
H181   H     0.78158   0.15456   0.11369   0.00000  Uiso   1.00
H182   H     0.88663   0.18220   0.38732   0.00000  Uiso   1.00
H183   H     0.97187   0.18280   0.10524   0.00000  Uiso   1.00
H184   H     0.69362   0.14240   0.39362   0.00000  Uiso   1.00
H185   H     0.99719   0.12881   0.47445   0.00000  Uiso   1.00
H186   H     0.66698   0.18944   0.02352   0.00000  Uiso   1.00
H187   H     0.84932   0.13489   0.08128   0.00000  Uiso   1.00
H188   H     0.81387   0.17800   0.41607   0.00000  Uiso   1.00
H189   H     0.92441   0.03798   0.25094   0.00000  Uiso   1.00
H190   H     0.74225   0.29535   0.24908   0.00000  Uiso   1.00
H191   H     0.86565   0.11761   0.29701   0.00000  Uiso   1.00
H192   H     0.80102   0.21574   0.20301   0.00000  Uiso   1.00
C193   C     0.77122   0.10757   0.30662   0.00000  Uiso   1.00
H194   H     0.73260   0.10934   0.31564   0.00000  Uiso   1.00
O195   O     0.78918   0.07861   0.32262   0.00000  Uiso   1.00
C196   C     0.89544   0.22581   0.19346   0.00000  Uiso   1.00
H197   H     0.93405   0.22389   0.18417   0.00000  Uiso   1.00
O198   O     0.87746   0.25498   0.17781   0.00000  Uiso   1.00
C199   C     0.00010   0.42074   0.25009   0.00000  Uiso   1.00
C200   C     0.33324   0.57926   0.24991   0.00000  Uiso   1.00
C201   C     0.19197   0.47638   0.04602   0.00000  Uiso   1.00
C202   C     0.13877   0.50771   0.45206   0.00000  Uiso   1.00
C203   C     0.24019   0.47089   0.02370   0.00000  Uiso   1.00
C204   C     0.09042   0.51258   0.47425   0.00000  Uiso   1.00
C205   C     0.29095   0.35501   0.25052   0.00000  Uiso   1.00
C206   C     0.04238   0.64499   0.24950   0.00000  Uiso   1.00
C207   C     0.29083   0.64577   0.25040   0.00000  Uiso   1.00
C208   C     0.04250   0.35423   0.24961   0.00000  Uiso   1.00
C209   C     0.33320   0.62391   0.24991   0.00000  Uiso   1.00
C210   C     0.00013   0.37609   0.25010   0.00000  Uiso   1.00
C211   C     0.18502   0.47251   0.27611   0.00000  Uiso   1.00
C212   C     0.14831   0.52751   0.22391   0.00000  Uiso   1.00
C213   C     0.13543   0.47211   0.27654   0.00000  Uiso   1.00
C214   C     0.19790   0.52791   0.22348   0.00000  Uiso   1.00
C215   C     0.30617   0.49950   0.33609   0.00000  Uiso   1.00
C216   C     0.02717   0.50016   0.16389   0.00000  Uiso   1.00
C217   C     0.29095   0.49567   0.38533   0.00000  Uiso   1.00
C218   C     0.04226   0.50112   0.11453   0.00000  Uiso   1.00
C219   C     0.30556   0.47365   0.45601   0.00000  Uiso   1.00
C220   C     0.02589   0.51422   0.04251   0.00000  Uiso   1.00
C221   C     0.32267   0.48159   0.40999   0.00000  Uiso   1.00
C222   C     0.00961   0.51052   0.08911   0.00000  Uiso   1.00
C223   C     0.24241   0.50272   0.40726   0.00000  Uiso   1.00
C224   C     0.09095   0.49423   0.09282   0.00000  Uiso   1.00
C225   C     0.22375   0.49346   0.45335   0.00000  Uiso   1.00
C226   C     0.10823   0.49695   0.04575   0.00000  Uiso   1.00
C227   C     0.25656   0.47944   0.47781   0.00000  Uiso   1.00
C228   C     0.07479   0.50783   0.02073   0.00000  Uiso   1.00
C229   C     0.17367   0.49757   0.47566   0.00000  Uiso   1.00
C230   C     0.15783   0.49038   0.02306   0.00000  Uiso   1.00
Cu231  Cu    0.04689   0.50001   0.25000   0.00000  Uiso   1.00
Cu232  Cu    0.28645   0.49999   0.25000   0.00000  Uiso   1.00
H233   H     0.25762   0.63008   0.25075   0.00000  Uiso   1.00
H234   H     0.07571   0.36992   0.24927   0.00000  Uiso   1.00
N235   N     0.11736   0.50001   0.24999   0.00000  Uiso   1.00
N236   N     0.21597   0.49999   0.25001   0.00000  Uiso   1.00
O237   O     0.03958   0.43989   0.25000   0.00000  Uiso   1.00
O238   O     0.29375   0.56011   0.25000   0.00000  Uiso   1.00
O239   O     0.29372   0.43988   0.25001   0.00000  Uiso   1.00
O240   O     0.03961   0.56012   0.24999   0.00000  Uiso   1.00
O241   O     0.01852   0.50001   0.31491   0.00000  Uiso   1.00
O242   O     0.31481   0.49999   0.18509   0.00000  Uiso   1.00
O243   O     0.27267   0.50000   0.31492   0.00000  Uiso   1.00
O244   O     0.06067   0.50000   0.18508   0.00000  Uiso   1.00
H245   H     0.26492   0.45984   0.04264   0.00000  Uiso   1.00
H246   H     0.06509   0.52058   0.45476   0.00000  Uiso   1.00
H247   H     0.11491   0.48789   0.11369   0.00000  Uiso   1.00
H248   H     0.21997   0.51553   0.38732   0.00000  Uiso   1.00
H249   H     0.30520   0.51614   0.10524   0.00000  Uiso   1.00
H250   H     0.02695   0.47574   0.39362   0.00000  Uiso   1.00
H251   H     0.33052   0.46215   0.47445   0.00000  Uiso   1.00
H252   H     0.00031   0.52278   0.02352   0.00000  Uiso   1.00
H253   H     0.18265   0.46822   0.08128   0.00000  Uiso   1.00
H254   H     0.14720   0.51133   0.41607   0.00000  Uiso   1.00
H255   H     0.25775   0.37131   0.25094   0.00000  Uiso   1.00
H256   H     0.07558   0.62869   0.24908   0.00000  Uiso   1.00
H257   H     0.19899   0.45095   0.29701   0.00000  Uiso   1.00
H258   H     0.13435   0.54907   0.20301   0.00000  Uiso   1.00
C259   C     0.10455   0.44091   0.30662   0.00000  Uiso   1.00
H260   H     0.06594   0.44267   0.31564   0.00000  Uiso   1.00
O261   O     0.12251   0.41194   0.32262   0.00000  Uiso   1.00
C262   C     0.22877   0.55914   0.19346   0.00000  Uiso   1.00
H263   H     0.26738   0.55722   0.18417   0.00000  Uiso   1.00
O264   O     0.21079   0.58831   0.17781   0.00000  Uiso   1.00
C265   C     0.33343   0.42074   0.25009   0.00000  Uiso   1.00
C266   C     0.66657   0.57926   0.24991   0.00000  Uiso   1.00
C267   C     0.52530   0.47638   0.04602   0.00000  Uiso   1.00
C268   C     0.47210   0.50771   0.45206   0.00000  Uiso   1.00
C269   C     0.57352   0.47089   0.02370   0.00000  Uiso   1.00
C270   C     0.42375   0.51258   0.47425   0.00000  Uiso   1.00
C271   C     0.62428   0.35501   0.25052   0.00000  Uiso   1.00
C272   C     0.37572   0.64499   0.24950   0.00000  Uiso   1.00
C273   C     0.62416   0.64577   0.25040   0.00000  Uiso   1.00
C274   C     0.37583   0.35423   0.24961   0.00000  Uiso   1.00
C275   C     0.66654   0.62391   0.24991   0.00000  Uiso   1.00
C276   C     0.33346   0.37609   0.25010   0.00000  Uiso   1.00
C277   C     0.51836   0.47251   0.27611   0.00000  Uiso   1.00
C278   C     0.48164   0.52751   0.22391   0.00000  Uiso   1.00
C279   C     0.46877   0.47211   0.27654   0.00000  Uiso   1.00
C280   C     0.53123   0.52791   0.22348   0.00000  Uiso   1.00
C281   C     0.63950   0.49950   0.33609   0.00000  Uiso   1.00
C282   C     0.36050   0.50016   0.16389   0.00000  Uiso   1.00
C283   C     0.62428   0.49567   0.38533   0.00000  Uiso   1.00
C284   C     0.37560   0.50112   0.11453   0.00000  Uiso   1.00
C285   C     0.63890   0.47365   0.45601   0.00000  Uiso   1.00
C286   C     0.35922   0.51422   0.04251   0.00000  Uiso   1.00
C287   C     0.65600   0.48159   0.40999   0.00000  Uiso   1.00
C288   C     0.34295   0.51052   0.08911   0.00000  Uiso   1.00
C289   C     0.57574   0.50272   0.40726   0.00000  Uiso   1.00
C290   C     0.42428   0.49423   0.09282   0.00000  Uiso   1.00
C291   C     0.55709   0.49346   0.45335   0.00000  Uiso   1.00
C292   C     0.44157   0.49695   0.04575   0.00000  Uiso   1.00
C293   C     0.58989   0.47944   0.47781   0.00000  Uiso   1.00
C294   C     0.40813   0.50783   0.02073   0.00000  Uiso   1.00
C295   C     0.50700   0.49757   0.47566   0.00000  Uiso   1.00
C296   C     0.49116   0.49038   0.02306   0.00000  Uiso   1.00
Cu297  Cu    0.38022   0.50001   0.25000   0.00000  Uiso   1.00
Cu298  Cu    0.61978   0.49999   0.25000   0.00000  Uiso   1.00
H299   H     0.59095   0.63008   0.25075   0.00000  Uiso   1.00
H300   H     0.40904   0.36992   0.24927   0.00000  Uiso   1.00
N301   N     0.45069   0.50001   0.24999   0.00000  Uiso   1.00
N302   N     0.54931   0.49999   0.25001   0.00000  Uiso   1.00
O303   O     0.37291   0.43989   0.25000   0.00000  Uiso   1.00
O304   O     0.62709   0.56011   0.25000   0.00000  Uiso   1.00
O305   O     0.62706   0.43988   0.25001   0.00000  Uiso   1.00
O306   O     0.37294   0.56012   0.24999   0.00000  Uiso   1.00
O307   O     0.35186   0.50001   0.31491   0.00000  Uiso   1.00
O308   O     0.64814   0.49999   0.18509   0.00000  Uiso   1.00
O309   O     0.60600   0.50000   0.31492   0.00000  Uiso   1.00
O310   O     0.39400   0.50000   0.18508   0.00000  Uiso   1.00
H311   H     0.59825   0.45984   0.04264   0.00000  Uiso   1.00
H312   H     0.39843   0.52058   0.45476   0.00000  Uiso   1.00
H313   H     0.44824   0.48789   0.11369   0.00000  Uiso   1.00
H314   H     0.55330   0.51553   0.38732   0.00000  Uiso   1.00
H315   H     0.63854   0.51614   0.10524   0.00000  Uiso   1.00
H316   H     0.36028   0.47574   0.39362   0.00000  Uiso   1.00
H317   H     0.66385   0.46215   0.47445   0.00000  Uiso   1.00
H318   H     0.33364   0.52278   0.02352   0.00000  Uiso   1.00
H319   H     0.51598   0.46822   0.08128   0.00000  Uiso   1.00
H320   H     0.48053   0.51133   0.41607   0.00000  Uiso   1.00
H321   H     0.59108   0.37131   0.25094   0.00000  Uiso   1.00
H322   H     0.40891   0.62869   0.24908   0.00000  Uiso   1.00
H323   H     0.53232   0.45095   0.29701   0.00000  Uiso   1.00
H324   H     0.46769   0.54907   0.20301   0.00000  Uiso   1.00
C325   C     0.43788   0.44091   0.30662   0.00000  Uiso   1.00
H326   H     0.39927   0.44267   0.31564   0.00000  Uiso   1.00
O327   O     0.45585   0.41194   0.32262   0.00000  Uiso   1.00
C328   C     0.56211   0.55914   0.19346   0.00000  Uiso   1.00
H329   H     0.60072   0.55722   0.18417   0.00000  Uiso   1.00
O330   O     0.54413   0.58831   0.17781   0.00000  Uiso   1.00
C331   C     0.66676   0.42074   0.25009   0.00000  Uiso   1.00
C332   C     0.99990   0.57926   0.24991   0.00000  Uiso   1.00
C333   C     0.85864   0.47638   0.04602   0.00000  Uiso   1.00
C334   C     0.80543   0.50771   0.45206   0.00000  Uiso   1.00
C335   C     0.90685   0.47089   0.02370   0.00000  Uiso   1.00
C336   C     0.75709   0.51258   0.47425   0.00000  Uiso   1.00
C337   C     0.95761   0.35501   0.25052   0.00000  Uiso   1.00
C338   C     0.70905   0.64499   0.24950   0.00000  Uiso   1.00
C339   C     0.95749   0.64577   0.25040   0.00000  Uiso   1.00
C340   C     0.70917   0.35423   0.24961   0.00000  Uiso   1.00
C341   C     0.99987   0.62391   0.24991   0.00000  Uiso   1.00
C342   C     0.66679   0.37609   0.25010   0.00000  Uiso   1.00
C343   C     0.85169   0.47251   0.27611   0.00000  Uiso   1.00
C344   C     0.81498   0.52751   0.22391   0.00000  Uiso   1.00
C345   C     0.80210   0.47211   0.27654   0.00000  Uiso   1.00
C346   C     0.86456   0.52791   0.22348   0.00000  Uiso   1.00
C347   C     0.97283   0.49950   0.33609   0.00000  Uiso   1.00
C348   C     0.69384   0.50016   0.16389   0.00000  Uiso   1.00
C349   C     0.95761   0.49567   0.38533   0.00000  Uiso   1.00
C350   C     0.70893   0.50112   0.11453   0.00000  Uiso   1.00
C351   C     0.97223   0.47365   0.45601   0.00000  Uiso   1.00
C352   C     0.69256   0.51422   0.04251   0.00000  Uiso   1.00
C353   C     0.98933   0.48159   0.40999   0.00000  Uiso   1.00
C354   C     0.67628   0.51052   0.08911   0.00000  Uiso   1.00
C355   C     0.90907   0.50272   0.40726   0.00000  Uiso   1.00
C356   C     0.75761   0.49423   0.09282   0.00000  Uiso   1.00
C357   C     0.89042   0.49346   0.45335   0.00000  Uiso   1.00
C358   C     0.77490   0.49695   0.04575   0.00000  Uiso   1.00
C359   C     0.92322   0.47944   0.47781   0.00000  Uiso   1.00
C360   C     0.74146   0.50783   0.02073   0.00000  Uiso   1.00
C361   C     0.84034   0.49757   0.47566   0.00000  Uiso   1.00
C362   C     0.82449   0.49038   0.02306   0.00000  Uiso   1.00
Cu363  Cu    0.71355   0.50001   0.25000   0.00000  Uiso   1.00
Cu364  Cu    0.95311   0.49999   0.25000   0.00000  Uiso   1.00
H365   H     0.92429   0.63008   0.25075   0.00000  Uiso   1.00
H366   H     0.74237   0.36992   0.24927   0.00000  Uiso   1.00
N367   N     0.78403   0.50001   0.24999   0.00000  Uiso   1.00
N368   N     0.88264   0.49999   0.25001   0.00000  Uiso   1.00
O369   O     0.70625   0.43989   0.25000   0.00000  Uiso   1.00
O370   O     0.96042   0.56011   0.25000   0.00000  Uiso   1.00
O371   O     0.96039   0.43988   0.25001   0.00000  Uiso   1.00
O372   O     0.70628   0.56012   0.24999   0.00000  Uiso   1.00
O373   O     0.68519   0.50001   0.31491   0.00000  Uiso   1.00
O374   O     0.98148   0.49999   0.18509   0.00000  Uiso   1.00
O375   O     0.93933   0.50000   0.31492   0.00000  Uiso   1.00
O376   O     0.72733   0.50000   0.18508   0.00000  Uiso   1.00
H377   H     0.93159   0.45984   0.04264   0.00000  Uiso   1.00
H378   H     0.73176   0.52058   0.45476   0.00000  Uiso   1.00
H379   H     0.78158   0.48789   0.11369   0.00000  Uiso   1.00
H380   H     0.88663   0.51553   0.38732   0.00000  Uiso   1.00
H381   H     0.97187   0.51614   0.10524   0.00000  Uiso   1.00
H382   H     0.69362   0.47574   0.39362   0.00000  Uiso   1.00
H383   H     0.99719   0.46215   0.47445   0.00000  Uiso   1.00
H384   H     0.66698   0.52278   0.02352   0.00000  Uiso   1.00
H385   H     0.84932   0.46822   0.08128   0.00000  Uiso   1.00
H386   H     0.81387   0.51133   0.41607   0.00000  Uiso   1.00
H387   H     0.92441   0.37131   0.25094   0.00000  Uiso   1.00
H388   H     0.74225   0.62869   0.24908   0.00000  Uiso   1.00
H389   H     0.86565   0.45095   0.29701   0.00000  Uiso   1.00
H390   H     0.80102   0.54907   0.20301   0.00000  Uiso   1.00
C391   C     0.77122   0.44091   0.30662   0.00000  Uiso   1.00
H392   H     0.73260   0.44267   0.31564   0.00000  Uiso   1.00
O393   O     0.78918   0.41194   0.32262   0.00000  Uiso   1.00
C394   C     0.89544   0.55914   0.19346   0.00000  Uiso   1.00
H395   H     0.93405   0.55722   0.18417   0.00000  Uiso   1.00
O396   O     0.87746   0.58831   0.17781   0.00000  Uiso   1.00
C397   C     0.00010   0.75407   0.25009   0.00000  Uiso   1.00
C398   C     0.33324   0.91259   0.24991   0.00000  Uiso   1.00
C399   C     0.19197   0.80971   0.04602   0.00000  Uiso   1.00
C400   C     0.13877   0.84104   0.45206   0.00000  Uiso   1.00
C401   C     0.24019   0.80423   0.02370   0.00000  Uiso   1.00
C402   C     0.09042   0.84592   0.47425   0.00000  Uiso   1.00
C403   C     0.29095   0.68834   0.25052   0.00000  Uiso   1.00
C404   C     0.04238   0.97832   0.24950   0.00000  Uiso   1.00
C405   C     0.29083   0.97910   0.25040   0.00000  Uiso   1.00
C406   C     0.04250   0.68757   0.24961   0.00000  Uiso   1.00
C407   C     0.33320   0.95724   0.24991   0.00000  Uiso   1.00
C408   C     0.00013   0.70943   0.25010   0.00000  Uiso   1.00
C409   C     0.18502   0.80584   0.27611   0.00000  Uiso   1.00
C410   C     0.14831   0.86084   0.22391   0.00000  Uiso   1.00
C411   C     0.13543   0.80544   0.27654   0.00000  Uiso   1.00
C412   C     0.19790   0.86124   0.22348   0.00000  Uiso   1.00
C413   C     0.30617   0.83283   0.33609   0.00000  Uiso   1.00
C414   C     0.02717   0.83350   0.16389   0.00000  Uiso   1.00
C415   C     0.29095   0.82900   0.38533   0.00000  Uiso   1.00
C416   C     0.04226   0.83445   0.11453   0.00000  Uiso   1.00
C417   C     0.30556   0.80698   0.45601   0.00000  Uiso   1.00
C418   C     0.02589   0.84756   0.04251   0.00000  Uiso   1.00
C419   C     0.32267   0.81492   0.40999   0.00000  Uiso   1.00
C420   C     0.00961   0.84385   0.08911   0.00000  Uiso   1.00
C421   C     0.24241   0.83606   0.40726   0.00000  Uiso   1.00
C422   C     0.09095   0.82756   0.09282   0.00000  Uiso   1.00
C423   C     0.22375   0.82680   0.45335   0.00000  Uiso   1.00
C424   C     0.10823   0.83029   0.04575   0.00000  Uiso   1.00
C425   C     0.25656   0.81277   0.47781   0.00000  Uiso   1.00
C426   C     0.07479   0.84117   0.02073   0.00000  Uiso   1.00
C427   C     0.17367   0.83090   0.47566   0.00000  Uiso   1.00
C428   C     0.15783   0.82372   0.02306   0.00000  Uiso   1.00
Cu429  Cu    0.04689   0.83334   0.25000   0.00000  Uiso   1.00
Cu430  Cu    0.28645   0.83333   0.25000   0.00000  Uiso   1.00
H431   H     0.25762   0.96341   0.25075   0.00000  Uiso   1.00
H432   H     0.07571   0.70326   0.24927   0.00000  Uiso   1.00
N433   N     0.11736   0.83334   0.24999   0.00000  Uiso   1.00
N434   N     0.21597   0.83332   0.25001   0.00000  Uiso   1.00
O435   O     0.03958   0.77322   0.25000   0.00000  Uiso   1.00
O436   O     0.29375   0.89345   0.25000   0.00000  Uiso   1.00
O437   O     0.29372   0.77321   0.25001   0.00000  Uiso   1.00
O438   O     0.03961   0.89346   0.24999   0.00000  Uiso   1.00
O439   O     0.01852   0.83334   0.31491   0.00000  Uiso   1.00
O440   O     0.31481   0.83332   0.18509   0.00000  Uiso   1.00
O441   O     0.27267   0.83333   0.31492   0.00000  Uiso   1.00
O442   O     0.06067   0.83333   0.18508   0.00000  Uiso   1.00
H443   H     0.26492   0.79318   0.04264   0.00000  Uiso   1.00
H444   H     0.06509   0.85391   0.45476   0.00000  Uiso   1.00
H445   H     0.11491   0.82123   0.11369   0.00000  Uiso   1.00
H446   H     0.21997   0.84887   0.38732   0.00000  Uiso   1.00
H447   H     0.30520   0.84947   0.10524   0.00000  Uiso   1.00
H448   H     0.02695   0.80907   0.39362   0.00000  Uiso   1.00
H449   H     0.33052   0.79548   0.47445   0.00000  Uiso   1.00
H450   H     0.00031   0.85611   0.02352   0.00000  Uiso   1.00
H451   H     0.18265   0.80155   0.08128   0.00000  Uiso   1.00
H452   H     0.14720   0.84466   0.41607   0.00000  Uiso   1.00
H453   H     0.25775   0.70465   0.25094   0.00000  Uiso   1.00
H454   H     0.07558   0.96202   0.24908   0.00000  Uiso   1.00
H455   H     0.19899   0.78428   0.29701   0.00000  Uiso   1.00
H456   H     0.13435   0.88241   0.20301   0.00000  Uiso   1.00
C457   C     0.10455   0.77424   0.30662   0.00000  Uiso   1.00
H458   H     0.06594   0.77601   0.31564   0.00000  Uiso   1.00
O459   O     0.12251   0.74528   0.32262   0.00000  Uiso   1.00
C460   C     0.22877   0.89248   0.19346   0.00000  Uiso   1.00
H461   H     0.26738   0.89055   0.18417   0.00000  Uiso   1.00
O462   O     0.21079   0.92165   0.17781   0.00000  Uiso   1.00
C463   C     0.33343   0.75407   0.25009   0.00000  Uiso   1.00
C464   C     0.66657   0.91259   0.24991   0.00000  Uiso   1.00
C465   C     0.52530   0.80971   0.04602   0.00000  Uiso   1.00
C466   C     0.47210   0.84104   0.45206   0.00000  Uiso   1.00
C467   C     0.57352   0.80423   0.02370   0.00000  Uiso   1.00
C468   C     0.42375   0.84592   0.47425   0.00000  Uiso   1.00
C469   C     0.62428   0.68834   0.25052   0.00000  Uiso   1.00
C470   C     0.37572   0.97832   0.24950   0.00000  Uiso   1.00
C471   C     0.62416   0.97910   0.25040   0.00000  Uiso   1.00
C472   C     0.37583   0.68757   0.24961   0.00000  Uiso   1.00
C473   C     0.66654   0.95724   0.24991   0.00000  Uiso   1.00
C474   C     0.33346   0.70943   0.25010   0.00000  Uiso   1.00
C475   C     0.51836   0.80584   0.27611   0.00000  Uiso   1.00
C476   C     0.48164   0.86084   0.22391   0.00000  Uiso   1.00
C477   C     0.46877   0.80544   0.27654   0.00000  Uiso   1.00
C478   C     0.53123   0.86124   0.22348   0.00000  Uiso   1.00
C479   C     0.63950   0.83283   0.33609   0.00000  Uiso   1.00
C480   C     0.36050   0.83350   0.16389   0.00000  Uiso   1.00
C481   C     0.62428   0.82900   0.38533   0.00000  Uiso   1.00
C482   C     0.37560   0.83445   0.11453   0.00000  Uiso   1.00
C483   C     0.63890   0.80698   0.45601   0.00000  Uiso   1.00
C484   C     0.35922   0.84756   0.04251   0.00000  Uiso   1.00
C485   C     0.65600   0.81492   0.40999   0.00000  Uiso   1.00
C486   C     0.34295   0.84385   0.08911   0.00000  Uiso   1.00
C487   C     0.57574   0.83606   0.40726   0.00000  Uiso   1.00
C488   C     0.42428   0.82756   0.09282   0.00000  Uiso   1.00
C489   C     0.55709   0.82680   0.45335   0.00000  Uiso   1.00
C490   C     0.44157   0.83029   0.04575   0.00000  Uiso   1.00
C491   C     0.58989   0.81277   0.47781   0.00000  Uiso   1.00
C492   C     0.40813   0.84117   0.02073   0.00000  Uiso   1.00
C493   C     0.50700   0.83090   0.47566   0.00000  Uiso   1.00
C494   C     0.49116   0.82372   0.02306   0.00000  Uiso   1.00
Cu495  Cu    0.38022   0.83334   0.25000   0.00000  Uiso   1.00
Cu496  Cu    0.61978   0.83333   0.25000   0.00000  Uiso   1.00
H497   H     0.59095   0.96341   0.25075   0.00000  Uiso   1.00
H498   H     0.40904   0.70326   0.24927   0.00000  Uiso   1.00
N499   N     0.45069   0.83334   0.24999   0.00000  Uiso   1.00
N500   N     0.54931   0.83332   0.25001   0.00000  Uiso   1.00
O501   O     0.37291   0.77322   0.25000   0.00000  Uiso   1.00
O502   O     0.62709   0.89345   0.25000   0.00000  Uiso   1.00
O503   O     0.62706   0.77321   0.25001   0.00000  Uiso   1.00
O504   O     0.37294   0.89346   0.24999   0.00000  Uiso   1.00
O505   O     0.35186   0.83334   0.31491   0.00000  Uiso   1.00
O506   O     0.64814   0.83332   0.18509   0.00000  Uiso   1.00
O507   O     0.60600   0.83333   0.31492   0.00000  Uiso   1.00
O508   O     0.39400   0.83333   0.18508   0.00000  Uiso   1.00
H509   H     0.59825   0.79318   0.04264   0.00000  Uiso   1.00
H510   H     0.39843   0.85391   0.45476   0.00000  Uiso   1.00
H511   H     0.44824   0.82123   0.11369   0.00000  Uiso   1.00
H512   H     0.55330   0.84887   0.38732   0.00000  Uiso   1.00
H513   H     0.63854   0.84947   0.10524   0.00000  Uiso   1.00
H514   H     0.36028   0.80907   0.39362   0.00000  Uiso   1.00
H515   H     0.66385   0.79548   0.47445   0.00000  Uiso   1.00
H516   H     0.33364   0.85611   0.02352   0.00000  Uiso   1.00
H517   H     0.51598   0.80155   0.08128   0.00000  Uiso   1.00
H518   H     0.48053   0.84466   0.41607   0.00000  Uiso   1.00
H519   H     0.59108   0.70465   0.25094   0.00000  Uiso   1.00
H520   H     0.40891   0.96202   0.24908   0.00000  Uiso   1.00
H521   H     0.53232   0.78428   0.29701   0.00000  Uiso   1.00
H522   H     0.46769   0.88241   0.20301   0.00000  Uiso   1.00
C523   C     0.43788   0.77424   0.30662   0.00000  Uiso   1.00
H524   H     0.39927   0.77601   0.31564   0.00000  Uiso   1.00
O525   O     0.45585   0.74528   0.32262   0.00000  Uiso   1.00
C526   C     0.56211   0.89248   0.19346   0.00000  Uiso   1.00
H527   H     0.60072   0.89055   0.18417   0.00000  Uiso   1.00
O528   O     0.54413   0.92165   0.17781   0.00000  Uiso   1.00
C529   C     0.66676   0.75407   0.25009   0.00000  Uiso   1.00
C530   C     0.99990   0.91259   0.24991   0.00000  Uiso   1.00
C531   C     0.85864   0.80971   0.04602   0.00000  Uiso   1.00
C532   C     0.80543   0.84104   0.45206   0.00000  Uiso   1.00
C533   C     0.90685   0.80423   0.02370   0.00000  Uiso   1.00
C534   C     0.75709   0.84592   0.47425   0.00000  Uiso   1.00
C535   C     0.95761   0.68834   0.25052   0.00000  Uiso   1.00
C536   C     0.70905   0.97832   0.24950   0.00000  Uiso   1.00
C537   C     0.95749   0.97910   0.25040   0.00000  Uiso   1.00
C538   C     0.70917   0.68757   0.24961   0.00000  Uiso   1.00
C539   C     0.99987   0.95724   0.24991   0.00000  Uiso   1.00
C540   C     0.66679   0.70943   0.25010   0.00000  Uiso   1.00
C541   C     0.85169   0.80584   0.27611   0.00000  Uiso   1.00
C542   C     0.81498   0.86084   0.22391   0.00000  Uiso   1.00
C543   C     0.80210   0.80544   0.27654   0.00000  Uiso   1.00
C544   C     0.86456   0.86124   0.22348   0.00000  Uiso   1.00
C545   C     0.97283   0.83283   0.33609   0.00000  Uiso   1.00
C546   C     0.69384   0.83350   0.16389   0.00000  Uiso   1.00
C547   C     0.95761   0.82900   0.38533   0.00000  Uiso   1.00
C548   C     0.70893   0.83445   0.11453   0.00000  Uiso   1.00
C549   C     0.97223   0.80698   0.45601   0.00000  Uiso   1.00
C550   C     0.69256   0.84756   0.04251   0.00000  Uiso   1.00
C551   C     0.98933   0.81492   0.40999   0.00000  Uiso   1.00
C552   C     0.67628   0.84385   0.08911   0.00000  Uiso   1.00
C553   C     0.90907   0.83606   0.40726   0.00000  Uiso   1.00
C554   C     0.75761   0.82756   0.09282   0.00000  Uiso   1.00
C555   C     0.89042   0.82680   0.45335   0.00000  Uiso   1.00
C556   C     0.77490   0.83029   0.04575   0.00000  Uiso   1.00
C557   C     0.92322   0.81277   0.47781   0.00000  Uiso   1.00
C558   C     0.74146   0.84117   0.02073   0.00000  Uiso   1.00
C559   C     0.84034   0.83090   0.47566   0.00000  Uiso   1.00
C560   C     0.82449   0.82372   0.02306   0.00000  Uiso   1.00
Cu561  Cu    0.71355   0.83334   0.25000   0.00000  Uiso   1.00
Cu562  Cu    0.95311   0.83333   0.25000   0.00000  Uiso   1.00
H563   H     0.92429   0.96341   0.25075   0.00000  Uiso   1.00
H564   H     0.74237   0.70326   0.24927   0.00000  Uiso   1.00
N565   N     0.78403   0.83334   0.24999   0.00000  Uiso   1.00
N566   N     0.88264   0.83332   0.25001   0.00000  Uiso   1.00
O567   O     0.70625   0.77322   0.25000   0.00000  Uiso   1.00
O568   O     0.96042   0.89345   0.25000   0.00000  Uiso   1.00
O569   O     0.96039   0.77321   0.25001   0.00000  Uiso   1.00
O570   O     0.70628   0.89346   0.24999   0.00000  Uiso   1.00
O571   O     0.68519   0.83334   0.31491   0.00000  Uiso   1.00
O572   O     0.98148   0.83332   0.18509   0.00000  Uiso   1.00
O573   O     0.93933   0.83333   0.31492   0.00000  Uiso   1.00
O574   O     0.72733   0.83333   0.18508   0.00000  Uiso   1.00
H575   H     0.93159   0.79318   0.04264   0.00000  Uiso   1.00
H576   H     0.73176   0.85391   0.45476   0.00000  Uiso   1.00
H577   H     0.78158   0.82123   0.11369   0.00000  Uiso   1.00
H578   H     0.88663   0.84887   0.38732   0.00000  Uiso   1.00
H579   H     0.97187   0.84947   0.10524   0.00000  Uiso   1.00
H580   H     0.69362   0.80907   0.39362   0.00000  Uiso   1.00
H581   H     0.99719   0.79548   0.47445   0.00000  Uiso   1.00
H582   H     0.66698   0.85611   0.02352   0.00000  Uiso   1.00
H583   H     0.84932   0.80155   0.08128   0.00000  Uiso   1.00
H584   H     0.81387   0.84466   0.41607   0.00000  Uiso   1.00
H585   H     0.92441   0.70465   0.25094   0.00000  Uiso   1.00
H586   H     0.74225   0.96202   0.24908   0.00000  Uiso   1.00
H587   H     0.86565   0.78428   0.29701   0.00000  Uiso   1.00
H588   H     0.80102   0.88241   0.20301   0.00000  Uiso   1.00
C589   C     0.77122   0.77424   0.30662   0.00000  Uiso   1.00
H590   H     0.73260   0.77601   0.31564   0.00000  Uiso   1.00
O591   O     0.78918   0.74528   0.32262   0.00000  Uiso   1.00
C592   C     0.89544   0.89248   0.19346   0.00000  Uiso   1.00
H593   H     0.93405   0.89055   0.18417   0.00000  Uiso   1.00
O594   O     0.87746   0.92165   0.17781   0.00000  Uiso   1.00
C595   C     0.00010   0.08741   0.75009   0.00000  Uiso   1.00
C596   C     0.33324   0.24593   0.74991   0.00000  Uiso   1.00
C597   C     0.19197   0.14305   0.54602   0.00000  Uiso   1.00
C598   C     0.13877   0.17438   0.95206   0.00000  Uiso   1.00
C599   C     0.24019   0.13756   0.52370   0.00000  Uiso   1.00
C600   C     0.09042   0.17925   0.97425   0.00000  Uiso   1.00
C601   C     0.29095   0.02168   0.75052   0.00000  Uiso   1.00
C602   C     0.04238   0.31166   0.74950   0.00000  Uiso   1.00
C603   C     0.29083   0.31243   0.75040   0.00000  Uiso   1.00
C604   C     0.04250   0.02090   0.74961   0.00000  Uiso   1.00
C605   C     0.33320   0.29057   0.74991   0.00000  Uiso   1.00
C606   C     0.00013   0.04276   0.75010   0.00000  Uiso   1.00
C607   C     0.18502   0.13917   0.77611   0.00000  Uiso   1.00
C608   C     0.14831   0.19417   0.72391   0.00000  Uiso   1.00
C609   C     0.13543   0.13877   0.77654   0.00000  Uiso   1.00
C610   C     0.19790   0.19457   0.72348   0.00000  Uiso   1.00
C611   C     0.30617   0.16617   0.83609   0.00000  Uiso   1.00
C612   C     0.02717   0.16683   0.66389   0.00000  Uiso   1.00
C613   C     0.29095   0.16234   0.88533   0.00000  Uiso   1.00
C614   C     0.04226   0.16778   0.61453   0.00000  Uiso   1.00
C615   C     0.30556   0.14031   0.95601   0.00000  Uiso   1.00
C616   C     0.02589   0.18089   0.54251   0.00000  Uiso   1.00
C617   C     0.32267   0.14826   0.90999   0.00000  Uiso   1.00
C618   C     0.00961   0.17719   0.58911   0.00000  Uiso   1.00
C619   C     0.24241   0.16939   0.90726   0.00000  Uiso   1.00
C620   C     0.09095   0.16090   0.59282   0.00000  Uiso   1.00
C621   C     0.22375   0.16013   0.95335   0.00000  Uiso   1.00
C622   C     0.10823   0.16362   0.54575   0.00000  Uiso   1.00
C623   C     0.25656   0.14611   0.97781   0.00000  Uiso   1.00
C624   C     0.07479   0.17450   0.52073   0.00000  Uiso   1.00
C625   C     0.17367   0.16424   0.97566   0.00000  Uiso   1.00
C626   C     0.15783   0.15705   0.52306   0.00000  Uiso   1.00
Cu627  Cu    0.04689   0.16667   0.75000   0.00000  Uiso   1.00
Cu628  Cu    0.28645   0.16666   0.75000   0.00000  Uiso   1.00
H629   H     0.25762   0.29675   0.75075   0.00000  Uiso   1.00
H630   H     0.07571   0.03659   0.74927   0.00000  Uiso   1.00
N631   N     0.11736   0.16668   0.74999   0.00000  Uiso   1.00
N632   N     0.21597   0.16666   0.75001   0.00000  Uiso   1.00
O633   O     0.03958   0.10655   0.75000   0.00000  Uiso   1.00
O634   O     0.29375   0.22678   0.75000   0.00000  Uiso   1.00
O635   O     0.29372   0.10654   0.75001   0.00000  Uiso   1.00
O636   O     0.03961   0.22679   0.74999   0.00000  Uiso   1.00
O637   O     0.01852   0.16668   0.81491   0.00000  Uiso   1.00
O638   O     0.31481   0.16666   0.68509   0.00000  Uiso   1.00
O639   O     0.27267   0.16667   0.81492   0.00000  Uiso   1.00
O640   O     0.06067   0.16667   0.68508   0.00000  Uiso   1.00
H641   H     0.26492   0.12651   0.54264   0.00000  Uiso   1.00
H642   H     0.06509   0.18724   0.95476   0.00000  Uiso   1.00
H643   H     0.11491   0.15456   0.61369   0.00000  Uiso   1.00
H644   H     0.21997   0.18220   0.88732   0.00000  Uiso   1.00
H645   H     0.30520   0.18280   0.60524   0.00000  Uiso   1.00
H646   H     0.02695   0.14240   0.89362   0.00000  Uiso   1.00
H647   H     0.33052   0.12881   0.97445   0.00000  Uiso   1.00
H648   H     0.00031   0.18944   0.52352   0.00000  Uiso   1.00
H649   H     0.18265   0.13489   0.58128   0.00000  Uiso   1.00
H650   H     0.14720   0.17800   0.91607   0.00000  Uiso   1.00
H651   H     0.25775   0.03798   0.75094   0.00000  Uiso   1.00
H652   H     0.07558   0.29535   0.74908   0.00000  Uiso   1.00
H653   H     0.19899   0.11761   0.79701   0.00000  Uiso   1.00
H654   H     0.13435   0.21574   0.70301   0.00000  Uiso   1.00
C655   C     0.10455   0.10757   0.80662   0.00000  Uiso   1.00
H656   H     0.06594   0.10934   0.81564   0.00000  Uiso   1.00
O657   O     0.12251   0.07861   0.82262   0.00000  Uiso   1.00
C658   C     0.22877   0.22581   0.69346   0.00000  Uiso   1.00
H659   H     0.26738   0.22389   0.68417   0.00000  Uiso   1.00
O660   O     0.21079   0.25498   0.67781   0.00000  Uiso   1.00
C661   C     0.33343   0.08741   0.75009   0.00000  Uiso   1.00
C662   C     0.66657   0.24593   0.74991   0.00000  Uiso   1.00
C663   C     0.52530   0.14305   0.54602   0.00000  Uiso   1.00
C664   C     0.47210   0.17438   0.95206   0.00000  Uiso   1.00
C665   C     0.57352   0.13756   0.52370   0.00000  Uiso   1.00
C666   C     0.42375   0.17925   0.97425   0.00000  Uiso   1.00
C667   C     0.62428   0.02168   0.75052   0.00000  Uiso   1.00
C668   C     0.37572   0.31166   0.74950   0.00000  Uiso   1.00
C669   C     0.62416   0.31243   0.75040   0.00000  Uiso   1.00
C670   C     0.37583   0.02090   0.74961   0.00000  Uiso   1.00
C671   C     0.66654   0.29057   0.74991   0.00000  Uiso   1.00
C672   C     0.33346   0.04276   0.75010   0.00000  Uiso   1.00
C673   C     0.51836   0.13917   0.77611   0.00000  Uiso   1.00
C674   C     0.48164   0.19417   0.72391   0.00000  Uiso   1.00
C675   C     0.46877   0.13877   0.77654   0.00000  Uiso   1.00
C676   C     0.53123   0.19457   0.72348   0.00000  Uiso   1.00
C677   C     0.63950   0.16617   0.83609   0.00000  Uiso   1.00
C678   C     0.36050   0.16683   0.66389   0.00000  Uiso   1.00
C679   C     0.62428   0.16234   0.88533   0.00000  Uiso   1.00
C680   C     0.37560   0.16778   0.61453   0.00000  Uiso   1.00
C681   C     0.63890   0.14031   0.95601   0.00000  Uiso   1.00
C682   C     0.35922   0.18089   0.54251   0.00000  Uiso   1.00
C683   C     0.65600   0.14826   0.90999   0.00000  Uiso   1.00
C684   C     0.34295   0.17719   0.58911   0.00000  Uiso   1.00
C685   C     0.57574   0.16939   0.90726   0.00000  Uiso   1.00
C686   C     0.42428   0.16090   0.59282   0.00000  Uiso   1.00
C687   C     0.55709   0.16013   0.95335   0.00000  Uiso   1.00
C688   C     0.44157   0.16362   0.54575   0.00000  Uiso   1.00
C689   C     0.58989   0.14611   0.97781   0.00000  Uiso   1.00
C690   C     0.40813   0.17450   0.52073   0.00000  Uiso   1.00
C691   C     0.50700   0.16424   0.97566   0.00000  Uiso   1.00
C692   C     0.49116   0.15705   0.52306   0.00000  Uiso   1.00
Cu693  Cu    0.38022   0.16667   0.75000   0.00000  Uiso   1.00
Cu694  Cu    0.61978   0.16666   0.75000   0.00000  Uiso   1.00
H695   H     0.59095   0.29675   0.75075   0.00000  Uiso   1.00
H696   H     0.40904   0.03659   0.74927   0.00000  Uiso   1.00
N697   N     0.45069   0.16668   0.74999   0.00000  Uiso   1.00
N698   N     0.54931   0.16666   0.75001   0.00000  Uiso   1.00
O699   O     0.37291   0.10655   0.75000   0.00000  Uiso   1.00
O700   O     0.62709   0.22678   0.75000   0.00000  Uiso   1.00
O701   O     0.62706   0.10654   0.75001   0.00000  Uiso   1.00
O702   O     0.37294   0.22679   0.74999   0.00000  Uiso   1.00
O703   O     0.35186   0.16668   0.81491   0.00000  Uiso   1.00
O704   O     0.64814   0.16666   0.68509   0.00000  Uiso   1.00
O705   O     0.60600   0.16667   0.81492   0.00000  Uiso   1.00
O706   O     0.39400   0.16667   0.68508   0.00000  Uiso   1.00
H707   H     0.59825   0.12651   0.54264   0.00000  Uiso   1.00
H708   H     0.39843   0.18724   0.95476   0.00000  Uiso   1.00
H709   H     0.44824   0.15456   0.61369   0.00000  Uiso   1.00
H710   H     0.55330   0.18220   0.88732   0.00000  Uiso   1.00
H711   H     0.63854   0.18280   0.60524   0.00000  Uiso   1.00
H712   H     0.36028   0.14240   0.89362   0.00000  Uiso   1.00
H713   H     0.66385   0.12881   0.97445   0.00000  Uiso   1.00
H714   H     0.33364   0.18944   0.52352   0.00000  Uiso   1.00
H715   H     0.51598   0.13489   0.58128   0.00000  Uiso   1.00
H716   H     0.48053   0.17800   0.91607   0.00000  Uiso   1.00
H717   H     0.59108   0.03798   0.75094   0.00000  Uiso   1.00
H718   H     0.40891   0.29535   0.74908   0.00000  Uiso   1.00
H719   H     0.53232   0.11761   0.79701   0.00000  Uiso   1.00
H720   H     0.46769   0.21574   0.70301   0.00000  Uiso   1.00
C721   C     0.43788   0.10757   0.80662   0.00000  Uiso   1.00
H722   H     0.39927   0.10934   0.81564   0.00000  Uiso   1.00
O723   O     0.45585   0.07861   0.82262   0.00000  Uiso   1.00
C724   C     0.56211   0.22581   0.69346   0.00000  Uiso   1.00
H725   H     0.60072   0.22389   0.68417   0.00000  Uiso   1.00
O726   O     0.54413   0.25498   0.67781   0.00000  Uiso   1.00
C727   C     0.66676   0.08741   0.75009   0.00000  Uiso   1.00
C728   C     0.99990   0.24593   0.74991   0.00000  Uiso   1.00
C729   C     0.85864   0.14305   0.54602   0.00000  Uiso   1.00
C730   C     0.80543   0.17438   0.95206   0.00000  Uiso   1.00
C731   C     0.90685   0.13756   0.52370   0.00000  Uiso   1.00
C732   C     0.75709   0.17925   0.97425   0.00000  Uiso   1.00
C733   C     0.95761   0.02168   0.75052   0.00000  Uiso   1.00
C734   C     0.70905   0.31166   0.74950   0.00000  Uiso   1.00
C735   C     0.95749   0.31243   0.75040   0.00000  Uiso   1.00
C736   C     0.70917   0.02090   0.74961   0.00000  Uiso   1.00
C737   C     0.99987   0.29057   0.74991   0.00000  Uiso   1.00
C738   C     0.66679   0.04276   0.75010   0.00000  Uiso   1.00
C739   C     0.85169   0.13917   0.77611   0.00000  Uiso   1.00
C740   C     0.81498   0.19417   0.72391   0.00000  Uiso   1.00
C741   C     0.80210   0.13877   0.77654   0.00000  Uiso   1.00
C742   C     0.86456   0.19457   0.72348   0.00000  Uiso   1.00
C743   C     0.97283   0.16617   0.83609   0.00000  Uiso   1.00
C744   C     0.69384   0.16683   0.66389   0.00000  Uiso   1.00
C745   C     0.95761   0.16234   0.88533   0.00000  Uiso   1.00
C746   C     0.70893   0.16778   0.61453   0.00000  Uiso   1.00
C747   C     0.97223   0.14031   0.95601   0.00000  Uiso   1.00
C748   C     0.69256   0.18089   0.54251   0.00000  Uiso   1.00
C749   C     0.98933   0.14826   0.90999   0.00000  Uiso   1.00
C750   C     0.67628   0.17719   0.58911   0.00000  Uiso   1.00
C751   C     0.90907   0.16939   0.90726   0.00000  Uiso   1.00
C752   C     0.75761   0.16090   0.59282   0.00000  Uiso   1.00
C753   C     0.89042   0.16013   0.95335   0.00000  Uiso   1.00
C754   C     0.77490   0.16362   0.54575   0.00000  Uiso   1.00
C755   C     0.92322   0.14611   0.97781   0.00000  Uiso   1.00
C756   C     0.74146   0.17450   0.52073   0.00000  Uiso   1.00
C757   C     0.84034   0.16424   0.97566   0.00000  Uiso   1.00
C758   C     0.82449   0.15705   0.52306   0.00000  Uiso   1.00
Cu759  Cu    0.71355   0.16667   0.75000   0.00000  Uiso   1.00
Cu760  Cu    0.95311   0.16666   0.75000   0.00000  Uiso   1.00
H761   H     0.92429   0.29675   0.75075   0.00000  Uiso   1.00
H762   H     0.74237   0.03659   0.74927   0.00000  Uiso   1.00
N763   N     0.78403   0.16668   0.74999   0.00000  Uiso   1.00
N764   N     0.88264   0.16666   0.75001   0.00000  Uiso   1.00
O765   O     0.70625   0.10655   0.75000   0.00000  Uiso   1.00
O766   O     0.96042   0.22678   0.75000   0.00000  Uiso   1.00
O767   O     0.96039   0.10654   0.75001   0.00000  Uiso   1.00
O768   O     0.70628   0.22679   0.74999   0.00000  Uiso   1.00
O769   O     0.68519   0.16668   0.81491   0.00000  Uiso   1.00
O770   O     0.98148   0.16666   0.68509   0.00000  Uiso   1.00
O771   O     0.93933   0.16667   0.81492   0.00000  Uiso   1.00
O772   O     0.72733   0.16667   0.68508   0.00000  Uiso   1.00
H773   H     0.93159   0.12651   0.54264   0.00000  Uiso   1.00
H774   H     0.73176   0.18724   0.95476   0.00000  Uiso   1.00
H775   H     0.78158   0.15456   0.61369   0.00000  Uiso   1.00
H776   H     0.88663   0.18220   0.88732   0.00000  Uiso   1.00
H777   H     0.97187   0.18280   0.60524   0.00000  Uiso   1.00
H778   H     0.69362   0.14240   0.89362   0.00000  Uiso   1.00
H779   H     0.99719   0.12881   0.97445   0.00000  Uiso   1.00
H780   H     0.66698   0.18944   0.52352   0.00000  Uiso   1.00
H781   H     0.84932   0.13489   0.58128   0.00000  Uiso   1.00
H782   H     0.81387   0.17800   0.91607   0.00000  Uiso   1.00
H783   H     0.92441   0.03798   0.75094   0.00000  Uiso   1.00
H784   H     0.74225   0.29535   0.74908   0.00000  Uiso   1.00
H785   H     0.86565   0.11761   0.79701   0.00000  Uiso   1.00
H786   H     0.80102   0.21574   0.70301   0.00000  Uiso   1.00
C787   C     0.77122   0.10757   0.80662   0.00000  Uiso   1.00
H788   H     0.73260   0.10934   0.81564   0.00000  Uiso   1.00
O789   O     0.78918   0.07861   0.82262   0.00000  Uiso   1.00
C790   C     0.89544   0.22581   0.69346   0.00000  Uiso   1.00
H791   H     0.93405   0.22389   0.68417   0.00000  Uiso   1.00
O792   O     0.87746   0.25498   0.67781   0.00000  Uiso   1.00
C793   C     0.00010   0.42074   0.75009   0.00000  Uiso   1.00
C794   C     0.33324   0.57926   0.74991   0.00000  Uiso   1.00
C795   C     0.19197   0.47638   0.54602   0.00000  Uiso   1.00
C796   C     0.13877   0.50771   0.95206   0.00000  Uiso   1.00
C797   C     0.24019   0.47089   0.52370   0.00000  Uiso   1.00
C798   C     0.09042   0.51258   0.97425   0.00000  Uiso   1.00
C799   C     0.29095   0.35501   0.75052   0.00000  Uiso   1.00
C800   C     0.04238   0.64499   0.74950   0.00000  Uiso   1.00
C801   C     0.29083   0.64577   0.75040   0.00000  Uiso   1.00
C802   C     0.04250   0.35423   0.74961   0.00000  Uiso   1.00
C803   C     0.33320   0.62391   0.74991   0.00000  Uiso   1.00
C804   C     0.00013   0.37609   0.75010   0.00000  Uiso   1.00
C805   C     0.18502   0.47251   0.77611   0.00000  Uiso   1.00
C806   C     0.14831   0.52751   0.72391   0.00000  Uiso   1.00
C807   C     0.13543   0.47211   0.77654   0.00000  Uiso   1.00
C808   C     0.19790   0.52791   0.72348   0.00000  Uiso   1.00
C809   C     0.30617   0.49950   0.83609   0.00000  Uiso   1.00
C810   C     0.02717   0.50016   0.66389   0.00000  Uiso   1.00
C811   C     0.29095   0.49567   0.88533   0.00000  Uiso   1.00
C812   C     0.04226   0.50112   0.61453   0.00000  Uiso   1.00
C813   C     0.30556   0.47365   0.95601   0.00000  Uiso   1.00
C814   C     0.02589   0.51422   0.54251   0.00000  Uiso   1.00
C815   C     0.32267   0.48159   0.90999   0.00000  Uiso   1.00
C816   C     0.00961   0.51052   0.58911   0.00000  Uiso   1.00
C817   C     0.24241   0.50272   0.90726   0.00000  Uiso   1.00
C818   C     0.09095   0.49423   0.59282   0.00000  Uiso   1.00
C819   C     0.22375   0.49346   0.95335   0.00000  Uiso   1.00
C820   C     0.10823   0.49695   0.54575   0.00000  Uiso   1.00
C821   C     0.25656   0.47944   0.97781   0.00000  Uiso   1.00
C822   C     0.07479   0.50783   0.52073   0.00000  Uiso   1.00
C823   C     0.17367   0.49757   0.97566   0.00000  Uiso   1.00
C824   C     0.15783   0.49038   0.52306   0.00000  Uiso   1.00
Cu825  Cu    0.04689   0.50001   0.75000   0.00000  Uiso   1.00
Cu826  Cu    0.28645   0.49999   0.75000   0.00000  Uiso   1.00
H827   H     0.25762   0.63008   0.75075   0.00000  Uiso   1.00
H828   H     0.07571   0.36992   0.74927   0.00000  Uiso   1.00
N829   N     0.11736   0.50001   0.74999   0.00000  Uiso   1.00
N830   N     0.21597   0.49999   0.75001   0.00000  Uiso   1.00
O831   O     0.03958   0.43989   0.75000   0.00000  Uiso   1.00
O832   O     0.29375   0.56011   0.75000   0.00000  Uiso   1.00
O833   O     0.29372   0.43988   0.75001   0.00000  Uiso   1.00
O834   O     0.03961   0.56012   0.74999   0.00000  Uiso   1.00
O835   O     0.01852   0.50001   0.81491   0.00000  Uiso   1.00
O836   O     0.31481   0.49999   0.68509   0.00000  Uiso   1.00
O837   O     0.27267   0.50000   0.81492   0.00000  Uiso   1.00
O838   O     0.06067   0.50000   0.68508   0.00000  Uiso   1.00
H839   H     0.26492   0.45984   0.54264   0.00000  Uiso   1.00
H840   H     0.06509   0.52058   0.95476   0.00000  Uiso   1.00
H841   H     0.11491   0.48789   0.61369   0.00000  Uiso   1.00
H842   H     0.21997   0.51553   0.88732   0.00000  Uiso   1.00
H843   H     0.30520   0.51614   0.60524   0.00000  Uiso   1.00
H844   H     0.02695   0.47574   0.89362   0.00000  Uiso   1.00
H845   H     0.33052   0.46215   0.97445   0.00000  Uiso   1.00
H846   H     0.00031   0.52278   0.52352   0.00000  Uiso   1.00
H847   H     0.18265   0.46822   0.58128   0.00000  Uiso   1.00
H848   H     0.14720   0.51133   0.91607   0.00000  Uiso   1.00
H849   H     0.25775   0.37131   0.75094   0.00000  Uiso   1.00
H850   H     0.07558   0.62869   0.74908   0.00000  Uiso   1.00
H851   H     0.19899   0.45095   0.79701   0.00000  Uiso   1.00
H852   H     0.13435   0.54907   0.70301   0.00000  Uiso   1.00
C853   C     0.10455   0.44091   0.80662   0.00000  Uiso   1.00
H854   H     0.06594   0.44267   0.81564   0.00000  Uiso   1.00
O855   O     0.12251   0.41194   0.82262   0.00000  Uiso   1.00
C856   C     0.22877   0.55914   0.69346   0.00000  Uiso   1.00
H857   H     0.26738   0.55722   0.68417   0.00000  Uiso   1.00
O858   O     0.21079   0.58831   0.67781   0.00000  Uiso   1.00
C859   C     0.33343   0.42074   0.75009   0.00000  Uiso   1.00
C860   C     0.66657   0.57926   0.74991   0.00000  Uiso   1.00
C861   C     0.52530   0.47638   0.54602   0.00000  Uiso   1.00
C862   C     0.47210   0.50771   0.95206   0.00000  Uiso   1.00
C863   C     0.57352   0.47089   0.52370   0.00000  Uiso   1.00
C864   C     0.42375   0.51258   0.97425   0.00000  Uiso   1.00
C865   C     0.62428   0.35501   0.75052   0.00000  Uiso   1.00
C866   C     0.37572   0.64499   0.74950   0.00000  Uiso   1.00
C867   C     0.62416   0.64577   0.75040   0.00000  Uiso   1.00
C868   C     0.37583   0.35423   0.74961   0.00000  Uiso   1.00
C869   C     0.66654   0.62391   0.74991   0.00000  Uiso   1.00
C870   C     0.33346   0.37609   0.75010   0.00000  Uiso   1.00
C871   C     0.51836   0.47251   0.77611   0.00000  Uiso   1.00
C872   C     0.48164   0.52751   0.72391   0.00000  Uiso   1.00
C873   C     0.46877   0.47211   0.77654   0.00000  Uiso   1.00
C874   C     0.53123   0.52791   0.72348   0.00000  Uiso   1.00
C875   C     0.63950   0.49950   0.83609   0.00000  Uiso   1.00
C876   C     0.36050   0.50016   0.66389   0.00000  Uiso   1.00
C877   C     0.62428   0.49567   0.88533   0.00000  Uiso   1.00
C878   C     0.37560   0.50112   0.61453   0.00000  Uiso   1.00
C879   C     0.63890   0.47365   0.95601   0.00000  Uiso   1.00
C880   C     0.35922   0.51422   0.54251   0.00000  Uiso   1.00
C881   C     0.65600   0.48159   0.90999   0.00000  Uiso   1.00
C882   C     0.34295   0.51052   0.58911   0.00000  Uiso   1.00
C883   C     0.57574   0.50272   0.90726   0.00000  Uiso   1.00
C884   C     0.42428   0.49423   0.59282   0.00000  Uiso   1.00
C885   C     0.55709   0.49346   0.95335   0.00000  Uiso   1.00
C886   C     0.44157   0.49695   0.54575   0.00000  Uiso   1.00
C887   C     0.58989   0.47944   0.97781   0.00000  Uiso   1.00
C888   C     0.40813   0.50783   0.52073   0.00000  Uiso   1.00
C889   C     0.50700   0.49757   0.97566   0.00000  Uiso   1.00
C890   C     0.49116   0.49038   0.52306   0.00000  Uiso   1.00
Cu891  Cu    0.38022   0.50001   0.75000   0.00000  Uiso   1.00
Cu892  Cu    0.61978   0.49999   0.75000   0.00000  Uiso   1.00
H893   H     0.59095   0.63008   0.75075   0.00000  Uiso   1.00
H894   H     0.40904   0.36992   0.74927   0.00000  Uiso   1.00
N895   N     0.45069   0.50001   0.74999   0.00000  Uiso   1.00
N896   N     0.54931   0.49999   0.75001   0.00000  Uiso   1.00
O897   O     0.37291   0.43989   0.75000   0.00000  Uiso   1.00
O898   O     0.62709   0.56011   0.75000   0.00000  Uiso   1.00
O899   O     0.62706   0.43988   0.75001   0.00000  Uiso   1.00
O900   O     0.37294   0.56012   0.74999   0.00000  Uiso   1.00
O901   O     0.35186   0.50001   0.81491   0.00000  Uiso   1.00
O902   O     0.64814   0.49999   0.68509   0.00000  Uiso   1.00
O903   O     0.60600   0.50000   0.81492   0.00000  Uiso   1.00
O904   O     0.39400   0.50000   0.68508   0.00000  Uiso   1.00
H905   H     0.59825   0.45984   0.54264   0.00000  Uiso   1.00
H906   H     0.39843   0.52058   0.95476   0.00000  Uiso   1.00
H907   H     0.44824   0.48789   0.61369   0.00000  Uiso   1.00
H908   H     0.55330   0.51553   0.88732   0.00000  Uiso   1.00
H909   H     0.63854   0.51614   0.60524   0.00000  Uiso   1.00
H910   H     0.36028   0.47574   0.89362   0.00000  Uiso   1.00
H911   H     0.66385   0.46215   0.97445   0.00000  Uiso   1.00
H912   H     0.33364   0.52278   0.52352   0.00000  Uiso   1.00
H913   H     0.51598   0.46822   0.58128   0.00000  Uiso   1.00
H914   H     0.48053   0.51133   0.91607   0.00000  Uiso   1.00
H915   H     0.59108   0.37131   0.75094   0.00000  Uiso   1.00
H916   H     0.40891   0.62869   0.74908   0.00000  Uiso   1.00
H917   H     0.53232   0.45095   0.79701   0.00000  Uiso   1.00
H918   H     0.46769   0.54907   0.70301   0.00000  Uiso   1.00
C919   C     0.43788   0.44091   0.80662   0.00000  Uiso   1.00
H920   H     0.39927   0.44267   0.81564   0.00000  Uiso   1.00
O921   O     0.45585   0.41194   0.82262   0.00000  Uiso   1.00
C922   C     0.56211   0.55914   0.69346   0.00000  Uiso   1.00
H923   H     0.60072   0.55722   0.68417   0.00000  Uiso   1.00
O924   O     0.54413   0.58831   0.67781   0.00000  Uiso   1.00
C925   C     0.66676   0.42074   0.75009   0.00000  Uiso   1.00
C926   C     0.99990   0.57926   0.74991   0.00000  Uiso   1.00
C927   C     0.85864   0.47638   0.54602   0.00000  Uiso   1.00
C928   C     0.80543   0.50771   0.95206   0.00000  Uiso   1.00
C929   C     0.90685   0.47089   0.52370   0.00000  Uiso   1.00
C930   C     0.75709   0.51258   0.97425   0.00000  Uiso   1.00
C931   C     0.95761   0.35501   0.75052   0.00000  Uiso   1.00
C932   C     0.70905   0.64499   0.74950   0.00000  Uiso   1.00
C933   C     0.95749   0.64577   0.75040   0.00000  Uiso   1.00
C934   C     0.70917   0.35423   0.74961   0.00000  Uiso   1.00
C935   C     0.99987   0.62391   0.74991   0.00000  Uiso   1.00
C936   C     0.66679   0.37609   0.75010   0.00000  Uiso   1.00
C937   C     0.85169   0.47251   0.77611   0.00000  Uiso   1.00
C938   C     0.81498   0.52751   0.72391   0.00000  Uiso   1.00
C939   C     0.80210   0.47211   0.77654   0.00000  Uiso   1.00
C940   C     0.86456   0.52791   0.72348   0.00000  Uiso   1.00
C941   C     0.97283   0.49950   0.83609   0.00000  Uiso   1.00
C942   C     0.69384   0.50016   0.66389   0.00000  Uiso   1.00
C943   C     0.95761   0.49567   0.88533   0.00000  Uiso   1.00
C944   C     0.70893   0.50112   0.61453   0.00000  Uiso   1.00
C945   C     0.97223   0.47365   0.95601   0.00000  Uiso   1.00
C946   C     0.69256   0.51422   0.54251   0.00000  Uiso   1.00
C947   C     0.98933   0.48159   0.90999   0.00000  Uiso   1.00
C948   C     0.67628   0.51052   0.58911   0.00000  Uiso   1.00
C949   C     0.90907   0.50272   0.90726   0.00000  Uiso   1.00
C950   C     0.75761   0.49423   0.59282   0.00000  Uiso   1.00
C951   C     0.89042   0.49346   0.95335   0.00000  Uiso   1.00
C952   C     0.77490   0.49695   0.54575   0.00000  Uiso   1.00
C953   C     0.92322   0.47944   0.97781   0.00000  Uiso   1.00
C954   C     0.74146   0.50783   0.52073   0.00000  Uiso   1.00
C955   C     0.84034   0.49757   0.97566   0.00000  Uiso   1.00
C956   C     0.82449   0.49038   0.52306   0.00000  Uiso   1.00
Cu957  Cu    0.71355   0.50001   0.75000   0.00000  Uiso   1.00
Cu958  Cu    0.95311   0.49999   0.75000   0.00000  Uiso   1.00
H959   H     0.92429   0.63008   0.75075   0.00000  Uiso   1.00
H960   H     0.74237   0.36992   0.74927   0.00000  Uiso   1.00
N961   N     0.78403   0.50001   0.74999   0.00000  Uiso   1.00
N962   N     0.88264   0.49999   0.75001   0.00000  Uiso   1.00
O963   O     0.70625   0.43989   0.75000   0.00000  Uiso   1.00
O964   O     0.96042   0.56011   0.75000   0.00000  Uiso   1.00
O965   O     0.96039   0.43988   0.75001   0.00000  Uiso   1.00
O966   O     0.70628   0.56012   0.74999   0.00000  Uiso   1.00
O967   O     0.68519   0.50001   0.81491   0.00000  Uiso   1.00
O968   O     0.98148   0.49999   0.68509   0.00000  Uiso   1.00
O969   O     0.93933   0.50000   0.81492   0.00000  Uiso   1.00
O970   O     0.72733   0.50000   0.68508   0.00000  Uiso   1.00
H971   H     0.93159   0.45984   0.54264   0.00000  Uiso   1.00
H972   H     0.73176   0.52058   0.95476   0.00000  Uiso   1.00
H973   H     0.78158   0.48789   0.61369   0.00000  Uiso   1.00
H974   H     0.88663   0.51553   0.88732   0.00000  Uiso   1.00
H975   H     0.97187   0.51614   0.60524   0.00000  Uiso   1.00
H976   H     0.69362   0.47574   0.89362   0.00000  Uiso   1.00
H977   H     0.99719   0.46215   0.97445   0.00000  Uiso   1.00
H978   H     0.66698   0.52278   0.52352   0.00000  Uiso   1.00
H979   H     0.84932   0.46822   0.58128   0.00000  Uiso   1.00
H980   H     0.81387   0.51133   0.91607   0.00000  Uiso   1.00
H981   H     0.92441   0.37131   0.75094   0.00000  Uiso   1.00
H982   H     0.74225   0.62869   0.74908   0.00000  Uiso   1.00
H983   H     0.86565   0.45095   0.79701   0.00000  Uiso   1.00
H984   H     0.80102   0.54907   0.70301   0.00000  Uiso   1.00
C985   C     0.77122   0.44091   0.80662   0.00000  Uiso   1.00
H986   H     0.73260   0.44267   0.81564   0.00000  Uiso   1.00
O987   O     0.78918   0.41194   0.82262   0.00000  Uiso   1.00
C988   C     0.89544   0.55914   0.69346   0.00000  Uiso   1.00
H989   H     0.93405   0.55722   0.68417   0.00000  Uiso   1.00
O990   O     0.87746   0.58831   0.67781   0.00000  Uiso   1.00
C991   C     0.00010   0.75407   0.75009   0.00000  Uiso   1.00
C992   C     0.33324   0.91259   0.74991   0.00000  Uiso   1.00
C993   C     0.19197   0.80971   0.54602   0.00000  Uiso   1.00
C994   C     0.13877   0.84104   0.95206   0.00000  Uiso   1.00
C995   C     0.24019   0.80423   0.52370   0.00000  Uiso   1.00
C996   C     0.09042   0.84592   0.97425   0.00000  Uiso   1.00
C997   C     0.29095   0.68834   0.75052   0.00000  Uiso   1.00
C998   C     0.04238   0.97832   0.74950   0.00000  Uiso   1.00
C999   C     0.29083   0.97910   0.75040   0.00000  Uiso   1.00
C1000  C     0.04250   0.68757   0.74961   0.00000  Uiso   1.00
C1001  C     0.33320   0.95724   0.74991   0.00000  Uiso   1.00
C1002  C     0.00013   0.70943   0.75010   0.00000  Uiso   1.00
C1003  C     0.18502   0.80584   0.77611   0.00000  Uiso   1.00
C1004  C     0.14831   0.86084   0.72391   0.00000  Uiso   1.00
C1005  C     0.13543   0.80544   0.77654   0.00000  Uiso   1.00
C1006  C     0.19790   0.86124   0.72348   0.00000  Uiso   1.00
C1007  C     0.30617   0.83283   0.83609   0.00000  Uiso   1.00
C1008  C     0.02717   0.83350   0.66389   0.00000  Uiso   1.00
C1009  C     0.29095   0.82900   0.88533   0.00000  Uiso   1.00
C1010  C     0.04226   0.83445   0.61453   0.00000  Uiso   1.00
C1011  C     0.30556   0.80698   0.95601   0.00000  Uiso   1.00
C1012  C     0.02589   0.84756   0.54251   0.00000  Uiso   1.00
C1013  C     0.32267   0.81492   0.90999   0.00000  Uiso   1.00
C1014  C     0.00961   0.84385   0.58911   0.00000  Uiso   1.00
C1015  C     0.24241   0.83606   0.90726   0.00000  Uiso   1.00
C1016  C     0.09095   0.82756   0.59282   0.00000  Uiso   1.00
C1017  C     0.22375   0.82680   0.95335   0.00000  Uiso   1.00
C1018  C     0.10823   0.83029   0.54575   0.00000  Uiso   1.00
C1019  C     0.25656   0.81277   0.97781   0.00000  Uiso   1.00
C1020  C     0.07479   0.84117   0.52073   0.00000  Uiso   1.00
C1021  C     0.17367   0.83090   0.97566   0.00000  Uiso   1.00
C1022  C     0.15783   0.82372   0.52306   0.00000  Uiso   1.00
Cu1023 Cu    0.04689   0.83334   0.75000   0.00000  Uiso   1.00
Cu1024 Cu    0.28645   0.83333   0.75000   0.00000  Uiso   1.00
H1025  H     0.25762   0.96341   0.75075   0.00000  Uiso   1.00
H1026  H     0.07571   0.70326   0.74927   0.00000  Uiso   1.00
N1027  N     0.11736   0.83334   0.74999   0.00000  Uiso   1.00
N1028  N     0.21597   0.83332   0.75001   0.00000  Uiso   1.00
O1029  O     0.03958   0.77322   0.75000   0.00000  Uiso   1.00
O1030  O     0.29375   0.89345   0.75000   0.00000  Uiso   1.00
O1031  O     0.29372   0.77321   0.75001   0.00000  Uiso   1.00
O1032  O     0.03961   0.89346   0.74999   0.00000  Uiso   1.00
O1033  O     0.01852   0.83334   0.81491   0.00000  Uiso   1.00
O1034  O     0.31481   0.83332   0.68509   0.00000  Uiso   1.00
O1035  O     0.27267   0.83333   0.81492   0.00000  Uiso   1.00
O1036  O     0.06067   0.83333   0.68508   0.00000  Uiso   1.00
H1037  H     0.26492   0.79318   0.54264   0.00000  Uiso   1.00
H1038  H     0.06509   0.85391   0.95476   0.00000  Uiso   1.00
H1039  H     0.11491   0.82123   0.61369   0.00000  Uiso   1.00
H1040  H     0.21997   0.84887   0.88732   0.00000  Uiso   1.00
H1041  H     0.30520   0.84947   0.60524   0.00000  Uiso   1.00
H1042  H     0.02695   0.80907   0.89362   0.00000  Uiso   1.00
H1043  H     0.33052   0.79548   0.97445   0.00000  Uiso   1.00
H1044  H     0.00031   0.85611   0.52352   0.00000  Uiso   1.00
H1045  H     0.18265   0.80155   0.58128   0.00000  Uiso   1.00
H1046  H     0.14720   0.84466   0.91607   0.00000  Uiso   1.00
H1047  H     0.25775   0.70465   0.75094   0.00000  Uiso   1.00
H1048  H     0.07558   0.96202   0.74908   0.00000  Uiso   1.00
H1049  H     0.19899   0.78428   0.79701   0.00000  Uiso   1.00
H1050  H     0.13435   0.88241   0.70301   0.00000  Uiso   1.00
C1051  C     0.10455   0.77424   0.80662   0.00000  Uiso   1.00
H1052  H     0.06594   0.77601   0.81564   0.00000  Uiso   1.00
O1053  O     0.12251   0.74528   0.82262   0.00000  Uiso   1.00
C1054  C     0.22877   0.89248   0.69346   0.00000  Uiso   1.00
H1055  H     0.26738   0.89055   0.68417   0.00000  Uiso   1.00
O1056  O     0.21079   0.92165   0.67781   0.00000  Uiso   1.00
C1057  C     0.33343   0.75407   0.75009   0.00000  Uiso   1.00
C1058  C     0.66657   0.91259   0.74991   0.00000  Uiso   1.00
C1059  C     0.52530   0.80971   0.54602   0.00000  Uiso   1.00
C1060  C     0.47210   0.84104   0.95206   0.00000  Uiso   1.00
C1061  C     0.57352   0.80423   0.52370   0.00000  Uiso   1.00
C1062  C     0.42375   0.84592   0.97425   0.00000  Uiso   1.00
C1063  C     0.62428   0.68834   0.75052   0.00000  Uiso   1.00
C1064  C     0.37572   0.97832   0.74950   0.00000  Uiso   1.00
C1065  C     0.62416   0.97910   0.75040   0.00000  Uiso   1.00
C1066  C     0.37583   0.68757   0.74961   0.00000  Uiso   1.00
C1067  C     0.66654   0.95724   0.74991   0.00000  Uiso   1.00
C1068  C     0.33346   0.70943   0.75010   0.00000  Uiso   1.00
C1069  C     0.51836   0.80584   0.77611   0.00000  Uiso   1.00
C1070  C     0.48164   0.86084   0.72391   0.00000  Uiso   1.00
C1071  C     0.46877   0.80544   0.77654   0.00000  Uiso   1.00
C1072  C     0.53123   0.86124   0.72348   0.00000  Uiso   1.00
C1073  C     0.63950   0.83283   0.83609   0.00000  Uiso   1.00
C1074  C     0.36050   0.83350   0.66389   0.00000  Uiso   1.00
C1075  C     0.62428   0.82900   0.88533   0.00000  Uiso   1.00
C1076  C     0.37560   0.83445   0.61453   0.00000  Uiso   1.00
C1077  C     0.63890   0.80698   0.95601   0.00000  Uiso   1.00
C1078  C     0.35922   0.84756   0.54251   0.00000  Uiso   1.00
C1079  C     0.65600   0.81492   0.90999   0.00000  Uiso   1.00
C1080  C     0.34295   0.84385   0.58911   0.00000  Uiso   1.00
C1081  C     0.57574   0.83606   0.90726   0.00000  Uiso   1.00
C1082  C     0.42428   0.82756   0.59282   0.00000  Uiso   1.00
C1083  C     0.55709   0.82680   0.95335   0.00000  Uiso   1.00
C1084  C     0.44157   0.83029   0.54575   0.00000  Uiso   1.00
C1085  C     0.58989   0.81277   0.97781   0.00000  Uiso   1.00
C1086  C     0.40813   0.84117   0.52073   0.00000  Uiso   1.00
C1087  C     0.50700   0.83090   0.97566   0.00000  Uiso   1.00
C1088  C     0.49116   0.82372   0.52306   0.00000  Uiso   1.00
Cu1089 Cu    0.38022   0.83334   0.75000   0.00000  Uiso   1.00
Cu1090 Cu    0.61978   0.83333   0.75000   0.00000  Uiso   1.00
H1091  H     0.59095   0.96341   0.75075   0.00000  Uiso   1.00
H1092  H     0.40904   0.70326   0.74927   0.00000  Uiso   1.00
N1093  N     0.45069   0.83334   0.74999   0.00000  Uiso   1.00
N1094  N     0.54931   0.83332   0.75001   0.00000  Uiso   1.00
O1095  O     0.37291   0.77322   0.75000   0.00000  Uiso   1.00
O1096  O     0.62709   0.89345   0.75000   0.00000  Uiso   1.00
O1097  O     0.62706   0.77321   0.75001   0.00000  Uiso   1.00
O1098  O     0.37294   0.89346   0.74999   0.00000  Uiso   1.00
O1099  O     0.35186   0.83334   0.81491   0.00000  Uiso   1.00
O1100  O     0.64814   0.83332   0.68509   0.00000  Uiso   1.00
O1101  O     0.60600   0.83333   0.81492   0.00000  Uiso   1.00
O1102  O     0.39400   0.83333   0.68508   0.00000  Uiso   1.00
H1103  H     0.59825   0.79318   0.54264   0.00000  Uiso   1.00
H1104  H     0.39843   0.85391   0.95476   0.00000  Uiso   1.00
H1105  H     0.44824   0.82123   0.61369   0.00000  Uiso   1.00
H1106  H     0.55330   0.84887   0.88732   0.00000  Uiso   1.00
H1107  H     0.63854   0.84947   0.60524   0.00000  Uiso   1.00
H1108  H     0.36028   0.80907   0.89362   0.00000  Uiso   1.00
H1109  H     0.66385   0.79548   0.97445   0.00000  Uiso   1.00
H1110  H     0.33364   0.85611   0.52352   0.00000  Uiso   1.00
H1111  H     0.51598   0.80155   0.58128   0.00000  Uiso   1.00
H1112  H     0.48053   0.84466   0.91607   0.00000  Uiso   1.00
H1113  H     0.59108   0.70465   0.75094   0.00000  Uiso   1.00
H1114  H     0.40891   0.96202   0.74908   0.00000  Uiso   1.00
H1115  H     0.53232   0.78428   0.79701   0.00000  Uiso   1.00
H1116  H     0.46769   0.88241   0.70301   0.00000  Uiso   1.00
C1117  C     0.43788   0.77424   0.80662   0.00000  Uiso   1.00
H1118  H     0.39927   0.77601   0.81564   0.00000  Uiso   1.00
O1119  O     0.45585   0.74528   0.82262   0.00000  Uiso   1.00
C1120  C     0.56211   0.89248   0.69346   0.00000  Uiso   1.00
H1121  H     0.60072   0.89055   0.68417   0.00000  Uiso   1.00
O1122  O     0.54413   0.92165   0.67781   0.00000  Uiso   1.00
C1123  C     0.66676   0.75407   0.75009   0.00000  Uiso   1.00
C1124  C     0.99990   0.91259   0.74991   0.00000  Uiso   1.00
C1125  C     0.85864   0.80971   0.54602   0.00000  Uiso   1.00
C1126  C     0.80543   0.84104   0.95206   0.00000  Uiso   1.00
C1127  C     0.90685   0.80423   0.52370   0.00000  Uiso   1.00
C1128  C     0.75709   0.84592   0.97425   0.00000  Uiso   1.00
C1129  C     0.95761   0.68834   0.75052   0.00000  Uiso   1.00
C1130  C     0.70905   0.97832   0.74950   0.00000  Uiso   1.00
C1131  C     0.95749   0.97910   0.75040   0.00000  Uiso   1.00
C1132  C     0.70917   0.68757   0.74961   0.00000  Uiso   1.00
C1133  C     0.99987   0.95724   0.74991   0.00000  Uiso   1.00
C1134  C     0.66679   0.70943   0.75010   0.00000  Uiso   1.00
C1135  C     0.85169   0.80584   0.77611   0.00000  Uiso   1.00
C1136  C     0.81498   0.86084   0.72391   0.00000  Uiso   1.00
C1137  C     0.80210   0.80544   0.77654   0.00000  Uiso   1.00
C1138  C     0.86456   0.86124   0.72348   0.00000  Uiso   1.00
C1139  C     0.97283   0.83283   0.83609   0.00000  Uiso   1.00
C1140  C     0.69384   0.83350   0.66389   0.00000  Uiso   1.00
C1141  C     0.95761   0.82900   0.88533   0.00000  Uiso   1.00
C1142  C     0.70893   0.83445   0.61453   0.00000  Uiso   1.00
C1143  C     0.97223   0.80698   0.95601   0.00000  Uiso   1.00
C1144  C     0.69256   0.84756   0.54251   0.00000  Uiso   1.00
C1145  C     0.98933   0.81492   0.90999   0.00000  Uiso   1.00
C1146  C     0.67628   0.84385   0.58911   0.00000  Uiso   1.00
C1147  C     0.90907   0.83606   0.90726   0.00000  Uiso   1.00
C1148  C     0.75761   0.82756   0.59282   0.00000  Uiso   1.00
C1149  C     0.89042   0.82680   0.95335   0.00000  Uiso   1.00
C1150  C     0.77490   0.83029   0.54575   0.00000  Uiso   1.00
C1151  C     0.92322   0.81277   0.97781   0.00000  Uiso   1.00
C1152  C     0.74146   0.84117   0.52073   0.00000  Uiso   1.00
C1153  C     0.84034   0.83090   0.97566   0.00000  Uiso   1.00
C1154  C     0.82449   0.82372   0.52306   0.00000  Uiso   1.00
Cu1155 Cu    0.71355   0.83334   0.75000   0.00000  Uiso   1.00
Cu1156 Cu    0.95311   0.83333   0.75000   0.00000  Uiso   1.00
H1157  H     0.92429   0.96341   0.75075   0.00000  Uiso   1.00
H1158  H     0.74237   0.70326   0.74927   0.00000  Uiso   1.00
N1159  N     0.78403   0.83334   0.74999   0.00000  Uiso   1.00
N1160  N     0.88264   0.83332   0.75001   0.00000  Uiso   1.00
O1161  O     0.70625   0.77322   0.75000   0.00000  Uiso   1.00
O1162  O     0.96042   0.89345   0.75000   0.00000  Uiso   1.00
O1163  O     0.96039   0.77321   0.75001   0.00000  Uiso   1.00
O1164  O     0.70628   0.89346   0.74999   0.00000  Uiso   1.00
O1165  O     0.68519   0.83334   0.81491   0.00000  Uiso   1.00
O1166  O     0.98148   0.83332   0.68509   0.00000  Uiso   1.00
O1167  O     0.93933   0.83333   0.81492   0.00000  Uiso   1.00
O1168  O     0.72733   0.83333   0.68508   0.00000  Uiso   1.00
H1169  H     0.93159   0.79318   0.54264   0.00000  Uiso   1.00
H1170  H     0.73176   0.85391   0.95476   0.00000  Uiso   1.00
H1171  H     0.78158   0.82123   0.61369   0.00000  Uiso   1.00
H1172  H     0.88663   0.84887   0.88732   0.00000  Uiso   1.00
H1173  H     0.97187   0.84947   0.60524   0.00000  Uiso   1.00
H1174  H     0.69362   0.80907   0.89362   0.00000  Uiso   1.00
H1175  H     0.99719   0.79548   0.97445   0.00000  Uiso   1.00
H1176  H     0.66698   0.85611   0.52352   0.00000  Uiso   1.00
H1177  H     0.84932   0.80155   0.58128   0.00000  Uiso   1.00
H1178  H     0.81387   0.84466   0.91607   0.00000  Uiso   1.00
H1179  H     0.92441   0.70465   0.75094   0.00000  Uiso   1.00
H1180  H     0.74225   0.96202   0.74908   0.00000  Uiso   1.00
H1181  H     0.86565   0.78428   0.79701   0.00000  Uiso   1.00
H1182  H     0.80102   0.88241   0.70301   0.00000  Uiso   1.00
C1183  C     0.77122   0.77424   0.80662   0.00000  Uiso   1.00
H1184  H     0.73260   0.77601   0.81564   0.00000  Uiso   1.00
O1185  O     0.78918   0.74528   0.82262   0.00000  Uiso   1.00
C1186  C     0.89544   0.89248   0.69346   0.00000  Uiso   1.00
H1187  H     0.93405   0.89055   0.68417   0.00000  Uiso   1.00
O1188  O     0.87746   0.92165   0.67781   0.00000  Uiso   1.00
loop_
_geom_bond_atom_site_label_1
_geom_bond_atom_site_label_2
_geom_bond_distance
_geom_bond_site_symmetry_2
_ccdc_geom_bond_type
C1     C12     1.451   .     S
C1     O39     1.298   .     A
C1     O173    1.294   1_455 S
C2     O40     1.298   .     A
C2     C11     1.451   .     S
C2     O108    1.294   .     S
C3     C32     1.417   .     A
C3     H55     1.076   .     S
C3     C5      1.387   .     A
C4     H56     1.076   .     S
C4     C31     1.417   .     A
C4     C6      1.387   .     A
C5     H47     1.084   .     S
C5     C623    1.390   1_554 S
C6     H48     1.084   .     S
C6     C624    1.390   .     S
C7     H57     1.083   .     S
C7     C405    1.384   1_545 S
C7     C78     1.403   .     S
C8     H58     1.083   .     S
C8     C208    1.384   .     S
C8     C143    1.403   1_455 S
C9     C11     1.400   .     A
C9     H35     1.083   .     S
C9     C205    1.384   .     S
C10    C12     1.400   .     A
C10    H36     1.083   .     S
C10    C404    1.384   1_545 S
C11    C74     1.403   .     S
C12    C139    1.403   1_455 S
C13    H59     1.082   .     S
C13    N38     1.354   .     A
C13    C15     1.421   .     A
C14    H60     1.082   .     S
C14    N37     1.354   .     A
C14    C16     1.421   .     A
C15    C61     1.485   .     S
C15    N37     1.390   .     A
C16    C64     1.485   .     S
C16    N38     1.390   .     A
C17    C19     1.468   .     S
C17    O45     1.297   .     A
C17    O109    1.303   .     S
C18    O46     1.298   .     A
C18    C20     1.469   .     S
C18    O176    1.303   1_455 S
C19    C23     1.398   .     A
C19    C25     1.400   .     A
C20    C26     1.401   .     A
C20    C24     1.398   .     A
C21    C29     1.404   .     A
C21    H53     1.083   .     S
C21    C23     1.392   .     A
C22    H54     1.083   .     S
C22    C24     1.392   .     A
C22    C30     1.405   .     A
C23    H118    1.083   .     S
C24    H183    1.083   1_455 S
C25    C27     1.406   .     A
C25    H50     1.075   .     S
C26    C28     1.406   .     A
C26    H49     1.074   .     S
C27    C29     1.418   .     A
C27    C31     1.429   .     A
C28    C30     1.418   .     A
C28    C32     1.429   .     A
C29    C599    1.390   .     S
C30    C600    1.390   1_554 S
C31    C626    1.426   .     S
C32    C625    1.426   1_554 S
Cu33   O46     1.937   .     S
Cu33   O39     1.967   .     S
Cu33   O42     1.962   .     S
Cu33   O43     1.954   .     S
Cu33   N37     2.024   .     S
Cu33   Cu166   2.693   1_455 S
Cu34   O41     1.962   .     S
Cu34   O45     1.937   .     S
Cu34   O40     1.967   .     S
Cu34   O44     1.954   .     S
Cu34   N38     2.024   .     S
Cu34   Cu99    2.693   .     S
O41    C67     1.294   .     S
O42    C134    1.294   1_455 S
O43    C149    1.303   1_455 S
O44    C84     1.303   .     S
H51    C90     1.083   .     S
H52    C155    1.083   1_455 S
C61    H62     1.071   .     S
C61    O63     1.222   .     D
C64    H65     1.071   .     S
C64    O66     1.222   .     D
C67    C78     1.451   .     S
C67    O105    1.298   .     A
C68    O106    1.298   .     A
C68    C77     1.451   .     S
C68    O174    1.294   .     S
C69    C98     1.417   .     A
C69    H121    1.076   .     S
C69    C71     1.387   .     A
C70    H122    1.076   .     S
C70    C97     1.417   .     A
C70    C72     1.387   .     A
C71    H113    1.084   .     S
C71    C689    1.390   1_554 S
C72    H114    1.084   .     S
C72    C690    1.390   .     S
C73    H123    1.083   .     S
C73    C471    1.384   1_545 S
C73    C144    1.403   .     S
C74    H124    1.083   .     S
C74    C274    1.384   .     S
C75    C77     1.400   .     A
C75    H101    1.083   .     S
C75    C271    1.384   .     S
C76    C78     1.400   .     A
C76    H102    1.083   .     S
C76    C470    1.384   1_545 S
C77    C140    1.403   .     S
C79    H125    1.082   .     S
C79    N104    1.354   .     A
C79    C81     1.421   .     A
C80    H126    1.082   .     S
C80    N103    1.354   .     A
C80    C82     1.421   .     A
C81    C127    1.485   .     S
C81    N103    1.390   .     A
C82    C130    1.485   .     S
C82    N104    1.390   .     A
C83    C85     1.468   .     S
C83    O111    1.297   .     A
C83    O175    1.303   .     S
C84    O112    1.298   .     A
C84    C86     1.469   .     S
C85    C89     1.398   .     A
C85    C91     1.400   .     A
C86    C92     1.401   .     A
C86    C90     1.398   .     A
C87    C95     1.404   .     A
C87    H119    1.083   .     S
C87    C89     1.392   .     A
C88    H120    1.083   .     S
C88    C90     1.392   .     A
C88    C96     1.405   .     A
C89    H184    1.083   .     S
C91    C93     1.406   .     A
C91    H116    1.075   .     S
C92    C94     1.406   .     A
C92    H115    1.074   .     S
C93    C95     1.418   .     A
C93    C97     1.429   .     A
C94    C96     1.418   .     A
C94    C98     1.429   .     A
C95    C665    1.390   .     S
C96    C666    1.390   1_554 S
C97    C692    1.426   .     S
C98    C691    1.426   1_554 S
Cu99   O112    1.937   .     S
Cu99   O105    1.967   .     S
Cu99   O108    1.962   .     S
Cu99   O109    1.954   .     S
Cu99   N103    2.024   .     S
Cu100  O107    1.962   .     S
Cu100  O111    1.937   .     S
Cu100  O106    1.967   .     S
Cu100  O110    1.954   .     S
Cu100  N104    2.024   .     S
Cu100  Cu165   2.693   .     S
O107   C133    1.294   .     S
O110   C150    1.303   .     S
H117   C156    1.083   .     S
C127   H128    1.071   .     S
C127   O129    1.222   .     D
C130   H131    1.071   .     S
C130   O132    1.222   .     D
C133   C144    1.451   .     S
C133   O171    1.298   .     A
C134   O172    1.298   .     A
C134   C143    1.451   .     S
C134   O42     1.294   1_655 S
C135   C164    1.417   .     A
C135   H187    1.076   .     S
C135   C137    1.387   .     A
C136   H188    1.076   .     S
C136   C163    1.417   .     A
C136   C138    1.387   .     A
C137   H179    1.084   .     S
C137   C755    1.390   1_554 S
C138   H180    1.084   .     S
C138   C756    1.390   .     S
C139   H189    1.083   .     S
C139   C537    1.384   1_545 S
C139   C12     1.403   1_655 S
C140   H190    1.083   .     S
C140   C340    1.384   .     S
C141   C143    1.400   .     A
C141   H167    1.083   .     S
C141   C337    1.384   .     S
C142   C144    1.400   .     A
C142   H168    1.083   .     S
C142   C536    1.384   1_545 S
C143   C8      1.403   1_655 S
C145   H191    1.082   .     S
C145   N170    1.354   .     A
C145   C147    1.421   .     A
C146   H192    1.082   .     S
C146   N169    1.354   .     A
C146   C148    1.421   .     A
C147   C193    1.485   .     S
C147   N169    1.390   .     A
C148   C196    1.485   .     S
C148   N170    1.390   .     A
C149   C151    1.468   .     S
C149   O177    1.297   .     A
C149   O43     1.303   1_655 S
C150   O178    1.298   .     A
C150   C152    1.469   .     S
C151   C155    1.398   .     A
C151   C157    1.400   .     A
C152   C158    1.401   .     A
C152   C156    1.398   .     A
C153   C161    1.404   .     A
C153   H185    1.083   .     S
C153   C155    1.392   .     A
C154   H186    1.083   .     S
C154   C156    1.392   .     A
C154   C162    1.405   .     A
C155   H52     1.083   1_655 S
C157   C159    1.406   .     A
C157   H182    1.075   .     S
C158   C160    1.406   .     A
C158   H181    1.074   .     S
C159   C161    1.418   .     A
C159   C163    1.429   .     A
C160   C162    1.418   .     A
C160   C164    1.429   .     A
C161   C731    1.390   .     S
C162   C732    1.390   1_554 S
C163   C758    1.426   .     S
C164   C757    1.426   1_554 S
Cu165  O178    1.937   .     S
Cu165  O171    1.967   .     S
Cu165  O174    1.962   .     S
Cu165  O175    1.954   .     S
Cu165  N169    2.024   .     S
Cu166  O173    1.962   .     S
Cu166  O177    1.937   .     S
Cu166  O172    1.967   .     S
Cu166  O176    1.954   .     S
Cu166  N170    2.024   .     S
Cu166  Cu33    2.693   1_655 S
O173   C1      1.294   1_655 S
O176   C18     1.303   1_655 S
H183   C24     1.083   1_655 S
C193   H194    1.071   .     S
C193   O195    1.222   .     D
C196   H197    1.071   .     S
C196   O198    1.222   .     D
C199   C210    1.451   .     S
C199   O237    1.298   .     A
C199   O371    1.294   1_455 S
C200   O238    1.298   .     A
C200   C209    1.451   .     S
C200   O306    1.294   .     S
C201   C230    1.417   .     A
C201   H253    1.076   .     S
C201   C203    1.387   .     A
C202   H254    1.076   .     S
C202   C229    1.417   .     A
C202   C204    1.387   .     A
C203   H245    1.084   .     S
C203   C821    1.390   1_554 S
C204   H246    1.084   .     S
C204   C822    1.390   .     S
C205   H255    1.083   .     S
C205   C276    1.403   .     S
C206   H256    1.083   .     S
C206   C406    1.384   .     S
C206   C341    1.403   1_455 S
C207   C209    1.400   .     A
C207   H233    1.083   .     S
C207   C403    1.384   .     S
C208   C210    1.400   .     A
C208   H234    1.083   .     S
C209   C272    1.403   .     S
C210   C337    1.403   1_455 S
C211   H257    1.082   .     S
C211   N236    1.354   .     A
C211   C213    1.421   .     A
C212   H258    1.082   .     S
C212   N235    1.354   .     A
C212   C214    1.421   .     A
C213   C259    1.485   .     S
C213   N235    1.390   .     A
C214   C262    1.485   .     S
C214   N236    1.390   .     A
C215   C217    1.468   .     S
C215   O243    1.297   .     A
C215   O307    1.303   .     S
C216   O244    1.298   .     A
C216   C218    1.469   .     S
C216   O374    1.303   1_455 S
C217   C221    1.398   .     A
C217   C223    1.400   .     A
C218   C224    1.401   .     A
C218   C222    1.398   .     A
C219   C227    1.404   .     A
C219   H251    1.083   .     S
C219   C221    1.392   .     A
C220   H252    1.083   .     S
C220   C222    1.392   .     A
C220   C228    1.405   .     A
C221   H316    1.083   .     S
C222   H381    1.083   1_455 S
C223   C225    1.406   .     A
C223   H248    1.075   .     S
C224   C226    1.406   .     A
C224   H247    1.074   .     S
C225   C227    1.418   .     A
C225   C229    1.429   .     A
C226   C228    1.418   .     A
C226   C230    1.429   .     A
C227   C797    1.390   .     S
C228   C798    1.390   1_554 S
C229   C824    1.426   .     S
C230   C823    1.426   1_554 S
Cu231  O244    1.937   .     S
Cu231  O237    1.967   .     S
Cu231  O240    1.962   .     S
Cu231  O241    1.954   .     S
Cu231  N235    2.024   .     S
Cu231  Cu364   2.693   1_455 S
Cu232  O239    1.962   .     S
Cu232  O243    1.937   .     S
Cu232  O238    1.967   .     S
Cu232  O242    1.954   .     S
Cu232  N236    2.024   .     S
Cu232  Cu297   2.693   .     S
O239   C265    1.294   .     S
O240   C332    1.294   1_455 S
O241   C347    1.303   1_455 S
O242   C282    1.303   .     S
H249   C288    1.083   .     S
H250   C353    1.083   1_455 S
C259   H260    1.071   .     S
C259   O261    1.222   .     D
C262   H263    1.071   .     S
C262   O264    1.222   .     D
C265   C276    1.451   .     S
C265   O303    1.298   .     A
C266   O304    1.298   .     A
C266   C275    1.451   .     S
C266   O372    1.294   .     S
C267   C296    1.417   .     A
C267   H319    1.076   .     S
C267   C269    1.387   .     A
C268   H320    1.076   .     S
C268   C295    1.417   .     A
C268   C270    1.387   .     A
C269   H311    1.084   .     S
C269   C887    1.390   1_554 S
C270   H312    1.084   .     S
C270   C888    1.390   .     S
C271   H321    1.083   .     S
C271   C342    1.403   .     S
C272   H322    1.083   .     S
C272   C472    1.384   .     S
C273   C275    1.400   .     A
C273   H299    1.083   .     S
C273   C469    1.384   .     S
C274   C276    1.400   .     A
C274   H300    1.083   .     S
C275   C338    1.403   .     S
C277   H323    1.082   .     S
C277   N302    1.354   .     A
C277   C279    1.421   .     A
C278   H324    1.082   .     S
C278   N301    1.354   .     A
C278   C280    1.421   .     A
C279   C325    1.485   .     S
C279   N301    1.390   .     A
C280   C328    1.485   .     S
C280   N302    1.390   .     A
C281   C283    1.468   .     S
C281   O309    1.297   .     A
C281   O373    1.303   .     S
C282   O310    1.298   .     A
C282   C284    1.469   .     S
C283   C287    1.398   .     A
C283   C289    1.400   .     A
C284   C290    1.401   .     A
C284   C288    1.398   .     A
C285   C293    1.404   .     A
C285   H317    1.083   .     S
C285   C287    1.392   .     A
C286   H318    1.083   .     S
C286   C288    1.392   .     A
C286   C294    1.405   .     A
C287   H382    1.083   .     S
C289   C291    1.406   .     A
C289   H314    1.075   .     S
C290   C292    1.406   .     A
C290   H313    1.074   .     S
C291   C293    1.418   .     A
C291   C295    1.429   .     A
C292   C294    1.418   .     A
C292   C296    1.429   .     A
C293   C863    1.390   .     S
C294   C864    1.390   1_554 S
C295   C890    1.426   .     S
C296   C889    1.426   1_554 S
Cu297  O310    1.937   .     S
Cu297  O303    1.967   .     S
Cu297  O306    1.962   .     S
Cu297  O307    1.954   .     S
Cu297  N301    2.024   .     S
Cu298  O305    1.962   .     S
Cu298  O309    1.937   .     S
Cu298  O304    1.967   .     S
Cu298  O308    1.954   .     S
Cu298  N302    2.024   .     S
Cu298  Cu363   2.693   .     S
O305   C331    1.294   .     S
O308   C348    1.303   .     S
H315   C354    1.083   .     S
C325   H326    1.071   .     S
C325   O327    1.222   .     D
C328   H329    1.071   .     S
C328   O330    1.222   .     D
C331   C342    1.451   .     S
C331   O369    1.298   .     A
C332   O370    1.298   .     A
C332   C341    1.451   .     S
C332   O240    1.294   1_655 S
C333   C362    1.417   .     A
C333   H385    1.076   .     S
C333   C335    1.387   .     A
C334   H386    1.076   .     S
C334   C361    1.417   .     A
C334   C336    1.387   .     A
C335   H377    1.084   .     S
C335   C953    1.390   1_554 S
C336   H378    1.084   .     S
C336   C954    1.390   .     S
C337   H387    1.083   .     S
C337   C210    1.403   1_655 S
C338   H388    1.083   .     S
C338   C538    1.384   .     S
C339   C341    1.400   .     A
C339   H365    1.083   .     S
C339   C535    1.384   .     S
C340   C342    1.400   .     A
C340   H366    1.083   .     S
C341   C206    1.403   1_655 S
C343   H389    1.082   .     S
C343   N368    1.354   .     A
C343   C345    1.421   .     A
C344   H390    1.082   .     S
C344   N367    1.354   .     A
C344   C346    1.421   .     A
C345   C391    1.485   .     S
C345   N367    1.390   .     A
C346   C394    1.485   .     S
C346   N368    1.390   .     A
C347   C349    1.468   .     S
C347   O375    1.297   .     A
C347   O241    1.303   1_655 S
C348   O376    1.298   .     A
C348   C350    1.469   .     S
C349   C353    1.398   .     A
C349   C355    1.400   .     A
C350   C356    1.401   .     A
C350   C354    1.398   .     A
C351   C359    1.404   .     A
C351   H383    1.083   .     S
C351   C353    1.392   .     A
C352   H384    1.083   .     S
C352   C354    1.392   .     A
C352   C360    1.405   .     A
C353   H250    1.083   1_655 S
C355   C357    1.406   .     A
C355   H380    1.075   .     S
C356   C358    1.406   .     A
C356   H379    1.074   .     S
C357   C359    1.418   .     A
C357   C361    1.429   .     A
C358   C360    1.418   .     A
C358   C362    1.429   .     A
C359   C929    1.390   .     S
C360   C930    1.390   1_554 S
C361   C956    1.426   .     S
C362   C955    1.426   1_554 S
Cu363  O376    1.937   .     S
Cu363  O369    1.967   .     S
Cu363  O372    1.962   .     S
Cu363  O373    1.954   .     S
Cu363  N367    2.024   .     S
Cu364  O371    1.962   .     S
Cu364  O375    1.937   .     S
Cu364  O370    1.967   .     S
Cu364  O374    1.954   .     S
Cu364  N368    2.024   .     S
Cu364  Cu231   2.693   1_655 S
O371   C199    1.294   1_655 S
O374   C216    1.303   1_655 S
H381   C222    1.083   1_655 S
C391   H392    1.071   .     S
C391   O393    1.222   .     D
C394   H395    1.071   .     S
C394   O396    1.222   .     D
C397   C408    1.451   .     S
C397   O435    1.298   .     A
C397   O569    1.294   1_455 S
C398   O436    1.298   .     A
C398   C407    1.451   .     S
C398   O504    1.294   .     S
C399   C428    1.417   .     A
C399   H451    1.076   .     S
C399   C401    1.387   .     A
C400   H452    1.076   .     S
C400   C427    1.417   .     A
C400   C402    1.387   .     A
C401   H443    1.084   .     S
C401   C1019   1.390   1_554 S
C402   H444    1.084   .     S
C402   C1020   1.390   .     S
C403   H453    1.083   .     S
C403   C474    1.403   .     S
C404   H454    1.083   .     S
C404   C10     1.384   1_565 S
C404   C539    1.403   1_455 S
C405   C407    1.400   .     A
C405   H431    1.083   .     S
C405   C7      1.384   1_565 S
C406   C408    1.400   .     A
C406   H432    1.083   .     S
C407   C470    1.403   .     S
C408   C535    1.403   1_455 S
C409   H455    1.082   .     S
C409   N434    1.354   .     A
C409   C411    1.421   .     A
C410   H456    1.082   .     S
C410   N433    1.354   .     A
C410   C412    1.421   .     A
C411   C457    1.485   .     S
C411   N433    1.390   .     A
C412   C460    1.485   .     S
C412   N434    1.390   .     A
C413   C415    1.468   .     S
C413   O441    1.297   .     A
C413   O505    1.303   .     S
C414   O442    1.298   .     A
C414   C416    1.469   .     S
C414   O572    1.303   1_455 S
C415   C419    1.398   .     A
C415   C421    1.400   .     A
C416   C422    1.401   .     A
C416   C420    1.398   .     A
C417   C425    1.404   .     A
C417   H449    1.083   .     S
C417   C419    1.392   .     A
C418   H450    1.083   .     S
C418   C420    1.392   .     A
C418   C426    1.405   .     A
C419   H514    1.083   .     S
C420   H579    1.083   1_455 S
C421   C423    1.406   .     A
C421   H446    1.075   .     S
C422   C424    1.406   .     A
C422   H445    1.074   .     S
C423   C425    1.418   .     A
C423   C427    1.429   .     A
C424   C426    1.418   .     A
C424   C428    1.429   .     A
C425   C995    1.390   .     S
C426   C996    1.390   1_554 S
C427   C1022   1.426   .     S
C428   C1021   1.426   1_554 S
Cu429  O442    1.937   .     S
Cu429  O435    1.967   .     S
Cu429  O438    1.962   .     S
Cu429  O439    1.954   .     S
Cu429  N433    2.024   .     S
Cu429  Cu562   2.693   1_455 S
Cu430  O437    1.962   .     S
Cu430  O441    1.937   .     S
Cu430  O436    1.967   .     S
Cu430  O440    1.954   .     S
Cu430  N434    2.024   .     S
Cu430  Cu495   2.693   .     S
O437   C463    1.294   .     S
O438   C530    1.294   1_455 S
O439   C545    1.303   1_455 S
O440   C480    1.303   .     S
H447   C486    1.083   .     S
H448   C551    1.083   1_455 S
C457   H458    1.071   .     S
C457   O459    1.222   .     D
C460   H461    1.071   .     S
C460   O462    1.222   .     D
C463   C474    1.451   .     S
C463   O501    1.298   .     A
C464   O502    1.298   .     A
C464   C473    1.451   .     S
C464   O570    1.294   .     S
C465   C494    1.417   .     A
C465   H517    1.076   .     S
C465   C467    1.387   .     A
C466   H518    1.076   .     S
C466   C493    1.417   .     A
C466   C468    1.387   .     A
C467   H509    1.084   .     S
C467   C1085   1.390   1_554 S
C468   H510    1.084   .     S
C468   C1086   1.390   .     S
C469   H519    1.083   .     S
C469   C540    1.403   .     S
C470   H520    1.083   .     S
C470   C76     1.384   1_565 S
C471   C473    1.400   .     A
C471   H497    1.083   .     S
C471   C73     1.384   1_565 S
C472   C474    1.400   .     A
C472   H498    1.083   .     S
C473   C536    1.403   .     S
C475   H521    1.082   .     S
C475   N500    1.354   .     A
C475   C477    1.421   .     A
C476   H522    1.082   .     S
C476   N499    1.354   .     A
C476   C478    1.421   .     A
C477   C523    1.485   .     S
C477   N499    1.390   .     A
C478   C526    1.485   .     S
C478   N500    1.390   .     A
C479   C481    1.468   .     S
C479   O507    1.297   .     A
C479   O571    1.303   .     S
C480   O508    1.298   .     A
C480   C482    1.469   .     S
C481   C485    1.398   .     A
C481   C487    1.400   .     A
C482   C488    1.401   .     A
C482   C486    1.398   .     A
C483   C491    1.404   .     A
C483   H515    1.083   .     S
C483   C485    1.392   .     A
C484   H516    1.083   .     S
C484   C486    1.392   .     A
C484   C492    1.405   .     A
C485   H580    1.083   .     S
C487   C489    1.406   .     A
C487   H512    1.075   .     S
C488   C490    1.406   .     A
C488   H511    1.074   .     S
C489   C491    1.418   .     A
C489   C493    1.429   .     A
C490   C492    1.418   .     A
C490   C494    1.429   .     A
C491   C1061   1.390   .     S
C492   C1062   1.390   1_554 S
C493   C1088   1.426   .     S
C494   C1087   1.426   1_554 S
Cu495  O508    1.937   .     S
Cu495  O501    1.967   .     S
Cu495  O504    1.962   .     S
Cu495  O505    1.954   .     S
Cu495  N499    2.024   .     S
Cu496  O503    1.962   .     S
Cu496  O507    1.937   .     S
Cu496  O502    1.967   .     S
Cu496  O506    1.954   .     S
Cu496  N500    2.024   .     S
Cu496  Cu561   2.693   .     S
O503   C529    1.294   .     S
O506   C546    1.303   .     S
H513   C552    1.083   .     S
C523   H524    1.071   .     S
C523   O525    1.222   .     D
C526   H527    1.071   .     S
C526   O528    1.222   .     D
C529   C540    1.451   .     S
C529   O567    1.298   .     A
C530   O568    1.298   .     A
C530   C539    1.451   .     S
C530   O438    1.294   1_655 S
C531   C560    1.417   .     A
C531   H583    1.076   .     S
C531   C533    1.387   .     A
C532   H584    1.076   .     S
C532   C559    1.417   .     A
C532   C534    1.387   .     A
C533   H575    1.084   .     S
C533   C1151   1.390   1_554 S
C534   H576    1.084   .     S
C534   C1152   1.390   .     S
C535   H585    1.083   .     S
C535   C408    1.403   1_655 S
C536   H586    1.083   .     S
C536   C142    1.384   1_565 S
C537   C539    1.400   .     A
C537   H563    1.083   .     S
C537   C139    1.384   1_565 S
C538   C540    1.400   .     A
C538   H564    1.083   .     S
C539   C404    1.403   1_655 S
C541   H587    1.082   .     S
C541   N566    1.354   .     A
C541   C543    1.421   .     A
C542   H588    1.082   .     S
C542   N565    1.354   .     A
C542   C544    1.421   .     A
C543   C589    1.485   .     S
C543   N565    1.390   .     A
C544   C592    1.485   .     S
C544   N566    1.390   .     A
C545   C547    1.468   .     S
C545   O573    1.297   .     A
C545   O439    1.303   1_655 S
C546   O574    1.298   .     A
C546   C548    1.469   .     S
C547   C551    1.398   .     A
C547   C553    1.400   .     A
C548   C554    1.401   .     A
C548   C552    1.398   .     A
C549   C557    1.404   .     A
C549   H581    1.083   .     S
C549   C551    1.392   .     A
C550   H582    1.083   .     S
C550   C552    1.392   .     A
C550   C558    1.405   .     A
C551   H448    1.083   1_655 S
C553   C555    1.406   .     A
C553   H578    1.075   .     S
C554   C556    1.406   .     A
C554   H577    1.074   .     S
C555   C557    1.418   .     A
C555   C559    1.429   .     A
C556   C558    1.418   .     A
C556   C560    1.429   .     A
C557   C1127   1.390   .     S
C558   C1128   1.390   1_554 S
C559   C1154   1.426   .     S
C560   C1153   1.426   1_554 S
Cu561  O574    1.937   .     S
Cu561  O567    1.967   .     S
Cu561  O570    1.962   .     S
Cu561  O571    1.954   .     S
Cu561  N565    2.024   .     S
Cu562  O569    1.962   .     S
Cu562  O573    1.937   .     S
Cu562  O568    1.967   .     S
Cu562  O572    1.954   .     S
Cu562  N566    2.024   .     S
Cu562  Cu429   2.693   1_655 S
O569   C397    1.294   1_655 S
O572   C414    1.303   1_655 S
H579   C420    1.083   1_655 S
C589   H590    1.071   .     S
C589   O591    1.222   .     D
C592   H593    1.071   .     S
C592   O594    1.222   .     D
C595   C606    1.451   .     S
C595   O633    1.298   .     A
C595   O767    1.294   1_455 S
C596   O634    1.298   .     A
C596   C605    1.451   .     S
C596   O702    1.294   .     S
C597   C626    1.417   .     A
C597   H649    1.076   .     S
C597   C599    1.387   .     A
C598   H650    1.076   .     S
C598   C625    1.417   .     A
C598   C600    1.387   .     A
C599   H641    1.084   .     S
C600   H642    1.084   .     S
C600   C30     1.390   1_556 S
C601   H651    1.083   .     S
C601   C999    1.384   1_545 S
C601   C672    1.403   .     S
C602   H652    1.083   .     S
C602   C802    1.384   .     S
C602   C737    1.403   1_455 S
C603   C605    1.400   .     A
C603   H629    1.083   .     S
C603   C799    1.384   .     S
C604   C606    1.400   .     A
C604   H630    1.083   .     S
C604   C998    1.384   1_545 S
C605   C668    1.403   .     S
C606   C733    1.403   1_455 S
C607   H653    1.082   .     S
C607   N632    1.354   .     A
C607   C609    1.421   .     A
C608   H654    1.082   .     S
C608   N631    1.354   .     A
C608   C610    1.421   .     A
C609   C655    1.485   .     S
C609   N631    1.390   .     A
C610   C658    1.485   .     S
C610   N632    1.390   .     A
C611   C613    1.468   .     S
C611   O639    1.297   .     A
C611   O703    1.303   .     S
C612   O640    1.298   .     A
C612   C614    1.469   .     S
C612   O770    1.303   1_455 S
C613   C617    1.398   .     A
C613   C619    1.400   .     A
C614   C620    1.401   .     A
C614   C618    1.398   .     A
C615   C623    1.404   .     A
C615   H647    1.083   .     S
C615   C617    1.392   .     A
C616   H648    1.083   .     S
C616   C618    1.392   .     A
C616   C624    1.405   .     A
C617   H712    1.083   .     S
C618   H777    1.083   1_455 S
C619   C621    1.406   .     A
C619   H644    1.075   .     S
C620   C622    1.406   .     A
C620   H643    1.074   .     S
C621   C623    1.418   .     A
C621   C625    1.429   .     A
C622   C624    1.418   .     A
C622   C626    1.429   .     A
C623   C5      1.390   1_556 S
C625   C32     1.426   1_556 S
Cu627  O640    1.937   .     S
Cu627  O633    1.967   .     S
Cu627  O636    1.962   .     S
Cu627  O637    1.954   .     S
Cu627  N631    2.024   .     S
Cu627  Cu760   2.693   1_455 S
Cu628  O635    1.962   .     S
Cu628  O639    1.937   .     S
Cu628  O634    1.967   .     S
Cu628  O638    1.954   .     S
Cu628  N632    2.024   .     S
Cu628  Cu693   2.693   .     S
O635   C661    1.294   .     S
O636   C728    1.294   1_455 S
O637   C743    1.303   1_455 S
O638   C678    1.303   .     S
H645   C684    1.083   .     S
H646   C749    1.083   1_455 S
C655   H656    1.071   .     S
C655   O657    1.222   .     D
C658   H659    1.071   .     S
C658   O660    1.222   .     D
C661   C672    1.451   .     S
C661   O699    1.298   .     A
C662   O700    1.298   .     A
C662   C671    1.451   .     S
C662   O768    1.294   .     S
C663   C692    1.417   .     A
C663   H715    1.076   .     S
C663   C665    1.387   .     A
C664   H716    1.076   .     S
C664   C691    1.417   .     A
C664   C666    1.387   .     A
C665   H707    1.084   .     S
C666   H708    1.084   .     S
C666   C96     1.390   1_556 S
C667   H717    1.083   .     S
C667   C1065   1.384   1_545 S
C667   C738    1.403   .     S
C668   H718    1.083   .     S
C668   C868    1.384   .     S
C669   C671    1.400   .     A
C669   H695    1.083   .     S
C669   C865    1.384   .     S
C670   C672    1.400   .     A
C670   H696    1.083   .     S
C670   C1064   1.384   1_545 S
C671   C734    1.403   .     S
C673   H719    1.082   .     S
C673   N698    1.354   .     A
C673   C675    1.421   .     A
C674   H720    1.082   .     S
C674   N697    1.354   .     A
C674   C676    1.421   .     A
C675   C721    1.485   .     S
C675   N697    1.390   .     A
C676   C724    1.485   .     S
C676   N698    1.390   .     A
C677   C679    1.468   .     S
C677   O705    1.297   .     A
C677   O769    1.303   .     S
C678   O706    1.298   .     A
C678   C680    1.469   .     S
C679   C683    1.398   .     A
C679   C685    1.400   .     A
C680   C686    1.401   .     A
C680   C684    1.398   .     A
C681   C689    1.404   .     A
C681   H713    1.083   .     S
C681   C683    1.392   .     A
C682   H714    1.083   .     S
C682   C684    1.392   .     A
C682   C690    1.405   .     A
C683   H778    1.083   .     S
C685   C687    1.406   .     A
C685   H710    1.075   .     S
C686   C688    1.406   .     A
C686   H709    1.074   .     S
C687   C689    1.418   .     A
C687   C691    1.429   .     A
C688   C690    1.418   .     A
C688   C692    1.429   .     A
C689   C71     1.390   1_556 S
C691   C98     1.426   1_556 S
Cu693  O706    1.937   .     S
Cu693  O699    1.967   .     S
Cu693  O702    1.962   .     S
Cu693  O703    1.954   .     S
Cu693  N697    2.024   .     S
Cu694  O701    1.962   .     S
Cu694  O705    1.937   .     S
Cu694  O700    1.967   .     S
Cu694  O704    1.954   .     S
Cu694  N698    2.024   .     S
Cu694  Cu759   2.693   .     S
O701   C727    1.294   .     S
O704   C744    1.303   .     S
H711   C750    1.083   .     S
C721   H722    1.071   .     S
C721   O723    1.222   .     D
C724   H725    1.071   .     S
C724   O726    1.222   .     D
C727   C738    1.451   .     S
C727   O765    1.298   .     A
C728   O766    1.298   .     A
C728   C737    1.451   .     S
C728   O636    1.294   1_655 S
C729   C758    1.417   .     A
C729   H781    1.076   .     S
C729   C731    1.387   .     A
C730   H782    1.076   .     S
C730   C757    1.417   .     A
C730   C732    1.387   .     A
C731   H773    1.084   .     S
C732   H774    1.084   .     S
C732   C162    1.390   1_556 S
C733   H783    1.083   .     S
C733   C1131   1.384   1_545 S
C733   C606    1.403   1_655 S
C734   H784    1.083   .     S
C734   C934    1.384   .     S
C735   C737    1.400   .     A
C735   H761    1.083   .     S
C735   C931    1.384   .     S
C736   C738    1.400   .     A
C736   H762    1.083   .     S
C736   C1130   1.384   1_545 S
C737   C602    1.403   1_655 S
C739   H785    1.082   .     S
C739   N764    1.354   .     A
C739   C741    1.421   .     A
C740   H786    1.082   .     S
C740   N763    1.354   .     A
C740   C742    1.421   .     A
C741   C787    1.485   .     S
C741   N763    1.390   .     A
C742   C790    1.485   .     S
C742   N764    1.390   .     A
C743   C745    1.468   .     S
C743   O771    1.297   .     A
C743   O637    1.303   1_655 S
C744   O772    1.298   .     A
C744   C746    1.469   .     S
C745   C749    1.398   .     A
C745   C751    1.400   .     A
C746   C752    1.401   .     A
C746   C750    1.398   .     A
C747   C755    1.404   .     A
C747   H779    1.083   .     S
C747   C749    1.392   .     A
C748   H780    1.083   .     S
C748   C750    1.392   .     A
C748   C756    1.405   .     A
C749   H646    1.083   1_655 S
C751   C753    1.406   .     A
C751   H776    1.075   .     S
C752   C754    1.406   .     A
C752   H775    1.074   .     S
C753   C755    1.418   .     A
C753   C757    1.429   .     A
C754   C756    1.418   .     A
C754   C758    1.429   .     A
C755   C137    1.390   1_556 S
C757   C164    1.426   1_556 S
Cu759  O772    1.937   .     S
Cu759  O765    1.967   .     S
Cu759  O768    1.962   .     S
Cu759  O769    1.954   .     S
Cu759  N763    2.024   .     S
Cu760  O767    1.962   .     S
Cu760  O771    1.937   .     S
Cu760  O766    1.967   .     S
Cu760  O770    1.954   .     S
Cu760  N764    2.024   .     S
Cu760  Cu627   2.693   1_655 S
O767   C595    1.294   1_655 S
O770   C612    1.303   1_655 S
H777   C618    1.083   1_655 S
C787   H788    1.071   .     S
C787   O789    1.222   .     D
C790   H791    1.071   .     S
C790   O792    1.222   .     D
C793   C804    1.451   .     S
C793   O831    1.298   .     A
C793   O965    1.294   1_455 S
C794   O832    1.298   .     A
C794   C803    1.451   .     S
C794   O900    1.294   .     S
C795   C824    1.417   .     A
C795   H847    1.076   .     S
C795   C797    1.387   .     A
C796   H848    1.076   .     S
C796   C823    1.417   .     A
C796   C798    1.387   .     A
C797   H839    1.084   .     S
C798   H840    1.084   .     S
C798   C228    1.390   1_556 S
C799   H849    1.083   .     S
C799   C870    1.403   .     S
C800   H850    1.083   .     S
C800   C1000   1.384   .     S
C800   C935    1.403   1_455 S
C801   C803    1.400   .     A
C801   H827    1.083   .     S
C801   C997    1.384   .     S
C802   C804    1.400   .     A
C802   H828    1.083   .     S
C803   C866    1.403   .     S
C804   C931    1.403   1_455 S
C805   H851    1.082   .     S
C805   N830    1.354   .     A
C805   C807    1.421   .     A
C806   H852    1.082   .     S
C806   N829    1.354   .     A
C806   C808    1.421   .     A
C807   C853    1.485   .     S
C807   N829    1.390   .     A
C808   C856    1.485   .     S
C808   N830    1.390   .     A
C809   C811    1.468   .     S
C809   O837    1.297   .     A
C809   O901    1.303   .     S
C810   O838    1.298   .     A
C810   C812    1.469   .     S
C810   O968    1.303   1_455 S
C811   C815    1.398   .     A
C811   C817    1.400   .     A
C812   C818    1.401   .     A
C812   C816    1.398   .     A
C813   C821    1.404   .     A
C813   H845    1.083   .     S
C813   C815    1.392   .     A
C814   H846    1.083   .     S
C814   C816    1.392   .     A
C814   C822    1.405   .     A
C815   H910    1.083   .     S
C816   H975    1.083   1_455 S
C817   C819    1.406   .     A
C817   H842    1.075   .     S
C818   C820    1.406   .     A
C818   H841    1.074   .     S
C819   C821    1.418   .     A
C819   C823    1.429   .     A
C820   C822    1.418   .     A
C820   C824    1.429   .     A
C821   C203    1.390   1_556 S
C823   C230    1.426   1_556 S
Cu825  O838    1.937   .     S
Cu825  O831    1.967   .     S
Cu825  O834    1.962   .     S
Cu825  O835    1.954   .     S
Cu825  N829    2.024   .     S
Cu825  Cu958   2.693   1_455 S
Cu826  O833    1.962   .     S
Cu826  O837    1.937   .     S
Cu826  O832    1.967   .     S
Cu826  O836    1.954   .     S
Cu826  N830    2.024   .     S
Cu826  Cu891   2.693   .     S
O833   C859    1.294   .     S
O834   C926    1.294   1_455 S
O835   C941    1.303   1_455 S
O836   C876    1.303   .     S
H843   C882    1.083   .     S
H844   C947    1.083   1_455 S
C853   H854    1.071   .     S
C853   O855    1.222   .     D
C856   H857    1.071   .     S
C856   O858    1.222   .     D
C859   C870    1.451   .     S
C859   O897    1.298   .     A
C860   O898    1.298   .     A
C860   C869    1.451   .     S
C860   O966    1.294   .     S
C861   C890    1.417   .     A
C861   H913    1.076   .     S
C861   C863    1.387   .     A
C862   H914    1.076   .     S
C862   C889    1.417   .     A
C862   C864    1.387   .     A
C863   H905    1.084   .     S
C864   H906    1.084   .     S
C864   C294    1.390   1_556 S
C865   H915    1.083   .     S
C865   C936    1.403   .     S
C866   H916    1.083   .     S
C866   C1066   1.384   .     S
C867   C869    1.400   .     A
C867   H893    1.083   .     S
C867   C1063   1.384   .     S
C868   C870    1.400   .     A
C868   H894    1.083   .     S
C869   C932    1.403   .     S
C871   H917    1.082   .     S
C871   N896    1.354   .     A
C871   C873    1.421   .     A
C872   H918    1.082   .     S
C872   N895    1.354   .     A
C872   C874    1.421   .     A
C873   C919    1.485   .     S
C873   N895    1.390   .     A
C874   C922    1.485   .     S
C874   N896    1.390   .     A
C875   C877    1.468   .     S
C875   O903    1.297   .     A
C875   O967    1.303   .     S
C876   O904    1.298   .     A
C876   C878    1.469   .     S
C877   C881    1.398   .     A
C877   C883    1.400   .     A
C878   C884    1.401   .     A
C878   C882    1.398   .     A
C879   C887    1.404   .     A
C879   H911    1.083   .     S
C879   C881    1.392   .     A
C880   H912    1.083   .     S
C880   C882    1.392   .     A
C880   C888    1.405   .     A
C881   H976    1.083   .     S
C883   C885    1.406   .     A
C883   H908    1.075   .     S
C884   C886    1.406   .     A
C884   H907    1.074   .     S
C885   C887    1.418   .     A
C885   C889    1.429   .     A
C886   C888    1.418   .     A
C886   C890    1.429   .     A
C887   C269    1.390   1_556 S
C889   C296    1.426   1_556 S
Cu891  O904    1.937   .     S
Cu891  O897    1.967   .     S
Cu891  O900    1.962   .     S
Cu891  O901    1.954   .     S
Cu891  N895    2.024   .     S
Cu892  O899    1.962   .     S
Cu892  O903    1.937   .     S
Cu892  O898    1.967   .     S
Cu892  O902    1.954   .     S
Cu892  N896    2.024   .     S
Cu892  Cu957   2.693   .     S
O899   C925    1.294   .     S
O902   C942    1.303   .     S
H909   C948    1.083   .     S
C919   H920    1.071   .     S
C919   O921    1.222   .     D
C922   H923    1.071   .     S
C922   O924    1.222   .     D
C925   C936    1.451   .     S
C925   O963    1.298   .     A
C926   O964    1.298   .     A
C926   C935    1.451   .     S
C926   O834    1.294   1_655 S
C927   C956    1.417   .     A
C927   H979    1.076   .     S
C927   C929    1.387   .     A
C928   H980    1.076   .     S
C928   C955    1.417   .     A
C928   C930    1.387   .     A
C929   H971    1.084   .     S
C930   H972    1.084   .     S
C930   C360    1.390   1_556 S
C931   H981    1.083   .     S
C931   C804    1.403   1_655 S
C932   H982    1.083   .     S
C932   C1132   1.384   .     S
C933   C935    1.400   .     A
C933   H959    1.083   .     S
C933   C1129   1.384   .     S
C934   C936    1.400   .     A
C934   H960    1.083   .     S
C935   C800    1.403   1_655 S
C937   H983    1.082   .     S
C937   N962    1.354   .     A
C937   C939    1.421   .     A
C938   H984    1.082   .     S
C938   N961    1.354   .     A
C938   C940    1.421   .     A
C939   C985    1.485   .     S
C939   N961    1.390   .     A
C940   C988    1.485   .     S
C940   N962    1.390   .     A
C941   C943    1.468   .     S
C941   O969    1.297   .     A
C941   O835    1.303   1_655 S
C942   O970    1.298   .     A
C942   C944    1.469   .     S
C943   C947    1.398   .     A
C943   C949    1.400   .     A
C944   C950    1.401   .     A
C944   C948    1.398   .     A
C945   C953    1.404   .     A
C945   H977    1.083   .     S
C945   C947    1.392   .     A
C946   H978    1.083   .     S
C946   C948    1.392   .     A
C946   C954    1.405   .     A
C947   H844    1.083   1_655 S
C949   C951    1.406   .     A
C949   H974    1.075   .     S
C950   C952    1.406   .     A
C950   H973    1.074   .     S
C951   C953    1.418   .     A
C951   C955    1.429   .     A
C952   C954    1.418   .     A
C952   C956    1.429   .     A
C953   C335    1.390   1_556 S
C955   C362    1.426   1_556 S
Cu957  O970    1.937   .     S
Cu957  O963    1.967   .     S
Cu957  O966    1.962   .     S
Cu957  O967    1.954   .     S
Cu957  N961    2.024   .     S
Cu958  O965    1.962   .     S
Cu958  O969    1.937   .     S
Cu958  O964    1.967   .     S
Cu958  O968    1.954   .     S
Cu958  N962    2.024   .     S
Cu958  Cu825   2.693   1_655 S
O965   C793    1.294   1_655 S
O968   C810    1.303   1_655 S
H975   C816    1.083   1_655 S
C985   H986    1.071   .     S
C985   O987    1.222   .     D
C988   H989    1.071   .     S
C988   O990    1.222   .     D
C991   C1002   1.451   .     S
C991   O1029   1.298   .     A
C991   O1163   1.294   1_455 S
C992   O1030   1.298   .     A
C992   C1001   1.451   .     S
C992   O1098   1.294   .     S
C993   C1022   1.417   .     A
C993   H1045   1.076   .     S
C993   C995    1.387   .     A
C994   H1046   1.076   .     S
C994   C1021   1.417   .     A
C994   C996    1.387   .     A
C995   H1037   1.084   .     S
C996   H1038   1.084   .     S
C996   C426    1.390   1_556 S
C997   H1047   1.083   .     S
C997   C1068   1.403   .     S
C998   H1048   1.083   .     S
C998   C604    1.384   1_565 S
C998   C1133   1.403   1_455 S
C999   C1001   1.400   .     A
C999   H1025   1.083   .     S
C999   C601    1.384   1_565 S
C1000  C1002   1.400   .     A
C1000  H1026   1.083   .     S
C1001  C1064   1.403   .     S
C1002  C1129   1.403   1_455 S
C1003  H1049   1.082   .     S
C1003  N1028   1.354   .     A
C1003  C1005   1.421   .     A
C1004  H1050   1.082   .     S
C1004  N1027   1.354   .     A
C1004  C1006   1.421   .     A
C1005  C1051   1.485   .     S
C1005  N1027   1.390   .     A
C1006  C1054   1.485   .     S
C1006  N1028   1.390   .     A
C1007  C1009   1.468   .     S
C1007  O1035   1.297   .     A
C1007  O1099   1.303   .     S
C1008  O1036   1.298   .     A
C1008  C1010   1.469   .     S
C1008  O1166   1.303   1_455 S
C1009  C1013   1.398   .     A
C1009  C1015   1.400   .     A
C1010  C1016   1.401   .     A
C1010  C1014   1.398   .     A
C1011  C1019   1.404   .     A
C1011  H1043   1.083   .     S
C1011  C1013   1.392   .     A
C1012  H1044   1.083   .     S
C1012  C1014   1.392   .     A
C1012  C1020   1.405   .     A
C1013  H1108   1.083   .     S
C1014  H1173   1.083   1_455 S
C1015  C1017   1.406   .     A
C1015  H1040   1.075   .     S
C1016  C1018   1.406   .     A
C1016  H1039   1.074   .     S
C1017  C1019   1.418   .     A
C1017  C1021   1.429   .     A
C1018  C1020   1.418   .     A
C1018  C1022   1.429   .     A
C1019  C401    1.390   1_556 S
C1021  C428    1.426   1_556 S
Cu1023 O1036   1.937   .     S
Cu1023 O1029   1.967   .     S
Cu1023 O1032   1.962   .     S
Cu1023 O1033   1.954   .     S
Cu1023 N1027   2.024   .     S
Cu1023 Cu1156  2.693   1_455 S
Cu1024 O1031   1.962   .     S
Cu1024 O1035   1.937   .     S
Cu1024 O1030   1.967   .     S
Cu1024 O1034   1.954   .     S
Cu1024 N1028   2.024   .     S
Cu1024 Cu1089  2.693   .     S
O1031  C1057   1.294   .     S
O1032  C1124   1.294   1_455 S
O1033  C1139   1.303   1_455 S
O1034  C1074   1.303   .     S
H1041  C1080   1.083   .     S
H1042  C1145   1.083   1_455 S
C1051  H1052   1.071   .     S
C1051  O1053   1.222   .     D
C1054  H1055   1.071   .     S
C1054  O1056   1.222   .     D
C1057  C1068   1.451   .     S
C1057  O1095   1.298   .     A
C1058  O1096   1.298   .     A
C1058  C1067   1.451   .     S
C1058  O1164   1.294   .     S
C1059  C1088   1.417   .     A
C1059  H1111   1.076   .     S
C1059  C1061   1.387   .     A
C1060  H1112   1.076   .     S
C1060  C1087   1.417   .     A
C1060  C1062   1.387   .     A
C1061  H1103   1.084   .     S
C1062  H1104   1.084   .     S
C1062  C492    1.390   1_556 S
C1063  H1113   1.083   .     S
C1063  C1134   1.403   .     S
C1064  H1114   1.083   .     S
C1064  C670    1.384   1_565 S
C1065  C1067   1.400   .     A
C1065  H1091   1.083   .     S
C1065  C667    1.384   1_565 S
C1066  C1068   1.400   .     A
C1066  H1092   1.083   .     S
C1067  C1130   1.403   .     S
C1069  H1115   1.082   .     S
C1069  N1094   1.354   .     A
C1069  C1071   1.421   .     A
C1070  H1116   1.082   .     S
C1070  N1093   1.354   .     A
C1070  C1072   1.421   .     A
C1071  C1117   1.485   .     S
C1071  N1093   1.390   .     A
C1072  C1120   1.485   .     S
C1072  N1094   1.390   .     A
C1073  C1075   1.468   .     S
C1073  O1101   1.297   .     A
C1073  O1165   1.303   .     S
C1074  O1102   1.298   .     A
C1074  C1076   1.469   .     S
C1075  C1079   1.398   .     A
C1075  C1081   1.400   .     A
C1076  C1082   1.401   .     A
C1076  C1080   1.398   .     A
C1077  C1085   1.404   .     A
C1077  H1109   1.083   .     S
C1077  C1079   1.392   .     A
C1078  H1110   1.083   .     S
C1078  C1080   1.392   .     A
C1078  C1086   1.405   .     A
C1079  H1174   1.083   .     S
C1081  C1083   1.406   .     A
C1081  H1106   1.075   .     S
C1082  C1084   1.406   .     A
C1082  H1105   1.074   .     S
C1083  C1085   1.418   .     A
C1083  C1087   1.429   .     A
C1084  C1086   1.418   .     A
C1084  C1088   1.429   .     A
C1085  C467    1.390   1_556 S
C1087  C494    1.426   1_556 S
Cu1089 O1102   1.937   .     S
Cu1089 O1095   1.967   .     S
Cu1089 O1098   1.962   .     S
Cu1089 O1099   1.954   .     S
Cu1089 N1093   2.024   .     S
Cu1090 O1097   1.962   .     S
Cu1090 O1101   1.937   .     S
Cu1090 O1096   1.967   .     S
Cu1090 O1100   1.954   .     S
Cu1090 N1094   2.024   .     S
Cu1090 Cu1155  2.693   .     S
O1097  C1123   1.294   .     S
O1100  C1140   1.303   .     S
H1107  C1146   1.083   .     S
C1117  H1118   1.071   .     S
C1117  O1119   1.222   .     D
C1120  H1121   1.071   .     S
C1120  O1122   1.222   .     D
C1123  C1134   1.451   .     S
C1123  O1161   1.298   .     A
C1124  O1162   1.298   .     A
C1124  C1133   1.451   .     S
C1124  O1032   1.294   1_655 S
C1125  C1154   1.417   .     A
C1125  H1177   1.076   .     S
C1125  C1127   1.387   .     A
C1126  H1178   1.076   .     S
C1126  C1153   1.417   .     A
C1126  C1128   1.387   .     A
C1127  H1169   1.084   .     S
C1128  H1170   1.084   .     S
C1128  C558    1.390   1_556 S
C1129  H1179   1.083   .     S
C1129  C1002   1.403   1_655 S
C1130  H1180   1.083   .     S
C1130  C736    1.384   1_565 S
C1131  C1133   1.400   .     A
C1131  H1157   1.083   .     S
C1131  C733    1.384   1_565 S
C1132  C1134   1.400   .     A
C1132  H1158   1.083   .     S
C1133  C998    1.403   1_655 S
C1135  H1181   1.082   .     S
C1135  N1160   1.354   .     A
C1135  C1137   1.421   .     A
C1136  H1182   1.082   .     S
C1136  N1159   1.354   .     A
C1136  C1138   1.421   .     A
C1137  C1183   1.485   .     S
C1137  N1159   1.390   .     A
C1138  C1186   1.485   .     S
C1138  N1160   1.390   .     A
C1139  C1141   1.468   .     S
C1139  O1167   1.297   .     A
C1139  O1033   1.303   1_655 S
C1140  O1168   1.298   .     A
C1140  C1142   1.469   .     S
C1141  C1145   1.398   .     A
C1141  C1147   1.400   .     A
C1142  C1148   1.401   .     A
C1142  C1146   1.398   .     A
C1143  C1151   1.404   .     A
C1143  H1175   1.083   .     S
C1143  C1145   1.392   .     A
C1144  H1176   1.083   .     S
C1144  C1146   1.392   .     A
C1144  C1152   1.405   .     A
C1145  H1042   1.083   1_655 S
C1147  C1149   1.406   .     A
C1147  H1172   1.075   .     S
C1148  C1150   1.406   .     A
C1148  H1171   1.074   .     S
C1149  C1151   1.418   .     A
C1149  C1153   1.429   .     A
C1150  C1152   1.418   .     A
C1150  C1154   1.429   .     A
C1151  C533    1.390   1_556 S
C1153  C560    1.426   1_556 S
Cu1155 O1168   1.937   .     S
Cu1155 O1161   1.967   .     S
Cu1155 O1164   1.962   .     S
Cu1155 O1165   1.954   .     S
Cu1155 N1159   2.024   .     S
Cu1156 O1163   1.962   .     S
Cu1156 O1167   1.937   .     S
Cu1156 O1162   1.967   .     S
Cu1156 O1166   1.954   .     S
Cu1156 N1160   2.024   .     S
Cu1156 Cu1023  2.693   1_655 S
O1163  C991    1.294   1_655 S
O1166  C1008   1.303   1_655 S
H1173  C1014   1.083   1_655 S
C1183  H1184   1.071   .     S
C1183  O1185   1.222   .     D
C1186  H1187   1.071   .     S
C1186  O1188   1.222   .     D
