data_str_m3_o10_o16_pcu_sym.122
_audit_creation_date              2020-01-03
_audit_creation_method            'Materials Studio'
_symmetry_space_group_name_H-M    'P1'
_symmetry_Int_Tables_number       1
_symmetry_cell_setting            triclinic
loop_
_symmetry_equiv_pos_as_xyz
  x,y,z
_cell_length_a                    23.4637
_cell_length_b                    25.7850
_cell_length_c                    24.3907
_cell_angle_alpha                 92.4678
_cell_angle_beta                  100.8597
_cell_angle_gamma                 94.2336
loop_
_atom_site_label
_atom_site_type_symbol
_atom_site_fract_x
_atom_site_fract_y
_atom_site_fract_z
_atom_site_U_iso_or_equiv
_atom_site_adp_type
_atom_site_occupancy
C1     C     0.01500   0.26480   0.24881   0.00000  Uiso   1.00
C2     C     0.05451   0.17384   0.41528   0.00000  Uiso   1.00
C3     C     0.02360   0.31906   0.24852   0.00000  Uiso   1.00
C4     C     0.03535   0.16833   0.35501   0.00000  Uiso   1.00
C5     C     0.31166   0.01388   0.25247   0.00000  Uiso   1.00
C6     C     0.31867   0.06843   0.25157   0.00000  Uiso   1.00
C7     C     0.29777   0.16369   0.14504   0.00000  Uiso   1.00
C8     C     0.27795   0.11392   0.49667   0.00000  Uiso   1.00
C9     C     0.27854   0.15910   0.08508   0.00000  Uiso   1.00
C10    C     0.02726   0.20835   0.44567   0.00000  Uiso   1.00
C11    C     0.05698   0.23113   0.49636   0.00000  Uiso   1.00
C12    C     0.13968   0.17993   0.48999   0.00000  Uiso   1.00
C13    C     0.11399   0.22015   0.01679   0.00000  Uiso   1.00
C14    C     0.10785   0.15540   0.43947   0.00000  Uiso   1.00
C15    C     0.19599   0.16383   0.01016   0.00000  Uiso   1.00
C16    C     0.22138   0.12819   0.47757   0.00000  Uiso   1.00
C17    C     0.18828   0.10376   0.42892   0.00000  Uiso   1.00
C18    C     0.13110   0.11480   0.41211   0.00000  Uiso   1.00
C19    C     0.22543   0.17792   0.06411   0.00000  Uiso   1.00
C20    C     0.30685   0.12971   0.05058   0.00000  Uiso   1.00
F21    F     0.14395   0.25296   0.05904   0.00000  Uiso   1.00
F22    F     0.07781   0.00622   0.24427   0.00000  Uiso   1.00
H23    H     0.01530   0.11533   0.06665   0.00000  Uiso   1.00
H24    H     0.10545   0.09197   0.37643   0.00000  Uiso   1.00
H25    H     0.26887   0.33005   0.25608   0.00000  Uiso   1.00
H26    H     0.15674   0.12513   0.20833   0.00000  Uiso   1.00
H27    H     0.17659   0.20816   0.29171   0.00000  Uiso   1.00
H28    H     0.20570   0.07426   0.40527   0.00000  Uiso   1.00
H29    H     0.29814   0.08793   0.47139   0.00000  Uiso   1.00
H30    H     0.20484   0.19844   0.09316   0.00000  Uiso   1.00
H31    H     0.31886   0.22187   0.42774   0.00000  Uiso   1.00
H32    H     0.03752   0.26093   0.01756   0.00000  Uiso   1.00
N33    N     0.14493   0.15223   0.23542   0.00000  Uiso   1.00
N34    N     0.18840   0.18110   0.26457   0.00000  Uiso   1.00
O35    O     0.29769   0.24629   0.25357   0.00000  Uiso   1.00
O36    O     0.05742   0.23704   0.24423   0.00000  Uiso   1.00
O37    O     0.31490   0.17358   0.33380   0.00000  Uiso   1.00
O38    O     0.07463   0.16433   0.32446   0.00000  Uiso   1.00
O39    O     0.27592   0.09629   0.25576   0.00000  Uiso   1.00
O40    O     0.03565   0.08704   0.24643   0.00000  Uiso   1.00
O41    O     0.25870   0.16901   0.17554   0.00000  Uiso   1.00
O42    O     0.01843   0.15976   0.16620   0.00000  Uiso   1.00
Zn43   Zn    0.27119   0.17284   0.25623   0.00000  Uiso   1.00
Zn44   Zn    0.06214   0.16049   0.24376   0.00000  Uiso   1.00
C45    C     0.34833   0.26480   0.24881   0.00000  Uiso   1.00
C46    C     0.38784   0.17384   0.41528   0.00000  Uiso   1.00
C47    C     0.35693   0.31906   0.24852   0.00000  Uiso   1.00
C48    C     0.36868   0.16833   0.35501   0.00000  Uiso   1.00
C49    C     0.64499   0.01388   0.25247   0.00000  Uiso   1.00
C50    C     0.65201   0.06843   0.25157   0.00000  Uiso   1.00
C51    C     0.63110   0.16369   0.14504   0.00000  Uiso   1.00
C52    C     0.61128   0.11392   0.49667   0.00000  Uiso   1.00
C53    C     0.61188   0.15910   0.08508   0.00000  Uiso   1.00
C54    C     0.36060   0.20835   0.44567   0.00000  Uiso   1.00
C55    C     0.39031   0.23113   0.49636   0.00000  Uiso   1.00
C56    C     0.47301   0.17993   0.48999   0.00000  Uiso   1.00
C57    C     0.44733   0.22015   0.01679   0.00000  Uiso   1.00
C58    C     0.44119   0.15540   0.43947   0.00000  Uiso   1.00
C59    C     0.52932   0.16383   0.01016   0.00000  Uiso   1.00
C60    C     0.55471   0.12819   0.47757   0.00000  Uiso   1.00
C61    C     0.52161   0.10376   0.42892   0.00000  Uiso   1.00
C62    C     0.46443   0.11480   0.41211   0.00000  Uiso   1.00
C63    C     0.55877   0.17792   0.06411   0.00000  Uiso   1.00
C64    C     0.64019   0.12971   0.05058   0.00000  Uiso   1.00
F65    F     0.47729   0.25296   0.05904   0.00000  Uiso   1.00
F66    F     0.41114   0.00622   0.24427   0.00000  Uiso   1.00
H67    H     0.34863   0.11533   0.06665   0.00000  Uiso   1.00
H68    H     0.43878   0.09197   0.37643   0.00000  Uiso   1.00
H69    H     0.60220   0.33005   0.25608   0.00000  Uiso   1.00
H70    H     0.49008   0.12513   0.20833   0.00000  Uiso   1.00
H71    H     0.50993   0.20816   0.29171   0.00000  Uiso   1.00
H72    H     0.53903   0.07426   0.40527   0.00000  Uiso   1.00
H73    H     0.63147   0.08793   0.47139   0.00000  Uiso   1.00
H74    H     0.53817   0.19844   0.09316   0.00000  Uiso   1.00
H75    H     0.65219   0.22187   0.42774   0.00000  Uiso   1.00
H76    H     0.37085   0.26093   0.01756   0.00000  Uiso   1.00
N77    N     0.47827   0.15223   0.23542   0.00000  Uiso   1.00
N78    N     0.52173   0.18110   0.26457   0.00000  Uiso   1.00
O79    O     0.63102   0.24629   0.25357   0.00000  Uiso   1.00
O80    O     0.39075   0.23704   0.24423   0.00000  Uiso   1.00
O81    O     0.64823   0.17358   0.33380   0.00000  Uiso   1.00
O82    O     0.40796   0.16433   0.32446   0.00000  Uiso   1.00
O83    O     0.60925   0.09629   0.25576   0.00000  Uiso   1.00
O84    O     0.36898   0.08704   0.24643   0.00000  Uiso   1.00
O85    O     0.59204   0.16901   0.17554   0.00000  Uiso   1.00
O86    O     0.35177   0.15976   0.16620   0.00000  Uiso   1.00
Zn87   Zn    0.60453   0.17284   0.25623   0.00000  Uiso   1.00
Zn88   Zn    0.39547   0.16049   0.24376   0.00000  Uiso   1.00
C89    C     0.68166   0.26480   0.24881   0.00000  Uiso   1.00
C90    C     0.72118   0.17384   0.41528   0.00000  Uiso   1.00
C91    C     0.69026   0.31906   0.24852   0.00000  Uiso   1.00
C92    C     0.70202   0.16833   0.35501   0.00000  Uiso   1.00
C93    C     0.97833   0.01388   0.25247   0.00000  Uiso   1.00
C94    C     0.98534   0.06843   0.25157   0.00000  Uiso   1.00
C95    C     0.96444   0.16369   0.14504   0.00000  Uiso   1.00
C96    C     0.94462   0.11392   0.49667   0.00000  Uiso   1.00
C97    C     0.94521   0.15910   0.08508   0.00000  Uiso   1.00
C98    C     0.69393   0.20835   0.44567   0.00000  Uiso   1.00
C99    C     0.72364   0.23113   0.49636   0.00000  Uiso   1.00
C100   C     0.80635   0.17993   0.48999   0.00000  Uiso   1.00
C101   C     0.78066   0.22015   0.01679   0.00000  Uiso   1.00
C102   C     0.77452   0.15540   0.43947   0.00000  Uiso   1.00
C103   C     0.86265   0.16383   0.01016   0.00000  Uiso   1.00
C104   C     0.88804   0.12819   0.47757   0.00000  Uiso   1.00
C105   C     0.85495   0.10376   0.42892   0.00000  Uiso   1.00
C106   C     0.79776   0.11480   0.41211   0.00000  Uiso   1.00
C107   C     0.89210   0.17792   0.06411   0.00000  Uiso   1.00
C108   C     0.97352   0.12971   0.05058   0.00000  Uiso   1.00
F109   F     0.81062   0.25296   0.05904   0.00000  Uiso   1.00
F110   F     0.74448   0.00622   0.24427   0.00000  Uiso   1.00
H111   H     0.68196   0.11533   0.06665   0.00000  Uiso   1.00
H112   H     0.77212   0.09197   0.37643   0.00000  Uiso   1.00
H113   H     0.93553   0.33005   0.25608   0.00000  Uiso   1.00
H114   H     0.82341   0.12513   0.20833   0.00000  Uiso   1.00
H115   H     0.84326   0.20816   0.29171   0.00000  Uiso   1.00
H116   H     0.87237   0.07426   0.40527   0.00000  Uiso   1.00
H117   H     0.96480   0.08793   0.47139   0.00000  Uiso   1.00
H118   H     0.87151   0.19844   0.09316   0.00000  Uiso   1.00
H119   H     0.98553   0.22187   0.42774   0.00000  Uiso   1.00
H120   H     0.70418   0.26093   0.01756   0.00000  Uiso   1.00
N121   N     0.81160   0.15223   0.23542   0.00000  Uiso   1.00
N122   N     0.85507   0.18110   0.26457   0.00000  Uiso   1.00
O123   O     0.96435   0.24629   0.25357   0.00000  Uiso   1.00
O124   O     0.72408   0.23704   0.24423   0.00000  Uiso   1.00
O125   O     0.98157   0.17358   0.33380   0.00000  Uiso   1.00
O126   O     0.74130   0.16433   0.32446   0.00000  Uiso   1.00
O127   O     0.94258   0.09629   0.25576   0.00000  Uiso   1.00
O128   O     0.70231   0.08704   0.24643   0.00000  Uiso   1.00
O129   O     0.92537   0.16901   0.17554   0.00000  Uiso   1.00
O130   O     0.68510   0.15976   0.16620   0.00000  Uiso   1.00
Zn131  Zn    0.93786   0.17284   0.25623   0.00000  Uiso   1.00
Zn132  Zn    0.72881   0.16049   0.24376   0.00000  Uiso   1.00
C133   C     0.01500   0.59813   0.24881   0.00000  Uiso   1.00
C134   C     0.05451   0.50717   0.41528   0.00000  Uiso   1.00
C135   C     0.02360   0.65239   0.24852   0.00000  Uiso   1.00
C136   C     0.03535   0.50166   0.35501   0.00000  Uiso   1.00
C137   C     0.31166   0.34721   0.25247   0.00000  Uiso   1.00
C138   C     0.31867   0.40176   0.25157   0.00000  Uiso   1.00
C139   C     0.29777   0.49702   0.14504   0.00000  Uiso   1.00
C140   C     0.27795   0.44726   0.49667   0.00000  Uiso   1.00
C141   C     0.27854   0.49243   0.08508   0.00000  Uiso   1.00
C142   C     0.02726   0.54169   0.44567   0.00000  Uiso   1.00
C143   C     0.05698   0.56446   0.49636   0.00000  Uiso   1.00
C144   C     0.13968   0.51326   0.48999   0.00000  Uiso   1.00
C145   C     0.11399   0.55348   0.01679   0.00000  Uiso   1.00
C146   C     0.10785   0.48873   0.43947   0.00000  Uiso   1.00
C147   C     0.19599   0.49717   0.01016   0.00000  Uiso   1.00
C148   C     0.22138   0.46153   0.47757   0.00000  Uiso   1.00
C149   C     0.18828   0.43710   0.42892   0.00000  Uiso   1.00
C150   C     0.13110   0.44813   0.41211   0.00000  Uiso   1.00
C151   C     0.22543   0.51126   0.06411   0.00000  Uiso   1.00
C152   C     0.30685   0.46304   0.05058   0.00000  Uiso   1.00
F153   F     0.14395   0.58630   0.05904   0.00000  Uiso   1.00
F154   F     0.07781   0.33955   0.24427   0.00000  Uiso   1.00
H155   H     0.01530   0.44867   0.06665   0.00000  Uiso   1.00
H156   H     0.10545   0.42530   0.37643   0.00000  Uiso   1.00
H157   H     0.26887   0.66338   0.25608   0.00000  Uiso   1.00
H158   H     0.15674   0.45847   0.20833   0.00000  Uiso   1.00
H159   H     0.17659   0.54149   0.29171   0.00000  Uiso   1.00
H160   H     0.20570   0.40759   0.40527   0.00000  Uiso   1.00
H161   H     0.29814   0.42126   0.47139   0.00000  Uiso   1.00
H162   H     0.20484   0.53177   0.09316   0.00000  Uiso   1.00
H163   H     0.31886   0.55521   0.42774   0.00000  Uiso   1.00
H164   H     0.03752   0.59426   0.01756   0.00000  Uiso   1.00
N165   N     0.14493   0.48556   0.23542   0.00000  Uiso   1.00
N166   N     0.18840   0.51444   0.26457   0.00000  Uiso   1.00
O167   O     0.29769   0.57963   0.25357   0.00000  Uiso   1.00
O168   O     0.05742   0.57038   0.24423   0.00000  Uiso   1.00
O169   O     0.31490   0.50691   0.33380   0.00000  Uiso   1.00
O170   O     0.07463   0.49766   0.32446   0.00000  Uiso   1.00
O171   O     0.27592   0.42962   0.25576   0.00000  Uiso   1.00
O172   O     0.03565   0.42037   0.24643   0.00000  Uiso   1.00
O173   O     0.25870   0.50234   0.17554   0.00000  Uiso   1.00
O174   O     0.01843   0.49309   0.16620   0.00000  Uiso   1.00
Zn175  Zn    0.27119   0.50618   0.25623   0.00000  Uiso   1.00
Zn176  Zn    0.06214   0.49382   0.24376   0.00000  Uiso   1.00
C177   C     0.34833   0.59813   0.24881   0.00000  Uiso   1.00
C178   C     0.38784   0.50717   0.41528   0.00000  Uiso   1.00
C179   C     0.35693   0.65239   0.24852   0.00000  Uiso   1.00
C180   C     0.36868   0.50166   0.35501   0.00000  Uiso   1.00
C181   C     0.64499   0.34721   0.25247   0.00000  Uiso   1.00
C182   C     0.65201   0.40176   0.25157   0.00000  Uiso   1.00
C183   C     0.63110   0.49702   0.14504   0.00000  Uiso   1.00
C184   C     0.61128   0.44726   0.49667   0.00000  Uiso   1.00
C185   C     0.61188   0.49243   0.08508   0.00000  Uiso   1.00
C186   C     0.36060   0.54169   0.44567   0.00000  Uiso   1.00
C187   C     0.39031   0.56446   0.49636   0.00000  Uiso   1.00
C188   C     0.47301   0.51326   0.48999   0.00000  Uiso   1.00
C189   C     0.44733   0.55348   0.01679   0.00000  Uiso   1.00
C190   C     0.44119   0.48873   0.43947   0.00000  Uiso   1.00
C191   C     0.52932   0.49717   0.01016   0.00000  Uiso   1.00
C192   C     0.55471   0.46153   0.47757   0.00000  Uiso   1.00
C193   C     0.52161   0.43710   0.42892   0.00000  Uiso   1.00
C194   C     0.46443   0.44813   0.41211   0.00000  Uiso   1.00
C195   C     0.55877   0.51126   0.06411   0.00000  Uiso   1.00
C196   C     0.64019   0.46304   0.05058   0.00000  Uiso   1.00
F197   F     0.47729   0.58630   0.05904   0.00000  Uiso   1.00
F198   F     0.41114   0.33955   0.24427   0.00000  Uiso   1.00
H199   H     0.34863   0.44867   0.06665   0.00000  Uiso   1.00
H200   H     0.43878   0.42530   0.37643   0.00000  Uiso   1.00
H201   H     0.60220   0.66338   0.25608   0.00000  Uiso   1.00
H202   H     0.49008   0.45847   0.20833   0.00000  Uiso   1.00
H203   H     0.50993   0.54149   0.29171   0.00000  Uiso   1.00
H204   H     0.53903   0.40759   0.40527   0.00000  Uiso   1.00
H205   H     0.63147   0.42126   0.47139   0.00000  Uiso   1.00
H206   H     0.53817   0.53177   0.09316   0.00000  Uiso   1.00
H207   H     0.65219   0.55521   0.42774   0.00000  Uiso   1.00
H208   H     0.37085   0.59426   0.01756   0.00000  Uiso   1.00
N209   N     0.47827   0.48556   0.23542   0.00000  Uiso   1.00
N210   N     0.52173   0.51444   0.26457   0.00000  Uiso   1.00
O211   O     0.63102   0.57963   0.25357   0.00000  Uiso   1.00
O212   O     0.39075   0.57038   0.24423   0.00000  Uiso   1.00
O213   O     0.64823   0.50691   0.33380   0.00000  Uiso   1.00
O214   O     0.40796   0.49766   0.32446   0.00000  Uiso   1.00
O215   O     0.60925   0.42962   0.25576   0.00000  Uiso   1.00
O216   O     0.36898   0.42037   0.24643   0.00000  Uiso   1.00
O217   O     0.59204   0.50234   0.17554   0.00000  Uiso   1.00
O218   O     0.35177   0.49309   0.16620   0.00000  Uiso   1.00
Zn219  Zn    0.60453   0.50618   0.25623   0.00000  Uiso   1.00
Zn220  Zn    0.39547   0.49382   0.24376   0.00000  Uiso   1.00
C221   C     0.68166   0.59813   0.24881   0.00000  Uiso   1.00
C222   C     0.72118   0.50717   0.41528   0.00000  Uiso   1.00
C223   C     0.69026   0.65239   0.24852   0.00000  Uiso   1.00
C224   C     0.70202   0.50166   0.35501   0.00000  Uiso   1.00
C225   C     0.97833   0.34721   0.25247   0.00000  Uiso   1.00
C226   C     0.98534   0.40176   0.25157   0.00000  Uiso   1.00
C227   C     0.96444   0.49702   0.14504   0.00000  Uiso   1.00
C228   C     0.94462   0.44726   0.49667   0.00000  Uiso   1.00
C229   C     0.94521   0.49243   0.08508   0.00000  Uiso   1.00
C230   C     0.69393   0.54169   0.44567   0.00000  Uiso   1.00
C231   C     0.72364   0.56446   0.49636   0.00000  Uiso   1.00
C232   C     0.80635   0.51326   0.48999   0.00000  Uiso   1.00
C233   C     0.78066   0.55348   0.01679   0.00000  Uiso   1.00
C234   C     0.77452   0.48873   0.43947   0.00000  Uiso   1.00
C235   C     0.86265   0.49717   0.01016   0.00000  Uiso   1.00
C236   C     0.88804   0.46153   0.47757   0.00000  Uiso   1.00
C237   C     0.85495   0.43710   0.42892   0.00000  Uiso   1.00
C238   C     0.79776   0.44813   0.41211   0.00000  Uiso   1.00
C239   C     0.89210   0.51126   0.06411   0.00000  Uiso   1.00
C240   C     0.97352   0.46304   0.05058   0.00000  Uiso   1.00
F241   F     0.81062   0.58630   0.05904   0.00000  Uiso   1.00
F242   F     0.74448   0.33955   0.24427   0.00000  Uiso   1.00
H243   H     0.68196   0.44867   0.06665   0.00000  Uiso   1.00
H244   H     0.77212   0.42530   0.37643   0.00000  Uiso   1.00
H245   H     0.93553   0.66338   0.25608   0.00000  Uiso   1.00
H246   H     0.82341   0.45847   0.20833   0.00000  Uiso   1.00
H247   H     0.84326   0.54149   0.29171   0.00000  Uiso   1.00
H248   H     0.87237   0.40759   0.40527   0.00000  Uiso   1.00
H249   H     0.96480   0.42126   0.47139   0.00000  Uiso   1.00
H250   H     0.87151   0.53177   0.09316   0.00000  Uiso   1.00
H251   H     0.98553   0.55521   0.42774   0.00000  Uiso   1.00
H252   H     0.70418   0.59426   0.01756   0.00000  Uiso   1.00
N253   N     0.81160   0.48556   0.23542   0.00000  Uiso   1.00
N254   N     0.85507   0.51444   0.26457   0.00000  Uiso   1.00
O255   O     0.96435   0.57963   0.25357   0.00000  Uiso   1.00
O256   O     0.72408   0.57038   0.24423   0.00000  Uiso   1.00
O257   O     0.98157   0.50691   0.33380   0.00000  Uiso   1.00
O258   O     0.74130   0.49766   0.32446   0.00000  Uiso   1.00
O259   O     0.94258   0.42962   0.25576   0.00000  Uiso   1.00
O260   O     0.70231   0.42037   0.24643   0.00000  Uiso   1.00
O261   O     0.92537   0.50234   0.17554   0.00000  Uiso   1.00
O262   O     0.68510   0.49309   0.16620   0.00000  Uiso   1.00
Zn263  Zn    0.93786   0.50618   0.25623   0.00000  Uiso   1.00
Zn264  Zn    0.72881   0.49382   0.24376   0.00000  Uiso   1.00
C265   C     0.01500   0.93146   0.24881   0.00000  Uiso   1.00
C266   C     0.05451   0.84051   0.41528   0.00000  Uiso   1.00
C267   C     0.02360   0.98572   0.24852   0.00000  Uiso   1.00
C268   C     0.03535   0.83500   0.35501   0.00000  Uiso   1.00
C269   C     0.31166   0.68055   0.25247   0.00000  Uiso   1.00
C270   C     0.31867   0.73509   0.25157   0.00000  Uiso   1.00
C271   C     0.29777   0.83035   0.14504   0.00000  Uiso   1.00
C272   C     0.27795   0.78059   0.49667   0.00000  Uiso   1.00
C273   C     0.27854   0.82577   0.08508   0.00000  Uiso   1.00
C274   C     0.02726   0.87502   0.44567   0.00000  Uiso   1.00
C275   C     0.05698   0.89780   0.49636   0.00000  Uiso   1.00
C276   C     0.13968   0.84660   0.48999   0.00000  Uiso   1.00
C277   C     0.11399   0.88682   0.01679   0.00000  Uiso   1.00
C278   C     0.10785   0.82206   0.43947   0.00000  Uiso   1.00
C279   C     0.19599   0.83050   0.01016   0.00000  Uiso   1.00
C280   C     0.22138   0.79486   0.47757   0.00000  Uiso   1.00
C281   C     0.18828   0.77043   0.42892   0.00000  Uiso   1.00
C282   C     0.13110   0.78147   0.41211   0.00000  Uiso   1.00
C283   C     0.22543   0.84459   0.06411   0.00000  Uiso   1.00
C284   C     0.30685   0.79638   0.05058   0.00000  Uiso   1.00
F285   F     0.14395   0.91963   0.05904   0.00000  Uiso   1.00
F286   F     0.07781   0.67289   0.24427   0.00000  Uiso   1.00
H287   H     0.01530   0.78200   0.06665   0.00000  Uiso   1.00
H288   H     0.10545   0.75864   0.37643   0.00000  Uiso   1.00
H289   H     0.26887   0.99672   0.25608   0.00000  Uiso   1.00
H290   H     0.15674   0.79180   0.20833   0.00000  Uiso   1.00
H291   H     0.17659   0.87483   0.29171   0.00000  Uiso   1.00
H292   H     0.20570   0.74093   0.40527   0.00000  Uiso   1.00
H293   H     0.29814   0.75459   0.47139   0.00000  Uiso   1.00
H294   H     0.20484   0.86510   0.09316   0.00000  Uiso   1.00
H295   H     0.31886   0.88854   0.42774   0.00000  Uiso   1.00
H296   H     0.03752   0.92760   0.01756   0.00000  Uiso   1.00
N297   N     0.14493   0.81890   0.23542   0.00000  Uiso   1.00
N298   N     0.18840   0.84777   0.26457   0.00000  Uiso   1.00
O299   O     0.29769   0.91296   0.25357   0.00000  Uiso   1.00
O300   O     0.05742   0.90371   0.24423   0.00000  Uiso   1.00
O301   O     0.31490   0.84024   0.33380   0.00000  Uiso   1.00
O302   O     0.07463   0.83099   0.32446   0.00000  Uiso   1.00
O303   O     0.27592   0.76296   0.25576   0.00000  Uiso   1.00
O304   O     0.03565   0.75371   0.24643   0.00000  Uiso   1.00
O305   O     0.25870   0.83567   0.17554   0.00000  Uiso   1.00
O306   O     0.01843   0.82642   0.16620   0.00000  Uiso   1.00
Zn307  Zn    0.27119   0.83951   0.25623   0.00000  Uiso   1.00
Zn308  Zn    0.06214   0.82716   0.24376   0.00000  Uiso   1.00
C309   C     0.34833   0.93146   0.24881   0.00000  Uiso   1.00
C310   C     0.38784   0.84051   0.41528   0.00000  Uiso   1.00
C311   C     0.35693   0.98572   0.24852   0.00000  Uiso   1.00
C312   C     0.36868   0.83500   0.35501   0.00000  Uiso   1.00
C313   C     0.64499   0.68055   0.25247   0.00000  Uiso   1.00
C314   C     0.65201   0.73509   0.25157   0.00000  Uiso   1.00
C315   C     0.63110   0.83035   0.14504   0.00000  Uiso   1.00
C316   C     0.61128   0.78059   0.49667   0.00000  Uiso   1.00
C317   C     0.61188   0.82577   0.08508   0.00000  Uiso   1.00
C318   C     0.36060   0.87502   0.44567   0.00000  Uiso   1.00
C319   C     0.39031   0.89780   0.49636   0.00000  Uiso   1.00
C320   C     0.47301   0.84660   0.48999   0.00000  Uiso   1.00
C321   C     0.44733   0.88682   0.01679   0.00000  Uiso   1.00
C322   C     0.44119   0.82206   0.43947   0.00000  Uiso   1.00
C323   C     0.52932   0.83050   0.01016   0.00000  Uiso   1.00
C324   C     0.55471   0.79486   0.47757   0.00000  Uiso   1.00
C325   C     0.52161   0.77043   0.42892   0.00000  Uiso   1.00
C326   C     0.46443   0.78147   0.41211   0.00000  Uiso   1.00
C327   C     0.55877   0.84459   0.06411   0.00000  Uiso   1.00
C328   C     0.64019   0.79638   0.05058   0.00000  Uiso   1.00
F329   F     0.47729   0.91963   0.05904   0.00000  Uiso   1.00
F330   F     0.41114   0.67289   0.24427   0.00000  Uiso   1.00
H331   H     0.34863   0.78200   0.06665   0.00000  Uiso   1.00
H332   H     0.43878   0.75864   0.37643   0.00000  Uiso   1.00
H333   H     0.60220   0.99672   0.25608   0.00000  Uiso   1.00
H334   H     0.49008   0.79180   0.20833   0.00000  Uiso   1.00
H335   H     0.50993   0.87483   0.29171   0.00000  Uiso   1.00
H336   H     0.53903   0.74093   0.40527   0.00000  Uiso   1.00
H337   H     0.63147   0.75459   0.47139   0.00000  Uiso   1.00
H338   H     0.53817   0.86510   0.09316   0.00000  Uiso   1.00
H339   H     0.65219   0.88854   0.42774   0.00000  Uiso   1.00
H340   H     0.37085   0.92760   0.01756   0.00000  Uiso   1.00
N341   N     0.47827   0.81890   0.23542   0.00000  Uiso   1.00
N342   N     0.52173   0.84777   0.26457   0.00000  Uiso   1.00
O343   O     0.63102   0.91296   0.25357   0.00000  Uiso   1.00
O344   O     0.39075   0.90371   0.24423   0.00000  Uiso   1.00
O345   O     0.64823   0.84024   0.33380   0.00000  Uiso   1.00
O346   O     0.40796   0.83099   0.32446   0.00000  Uiso   1.00
O347   O     0.60925   0.76296   0.25576   0.00000  Uiso   1.00
O348   O     0.36898   0.75371   0.24643   0.00000  Uiso   1.00
O349   O     0.59204   0.83567   0.17554   0.00000  Uiso   1.00
O350   O     0.35177   0.82642   0.16620   0.00000  Uiso   1.00
Zn351  Zn    0.60453   0.83951   0.25623   0.00000  Uiso   1.00
Zn352  Zn    0.39547   0.82716   0.24376   0.00000  Uiso   1.00
C353   C     0.68166   0.93146   0.24881   0.00000  Uiso   1.00
C354   C     0.72118   0.84051   0.41528   0.00000  Uiso   1.00
C355   C     0.69026   0.98572   0.24852   0.00000  Uiso   1.00
C356   C     0.70202   0.83500   0.35501   0.00000  Uiso   1.00
C357   C     0.97833   0.68055   0.25247   0.00000  Uiso   1.00
C358   C     0.98534   0.73509   0.25157   0.00000  Uiso   1.00
C359   C     0.96444   0.83035   0.14504   0.00000  Uiso   1.00
C360   C     0.94462   0.78059   0.49667   0.00000  Uiso   1.00
C361   C     0.94521   0.82577   0.08508   0.00000  Uiso   1.00
C362   C     0.69393   0.87502   0.44567   0.00000  Uiso   1.00
C363   C     0.72364   0.89780   0.49636   0.00000  Uiso   1.00
C364   C     0.80635   0.84660   0.48999   0.00000  Uiso   1.00
C365   C     0.78066   0.88682   0.01679   0.00000  Uiso   1.00
C366   C     0.77452   0.82206   0.43947   0.00000  Uiso   1.00
C367   C     0.86265   0.83050   0.01016   0.00000  Uiso   1.00
C368   C     0.88804   0.79486   0.47757   0.00000  Uiso   1.00
C369   C     0.85495   0.77043   0.42892   0.00000  Uiso   1.00
C370   C     0.79776   0.78147   0.41211   0.00000  Uiso   1.00
C371   C     0.89210   0.84459   0.06411   0.00000  Uiso   1.00
C372   C     0.97352   0.79638   0.05058   0.00000  Uiso   1.00
F373   F     0.81062   0.91963   0.05904   0.00000  Uiso   1.00
F374   F     0.74448   0.67289   0.24427   0.00000  Uiso   1.00
H375   H     0.68196   0.78200   0.06665   0.00000  Uiso   1.00
H376   H     0.77212   0.75864   0.37643   0.00000  Uiso   1.00
H377   H     0.93553   0.99672   0.25608   0.00000  Uiso   1.00
H378   H     0.82341   0.79180   0.20833   0.00000  Uiso   1.00
H379   H     0.84326   0.87483   0.29171   0.00000  Uiso   1.00
H380   H     0.87237   0.74093   0.40527   0.00000  Uiso   1.00
H381   H     0.96480   0.75459   0.47139   0.00000  Uiso   1.00
H382   H     0.87151   0.86510   0.09316   0.00000  Uiso   1.00
H383   H     0.98553   0.88854   0.42774   0.00000  Uiso   1.00
H384   H     0.70418   0.92760   0.01756   0.00000  Uiso   1.00
N385   N     0.81160   0.81890   0.23542   0.00000  Uiso   1.00
N386   N     0.85507   0.84777   0.26457   0.00000  Uiso   1.00
O387   O     0.96435   0.91296   0.25357   0.00000  Uiso   1.00
O388   O     0.72408   0.90371   0.24423   0.00000  Uiso   1.00
O389   O     0.98157   0.84024   0.33380   0.00000  Uiso   1.00
O390   O     0.74130   0.83099   0.32446   0.00000  Uiso   1.00
O391   O     0.94258   0.76296   0.25576   0.00000  Uiso   1.00
O392   O     0.70231   0.75371   0.24643   0.00000  Uiso   1.00
O393   O     0.92537   0.83567   0.17554   0.00000  Uiso   1.00
O394   O     0.68510   0.82642   0.16620   0.00000  Uiso   1.00
Zn395  Zn    0.93786   0.83951   0.25623   0.00000  Uiso   1.00
Zn396  Zn    0.72881   0.82716   0.24376   0.00000  Uiso   1.00
C397   C     0.01500   0.26480   0.74881   0.00000  Uiso   1.00
C398   C     0.05451   0.17384   0.91528   0.00000  Uiso   1.00
C399   C     0.02360   0.31906   0.74852   0.00000  Uiso   1.00
C400   C     0.03535   0.16833   0.85501   0.00000  Uiso   1.00
C401   C     0.31166   0.01388   0.75247   0.00000  Uiso   1.00
C402   C     0.31867   0.06843   0.75157   0.00000  Uiso   1.00
C403   C     0.29777   0.16369   0.64504   0.00000  Uiso   1.00
C404   C     0.27795   0.11392   0.99667   0.00000  Uiso   1.00
C405   C     0.27854   0.15910   0.58508   0.00000  Uiso   1.00
C406   C     0.02726   0.20835   0.94567   0.00000  Uiso   1.00
C407   C     0.05698   0.23113   0.99636   0.00000  Uiso   1.00
C408   C     0.13968   0.17993   0.98999   0.00000  Uiso   1.00
C409   C     0.11399   0.22015   0.51679   0.00000  Uiso   1.00
C410   C     0.10785   0.15540   0.93947   0.00000  Uiso   1.00
C411   C     0.19599   0.16383   0.51016   0.00000  Uiso   1.00
C412   C     0.22138   0.12819   0.97757   0.00000  Uiso   1.00
C413   C     0.18828   0.10376   0.92892   0.00000  Uiso   1.00
C414   C     0.13110   0.11480   0.91211   0.00000  Uiso   1.00
C415   C     0.22543   0.17792   0.56411   0.00000  Uiso   1.00
C416   C     0.30685   0.12971   0.55058   0.00000  Uiso   1.00
F417   F     0.14395   0.25296   0.55904   0.00000  Uiso   1.00
F418   F     0.07781   0.00622   0.74427   0.00000  Uiso   1.00
H419   H     0.01530   0.11533   0.56665   0.00000  Uiso   1.00
H420   H     0.10545   0.09197   0.87643   0.00000  Uiso   1.00
H421   H     0.26887   0.33005   0.75608   0.00000  Uiso   1.00
H422   H     0.15674   0.12513   0.70833   0.00000  Uiso   1.00
H423   H     0.17659   0.20816   0.79171   0.00000  Uiso   1.00
H424   H     0.20570   0.07426   0.90527   0.00000  Uiso   1.00
H425   H     0.29814   0.08793   0.97139   0.00000  Uiso   1.00
H426   H     0.20484   0.19844   0.59316   0.00000  Uiso   1.00
H427   H     0.31886   0.22187   0.92774   0.00000  Uiso   1.00
H428   H     0.03752   0.26093   0.51756   0.00000  Uiso   1.00
N429   N     0.14493   0.15223   0.73542   0.00000  Uiso   1.00
N430   N     0.18840   0.18110   0.76457   0.00000  Uiso   1.00
O431   O     0.29769   0.24629   0.75357   0.00000  Uiso   1.00
O432   O     0.05742   0.23704   0.74423   0.00000  Uiso   1.00
O433   O     0.31490   0.17358   0.83380   0.00000  Uiso   1.00
O434   O     0.07463   0.16433   0.82446   0.00000  Uiso   1.00
O435   O     0.27592   0.09629   0.75576   0.00000  Uiso   1.00
O436   O     0.03565   0.08704   0.74643   0.00000  Uiso   1.00
O437   O     0.25870   0.16901   0.67554   0.00000  Uiso   1.00
O438   O     0.01843   0.15976   0.66620   0.00000  Uiso   1.00
Zn439  Zn    0.27119   0.17284   0.75623   0.00000  Uiso   1.00
Zn440  Zn    0.06214   0.16049   0.74376   0.00000  Uiso   1.00
C441   C     0.34833   0.26480   0.74881   0.00000  Uiso   1.00
C442   C     0.38784   0.17384   0.91528   0.00000  Uiso   1.00
C443   C     0.35693   0.31906   0.74852   0.00000  Uiso   1.00
C444   C     0.36868   0.16833   0.85501   0.00000  Uiso   1.00
C445   C     0.64499   0.01388   0.75247   0.00000  Uiso   1.00
C446   C     0.65201   0.06843   0.75157   0.00000  Uiso   1.00
C447   C     0.63110   0.16369   0.64504   0.00000  Uiso   1.00
C448   C     0.61128   0.11392   0.99667   0.00000  Uiso   1.00
C449   C     0.61188   0.15910   0.58508   0.00000  Uiso   1.00
C450   C     0.36060   0.20835   0.94567   0.00000  Uiso   1.00
C451   C     0.39031   0.23113   0.99636   0.00000  Uiso   1.00
C452   C     0.47301   0.17993   0.98999   0.00000  Uiso   1.00
C453   C     0.44733   0.22015   0.51679   0.00000  Uiso   1.00
C454   C     0.44119   0.15540   0.93947   0.00000  Uiso   1.00
C455   C     0.52932   0.16383   0.51016   0.00000  Uiso   1.00
C456   C     0.55471   0.12819   0.97757   0.00000  Uiso   1.00
C457   C     0.52161   0.10376   0.92892   0.00000  Uiso   1.00
C458   C     0.46443   0.11480   0.91211   0.00000  Uiso   1.00
C459   C     0.55877   0.17792   0.56411   0.00000  Uiso   1.00
C460   C     0.64019   0.12971   0.55058   0.00000  Uiso   1.00
F461   F     0.47729   0.25296   0.55904   0.00000  Uiso   1.00
F462   F     0.41114   0.00622   0.74427   0.00000  Uiso   1.00
H463   H     0.34863   0.11533   0.56665   0.00000  Uiso   1.00
H464   H     0.43878   0.09197   0.87643   0.00000  Uiso   1.00
H465   H     0.60220   0.33005   0.75608   0.00000  Uiso   1.00
H466   H     0.49008   0.12513   0.70833   0.00000  Uiso   1.00
H467   H     0.50993   0.20816   0.79171   0.00000  Uiso   1.00
H468   H     0.53903   0.07426   0.90527   0.00000  Uiso   1.00
H469   H     0.63147   0.08793   0.97139   0.00000  Uiso   1.00
H470   H     0.53817   0.19844   0.59316   0.00000  Uiso   1.00
H471   H     0.65219   0.22187   0.92774   0.00000  Uiso   1.00
H472   H     0.37085   0.26093   0.51756   0.00000  Uiso   1.00
N473   N     0.47827   0.15223   0.73542   0.00000  Uiso   1.00
N474   N     0.52173   0.18110   0.76457   0.00000  Uiso   1.00
O475   O     0.63102   0.24629   0.75357   0.00000  Uiso   1.00
O476   O     0.39075   0.23704   0.74423   0.00000  Uiso   1.00
O477   O     0.64823   0.17358   0.83380   0.00000  Uiso   1.00
O478   O     0.40796   0.16433   0.82446   0.00000  Uiso   1.00
O479   O     0.60925   0.09629   0.75576   0.00000  Uiso   1.00
O480   O     0.36898   0.08704   0.74643   0.00000  Uiso   1.00
O481   O     0.59204   0.16901   0.67554   0.00000  Uiso   1.00
O482   O     0.35177   0.15976   0.66620   0.00000  Uiso   1.00
Zn483  Zn    0.60453   0.17284   0.75623   0.00000  Uiso   1.00
Zn484  Zn    0.39547   0.16049   0.74376   0.00000  Uiso   1.00
C485   C     0.68166   0.26480   0.74881   0.00000  Uiso   1.00
C486   C     0.72118   0.17384   0.91528   0.00000  Uiso   1.00
C487   C     0.69026   0.31906   0.74852   0.00000  Uiso   1.00
C488   C     0.70202   0.16833   0.85501   0.00000  Uiso   1.00
C489   C     0.97833   0.01388   0.75247   0.00000  Uiso   1.00
C490   C     0.98534   0.06843   0.75157   0.00000  Uiso   1.00
C491   C     0.96444   0.16369   0.64504   0.00000  Uiso   1.00
C492   C     0.94462   0.11392   0.99667   0.00000  Uiso   1.00
C493   C     0.94521   0.15910   0.58508   0.00000  Uiso   1.00
C494   C     0.69393   0.20835   0.94567   0.00000  Uiso   1.00
C495   C     0.72364   0.23113   0.99636   0.00000  Uiso   1.00
C496   C     0.80635   0.17993   0.98999   0.00000  Uiso   1.00
C497   C     0.78066   0.22015   0.51679   0.00000  Uiso   1.00
C498   C     0.77452   0.15540   0.93947   0.00000  Uiso   1.00
C499   C     0.86265   0.16383   0.51016   0.00000  Uiso   1.00
C500   C     0.88804   0.12819   0.97757   0.00000  Uiso   1.00
C501   C     0.85495   0.10376   0.92892   0.00000  Uiso   1.00
C502   C     0.79776   0.11480   0.91211   0.00000  Uiso   1.00
C503   C     0.89210   0.17792   0.56411   0.00000  Uiso   1.00
C504   C     0.97352   0.12971   0.55058   0.00000  Uiso   1.00
F505   F     0.81062   0.25296   0.55904   0.00000  Uiso   1.00
F506   F     0.74448   0.00622   0.74427   0.00000  Uiso   1.00
H507   H     0.68196   0.11533   0.56665   0.00000  Uiso   1.00
H508   H     0.77212   0.09197   0.87643   0.00000  Uiso   1.00
H509   H     0.93553   0.33005   0.75608   0.00000  Uiso   1.00
H510   H     0.82341   0.12513   0.70833   0.00000  Uiso   1.00
H511   H     0.84326   0.20816   0.79171   0.00000  Uiso   1.00
H512   H     0.87237   0.07426   0.90527   0.00000  Uiso   1.00
H513   H     0.96480   0.08793   0.97139   0.00000  Uiso   1.00
H514   H     0.87151   0.19844   0.59316   0.00000  Uiso   1.00
H515   H     0.98553   0.22187   0.92774   0.00000  Uiso   1.00
H516   H     0.70418   0.26093   0.51756   0.00000  Uiso   1.00
N517   N     0.81160   0.15223   0.73542   0.00000  Uiso   1.00
N518   N     0.85507   0.18110   0.76457   0.00000  Uiso   1.00
O519   O     0.96435   0.24629   0.75357   0.00000  Uiso   1.00
O520   O     0.72408   0.23704   0.74423   0.00000  Uiso   1.00
O521   O     0.98157   0.17358   0.83380   0.00000  Uiso   1.00
O522   O     0.74130   0.16433   0.82446   0.00000  Uiso   1.00
O523   O     0.94258   0.09629   0.75576   0.00000  Uiso   1.00
O524   O     0.70231   0.08704   0.74643   0.00000  Uiso   1.00
O525   O     0.92537   0.16901   0.67554   0.00000  Uiso   1.00
O526   O     0.68510   0.15976   0.66620   0.00000  Uiso   1.00
Zn527  Zn    0.93786   0.17284   0.75623   0.00000  Uiso   1.00
Zn528  Zn    0.72881   0.16049   0.74376   0.00000  Uiso   1.00
C529   C     0.01500   0.59813   0.74881   0.00000  Uiso   1.00
C530   C     0.05451   0.50717   0.91528   0.00000  Uiso   1.00
C531   C     0.02360   0.65239   0.74852   0.00000  Uiso   1.00
C532   C     0.03535   0.50166   0.85501   0.00000  Uiso   1.00
C533   C     0.31166   0.34721   0.75247   0.00000  Uiso   1.00
C534   C     0.31867   0.40176   0.75157   0.00000  Uiso   1.00
C535   C     0.29777   0.49702   0.64504   0.00000  Uiso   1.00
C536   C     0.27795   0.44726   0.99667   0.00000  Uiso   1.00
C537   C     0.27854   0.49243   0.58508   0.00000  Uiso   1.00
C538   C     0.02726   0.54169   0.94567   0.00000  Uiso   1.00
C539   C     0.05698   0.56446   0.99636   0.00000  Uiso   1.00
C540   C     0.13968   0.51326   0.98999   0.00000  Uiso   1.00
C541   C     0.11399   0.55348   0.51679   0.00000  Uiso   1.00
C542   C     0.10785   0.48873   0.93947   0.00000  Uiso   1.00
C543   C     0.19599   0.49717   0.51016   0.00000  Uiso   1.00
C544   C     0.22138   0.46153   0.97757   0.00000  Uiso   1.00
C545   C     0.18828   0.43710   0.92892   0.00000  Uiso   1.00
C546   C     0.13110   0.44813   0.91211   0.00000  Uiso   1.00
C547   C     0.22543   0.51126   0.56411   0.00000  Uiso   1.00
C548   C     0.30685   0.46304   0.55058   0.00000  Uiso   1.00
F549   F     0.14395   0.58630   0.55904   0.00000  Uiso   1.00
F550   F     0.07781   0.33955   0.74427   0.00000  Uiso   1.00
H551   H     0.01530   0.44867   0.56665   0.00000  Uiso   1.00
H552   H     0.10545   0.42530   0.87643   0.00000  Uiso   1.00
H553   H     0.26887   0.66338   0.75608   0.00000  Uiso   1.00
H554   H     0.15674   0.45847   0.70833   0.00000  Uiso   1.00
H555   H     0.17659   0.54149   0.79171   0.00000  Uiso   1.00
H556   H     0.20570   0.40759   0.90527   0.00000  Uiso   1.00
H557   H     0.29814   0.42126   0.97139   0.00000  Uiso   1.00
H558   H     0.20484   0.53177   0.59316   0.00000  Uiso   1.00
H559   H     0.31886   0.55521   0.92774   0.00000  Uiso   1.00
H560   H     0.03752   0.59426   0.51756   0.00000  Uiso   1.00
N561   N     0.14493   0.48556   0.73542   0.00000  Uiso   1.00
N562   N     0.18840   0.51444   0.76457   0.00000  Uiso   1.00
O563   O     0.29769   0.57963   0.75357   0.00000  Uiso   1.00
O564   O     0.05742   0.57038   0.74423   0.00000  Uiso   1.00
O565   O     0.31490   0.50691   0.83380   0.00000  Uiso   1.00
O566   O     0.07463   0.49766   0.82446   0.00000  Uiso   1.00
O567   O     0.27592   0.42962   0.75576   0.00000  Uiso   1.00
O568   O     0.03565   0.42037   0.74643   0.00000  Uiso   1.00
O569   O     0.25870   0.50234   0.67554   0.00000  Uiso   1.00
O570   O     0.01843   0.49309   0.66620   0.00000  Uiso   1.00
Zn571  Zn    0.27119   0.50618   0.75623   0.00000  Uiso   1.00
Zn572  Zn    0.06214   0.49382   0.74376   0.00000  Uiso   1.00
C573   C     0.34833   0.59813   0.74881   0.00000  Uiso   1.00
C574   C     0.38784   0.50717   0.91528   0.00000  Uiso   1.00
C575   C     0.35693   0.65239   0.74852   0.00000  Uiso   1.00
C576   C     0.36868   0.50166   0.85501   0.00000  Uiso   1.00
C577   C     0.64499   0.34721   0.75247   0.00000  Uiso   1.00
C578   C     0.65201   0.40176   0.75157   0.00000  Uiso   1.00
C579   C     0.63110   0.49702   0.64504   0.00000  Uiso   1.00
C580   C     0.61128   0.44726   0.99667   0.00000  Uiso   1.00
C581   C     0.61188   0.49243   0.58508   0.00000  Uiso   1.00
C582   C     0.36060   0.54169   0.94567   0.00000  Uiso   1.00
C583   C     0.39031   0.56446   0.99636   0.00000  Uiso   1.00
C584   C     0.47301   0.51326   0.98999   0.00000  Uiso   1.00
C585   C     0.44733   0.55348   0.51679   0.00000  Uiso   1.00
C586   C     0.44119   0.48873   0.93947   0.00000  Uiso   1.00
C587   C     0.52932   0.49717   0.51016   0.00000  Uiso   1.00
C588   C     0.55471   0.46153   0.97757   0.00000  Uiso   1.00
C589   C     0.52161   0.43710   0.92892   0.00000  Uiso   1.00
C590   C     0.46443   0.44813   0.91211   0.00000  Uiso   1.00
C591   C     0.55877   0.51126   0.56411   0.00000  Uiso   1.00
C592   C     0.64019   0.46304   0.55058   0.00000  Uiso   1.00
F593   F     0.47729   0.58630   0.55904   0.00000  Uiso   1.00
F594   F     0.41114   0.33955   0.74427   0.00000  Uiso   1.00
H595   H     0.34863   0.44867   0.56665   0.00000  Uiso   1.00
H596   H     0.43878   0.42530   0.87643   0.00000  Uiso   1.00
H597   H     0.60220   0.66338   0.75608   0.00000  Uiso   1.00
H598   H     0.49008   0.45847   0.70833   0.00000  Uiso   1.00
H599   H     0.50993   0.54149   0.79171   0.00000  Uiso   1.00
H600   H     0.53903   0.40759   0.90527   0.00000  Uiso   1.00
H601   H     0.63147   0.42126   0.97139   0.00000  Uiso   1.00
H602   H     0.53817   0.53177   0.59316   0.00000  Uiso   1.00
H603   H     0.65219   0.55521   0.92774   0.00000  Uiso   1.00
H604   H     0.37085   0.59426   0.51756   0.00000  Uiso   1.00
N605   N     0.47827   0.48556   0.73542   0.00000  Uiso   1.00
N606   N     0.52173   0.51444   0.76457   0.00000  Uiso   1.00
O607   O     0.63102   0.57963   0.75357   0.00000  Uiso   1.00
O608   O     0.39075   0.57038   0.74423   0.00000  Uiso   1.00
O609   O     0.64823   0.50691   0.83380   0.00000  Uiso   1.00
O610   O     0.40796   0.49766   0.82446   0.00000  Uiso   1.00
O611   O     0.60925   0.42962   0.75576   0.00000  Uiso   1.00
O612   O     0.36898   0.42037   0.74643   0.00000  Uiso   1.00
O613   O     0.59204   0.50234   0.67554   0.00000  Uiso   1.00
O614   O     0.35177   0.49309   0.66620   0.00000  Uiso   1.00
Zn615  Zn    0.60453   0.50618   0.75623   0.00000  Uiso   1.00
Zn616  Zn    0.39547   0.49382   0.74376   0.00000  Uiso   1.00
C617   C     0.68166   0.59813   0.74881   0.00000  Uiso   1.00
C618   C     0.72118   0.50717   0.91528   0.00000  Uiso   1.00
C619   C     0.69026   0.65239   0.74852   0.00000  Uiso   1.00
C620   C     0.70202   0.50166   0.85501   0.00000  Uiso   1.00
C621   C     0.97833   0.34721   0.75247   0.00000  Uiso   1.00
C622   C     0.98534   0.40176   0.75157   0.00000  Uiso   1.00
C623   C     0.96444   0.49702   0.64504   0.00000  Uiso   1.00
C624   C     0.94462   0.44726   0.99667   0.00000  Uiso   1.00
C625   C     0.94521   0.49243   0.58508   0.00000  Uiso   1.00
C626   C     0.69393   0.54169   0.94567   0.00000  Uiso   1.00
C627   C     0.72364   0.56446   0.99636   0.00000  Uiso   1.00
C628   C     0.80635   0.51326   0.98999   0.00000  Uiso   1.00
C629   C     0.78066   0.55348   0.51679   0.00000  Uiso   1.00
C630   C     0.77452   0.48873   0.93947   0.00000  Uiso   1.00
C631   C     0.86265   0.49717   0.51016   0.00000  Uiso   1.00
C632   C     0.88804   0.46153   0.97757   0.00000  Uiso   1.00
C633   C     0.85495   0.43710   0.92892   0.00000  Uiso   1.00
C634   C     0.79776   0.44813   0.91211   0.00000  Uiso   1.00
C635   C     0.89210   0.51126   0.56411   0.00000  Uiso   1.00
C636   C     0.97352   0.46304   0.55058   0.00000  Uiso   1.00
F637   F     0.81062   0.58630   0.55904   0.00000  Uiso   1.00
F638   F     0.74448   0.33955   0.74427   0.00000  Uiso   1.00
H639   H     0.68196   0.44867   0.56665   0.00000  Uiso   1.00
H640   H     0.77212   0.42530   0.87643   0.00000  Uiso   1.00
H641   H     0.93553   0.66338   0.75608   0.00000  Uiso   1.00
H642   H     0.82341   0.45847   0.70833   0.00000  Uiso   1.00
H643   H     0.84326   0.54149   0.79171   0.00000  Uiso   1.00
H644   H     0.87237   0.40759   0.90527   0.00000  Uiso   1.00
H645   H     0.96480   0.42126   0.97139   0.00000  Uiso   1.00
H646   H     0.87151   0.53177   0.59316   0.00000  Uiso   1.00
H647   H     0.98553   0.55521   0.92774   0.00000  Uiso   1.00
H648   H     0.70418   0.59426   0.51756   0.00000  Uiso   1.00
N649   N     0.81160   0.48556   0.73542   0.00000  Uiso   1.00
N650   N     0.85507   0.51444   0.76457   0.00000  Uiso   1.00
O651   O     0.96435   0.57963   0.75357   0.00000  Uiso   1.00
O652   O     0.72408   0.57038   0.74423   0.00000  Uiso   1.00
O653   O     0.98157   0.50691   0.83380   0.00000  Uiso   1.00
O654   O     0.74130   0.49766   0.82446   0.00000  Uiso   1.00
O655   O     0.94258   0.42962   0.75576   0.00000  Uiso   1.00
O656   O     0.70231   0.42037   0.74643   0.00000  Uiso   1.00
O657   O     0.92537   0.50234   0.67554   0.00000  Uiso   1.00
O658   O     0.68510   0.49309   0.66620   0.00000  Uiso   1.00
Zn659  Zn    0.93786   0.50618   0.75623   0.00000  Uiso   1.00
Zn660  Zn    0.72881   0.49382   0.74376   0.00000  Uiso   1.00
C661   C     0.01500   0.93146   0.74881   0.00000  Uiso   1.00
C662   C     0.05451   0.84051   0.91528   0.00000  Uiso   1.00
C663   C     0.02360   0.98572   0.74852   0.00000  Uiso   1.00
C664   C     0.03535   0.83500   0.85501   0.00000  Uiso   1.00
C665   C     0.31166   0.68055   0.75247   0.00000  Uiso   1.00
C666   C     0.31867   0.73509   0.75157   0.00000  Uiso   1.00
C667   C     0.29777   0.83035   0.64504   0.00000  Uiso   1.00
C668   C     0.27795   0.78059   0.99667   0.00000  Uiso   1.00
C669   C     0.27854   0.82577   0.58508   0.00000  Uiso   1.00
C670   C     0.02726   0.87502   0.94567   0.00000  Uiso   1.00
C671   C     0.05698   0.89780   0.99636   0.00000  Uiso   1.00
C672   C     0.13968   0.84660   0.98999   0.00000  Uiso   1.00
C673   C     0.11399   0.88682   0.51679   0.00000  Uiso   1.00
C674   C     0.10785   0.82206   0.93947   0.00000  Uiso   1.00
C675   C     0.19599   0.83050   0.51016   0.00000  Uiso   1.00
C676   C     0.22138   0.79486   0.97757   0.00000  Uiso   1.00
C677   C     0.18828   0.77043   0.92892   0.00000  Uiso   1.00
C678   C     0.13110   0.78147   0.91211   0.00000  Uiso   1.00
C679   C     0.22543   0.84459   0.56411   0.00000  Uiso   1.00
C680   C     0.30685   0.79638   0.55058   0.00000  Uiso   1.00
F681   F     0.14395   0.91963   0.55904   0.00000  Uiso   1.00
F682   F     0.07781   0.67289   0.74427   0.00000  Uiso   1.00
H683   H     0.01530   0.78200   0.56665   0.00000  Uiso   1.00
H684   H     0.10545   0.75864   0.87643   0.00000  Uiso   1.00
H685   H     0.26887   0.99672   0.75608   0.00000  Uiso   1.00
H686   H     0.15674   0.79180   0.70833   0.00000  Uiso   1.00
H687   H     0.17659   0.87483   0.79171   0.00000  Uiso   1.00
H688   H     0.20570   0.74093   0.90527   0.00000  Uiso   1.00
H689   H     0.29814   0.75459   0.97139   0.00000  Uiso   1.00
H690   H     0.20484   0.86510   0.59316   0.00000  Uiso   1.00
H691   H     0.31886   0.88854   0.92774   0.00000  Uiso   1.00
H692   H     0.03752   0.92760   0.51756   0.00000  Uiso   1.00
N693   N     0.14493   0.81890   0.73542   0.00000  Uiso   1.00
N694   N     0.18840   0.84777   0.76457   0.00000  Uiso   1.00
O695   O     0.29769   0.91296   0.75357   0.00000  Uiso   1.00
O696   O     0.05742   0.90371   0.74423   0.00000  Uiso   1.00
O697   O     0.31490   0.84024   0.83380   0.00000  Uiso   1.00
O698   O     0.07463   0.83099   0.82446   0.00000  Uiso   1.00
O699   O     0.27592   0.76296   0.75576   0.00000  Uiso   1.00
O700   O     0.03565   0.75371   0.74643   0.00000  Uiso   1.00
O701   O     0.25870   0.83567   0.67554   0.00000  Uiso   1.00
O702   O     0.01843   0.82642   0.66620   0.00000  Uiso   1.00
Zn703  Zn    0.27119   0.83951   0.75623   0.00000  Uiso   1.00
Zn704  Zn    0.06214   0.82716   0.74376   0.00000  Uiso   1.00
C705   C     0.34833   0.93146   0.74881   0.00000  Uiso   1.00
C706   C     0.38784   0.84051   0.91528   0.00000  Uiso   1.00
C707   C     0.35693   0.98572   0.74852   0.00000  Uiso   1.00
C708   C     0.36868   0.83500   0.85501   0.00000  Uiso   1.00
C709   C     0.64499   0.68055   0.75247   0.00000  Uiso   1.00
C710   C     0.65201   0.73509   0.75157   0.00000  Uiso   1.00
C711   C     0.63110   0.83035   0.64504   0.00000  Uiso   1.00
C712   C     0.61128   0.78059   0.99667   0.00000  Uiso   1.00
C713   C     0.61188   0.82577   0.58508   0.00000  Uiso   1.00
C714   C     0.36060   0.87502   0.94567   0.00000  Uiso   1.00
C715   C     0.39031   0.89780   0.99636   0.00000  Uiso   1.00
C716   C     0.47301   0.84660   0.98999   0.00000  Uiso   1.00
C717   C     0.44733   0.88682   0.51679   0.00000  Uiso   1.00
C718   C     0.44119   0.82206   0.93947   0.00000  Uiso   1.00
C719   C     0.52932   0.83050   0.51016   0.00000  Uiso   1.00
C720   C     0.55471   0.79486   0.97757   0.00000  Uiso   1.00
C721   C     0.52161   0.77043   0.92892   0.00000  Uiso   1.00
C722   C     0.46443   0.78147   0.91211   0.00000  Uiso   1.00
C723   C     0.55877   0.84459   0.56411   0.00000  Uiso   1.00
C724   C     0.64019   0.79638   0.55058   0.00000  Uiso   1.00
F725   F     0.47729   0.91963   0.55904   0.00000  Uiso   1.00
F726   F     0.41114   0.67289   0.74427   0.00000  Uiso   1.00
H727   H     0.34863   0.78200   0.56665   0.00000  Uiso   1.00
H728   H     0.43878   0.75864   0.87643   0.00000  Uiso   1.00
H729   H     0.60220   0.99672   0.75608   0.00000  Uiso   1.00
H730   H     0.49008   0.79180   0.70833   0.00000  Uiso   1.00
H731   H     0.50993   0.87483   0.79171   0.00000  Uiso   1.00
H732   H     0.53903   0.74093   0.90527   0.00000  Uiso   1.00
H733   H     0.63147   0.75459   0.97139   0.00000  Uiso   1.00
H734   H     0.53817   0.86510   0.59316   0.00000  Uiso   1.00
H735   H     0.65219   0.88854   0.92774   0.00000  Uiso   1.00
H736   H     0.37085   0.92760   0.51756   0.00000  Uiso   1.00
N737   N     0.47827   0.81890   0.73542   0.00000  Uiso   1.00
N738   N     0.52173   0.84777   0.76457   0.00000  Uiso   1.00
O739   O     0.63102   0.91296   0.75357   0.00000  Uiso   1.00
O740   O     0.39075   0.90371   0.74423   0.00000  Uiso   1.00
O741   O     0.64823   0.84024   0.83380   0.00000  Uiso   1.00
O742   O     0.40796   0.83099   0.82446   0.00000  Uiso   1.00
O743   O     0.60925   0.76296   0.75576   0.00000  Uiso   1.00
O744   O     0.36898   0.75371   0.74643   0.00000  Uiso   1.00
O745   O     0.59204   0.83567   0.67554   0.00000  Uiso   1.00
O746   O     0.35177   0.82642   0.66620   0.00000  Uiso   1.00
Zn747  Zn    0.60453   0.83951   0.75623   0.00000  Uiso   1.00
Zn748  Zn    0.39547   0.82716   0.74376   0.00000  Uiso   1.00
C749   C     0.68166   0.93146   0.74881   0.00000  Uiso   1.00
C750   C     0.72118   0.84051   0.91528   0.00000  Uiso   1.00
C751   C     0.69026   0.98572   0.74852   0.00000  Uiso   1.00
C752   C     0.70202   0.83500   0.85501   0.00000  Uiso   1.00
C753   C     0.97833   0.68055   0.75247   0.00000  Uiso   1.00
C754   C     0.98534   0.73509   0.75157   0.00000  Uiso   1.00
C755   C     0.96444   0.83035   0.64504   0.00000  Uiso   1.00
C756   C     0.94462   0.78059   0.99667   0.00000  Uiso   1.00
C757   C     0.94521   0.82577   0.58508   0.00000  Uiso   1.00
C758   C     0.69393   0.87502   0.94567   0.00000  Uiso   1.00
C759   C     0.72364   0.89780   0.99636   0.00000  Uiso   1.00
C760   C     0.80635   0.84660   0.98999   0.00000  Uiso   1.00
C761   C     0.78066   0.88682   0.51679   0.00000  Uiso   1.00
C762   C     0.77452   0.82206   0.93947   0.00000  Uiso   1.00
C763   C     0.86265   0.83050   0.51016   0.00000  Uiso   1.00
C764   C     0.88804   0.79486   0.97757   0.00000  Uiso   1.00
C765   C     0.85495   0.77043   0.92892   0.00000  Uiso   1.00
C766   C     0.79776   0.78147   0.91211   0.00000  Uiso   1.00
C767   C     0.89210   0.84459   0.56411   0.00000  Uiso   1.00
C768   C     0.97352   0.79638   0.55058   0.00000  Uiso   1.00
F769   F     0.81062   0.91963   0.55904   0.00000  Uiso   1.00
F770   F     0.74448   0.67289   0.74427   0.00000  Uiso   1.00
H771   H     0.68196   0.78200   0.56665   0.00000  Uiso   1.00
H772   H     0.77212   0.75864   0.87643   0.00000  Uiso   1.00
H773   H     0.93553   0.99672   0.75608   0.00000  Uiso   1.00
H774   H     0.82341   0.79180   0.70833   0.00000  Uiso   1.00
H775   H     0.84326   0.87483   0.79171   0.00000  Uiso   1.00
H776   H     0.87237   0.74093   0.90527   0.00000  Uiso   1.00
H777   H     0.96480   0.75459   0.97139   0.00000  Uiso   1.00
H778   H     0.87151   0.86510   0.59316   0.00000  Uiso   1.00
H779   H     0.98553   0.88854   0.92774   0.00000  Uiso   1.00
H780   H     0.70418   0.92760   0.51756   0.00000  Uiso   1.00
N781   N     0.81160   0.81890   0.73542   0.00000  Uiso   1.00
N782   N     0.85507   0.84777   0.76457   0.00000  Uiso   1.00
O783   O     0.96435   0.91296   0.75357   0.00000  Uiso   1.00
O784   O     0.72408   0.90371   0.74423   0.00000  Uiso   1.00
O785   O     0.98157   0.84024   0.83380   0.00000  Uiso   1.00
O786   O     0.74130   0.83099   0.82446   0.00000  Uiso   1.00
O787   O     0.94258   0.76296   0.75576   0.00000  Uiso   1.00
O788   O     0.70231   0.75371   0.74643   0.00000  Uiso   1.00
O789   O     0.92537   0.83567   0.67554   0.00000  Uiso   1.00
O790   O     0.68510   0.82642   0.66620   0.00000  Uiso   1.00
Zn791  Zn    0.93786   0.83951   0.75623   0.00000  Uiso   1.00
Zn792  Zn    0.72881   0.82716   0.74376   0.00000  Uiso   1.00
loop_
_geom_bond_atom_site_label_1
_geom_bond_atom_site_label_2
_geom_bond_distance
_geom_bond_site_symmetry_2
_ccdc_geom_bond_type
C1     C3      1.399   .     S
C1     O36     1.287   .     A
C1     O123    1.275   1_455 S
C2     C4      1.452   .     S
C2     C14     1.405   .     A
C2     C10     1.399   .     A
C3     C225    1.346   1_455 S
C3     F154    1.365   .     S
C4     O38     1.297   .     A
C4     O125    1.290   1_455 S
C5     C6      1.406   .     S
C5     C311    1.346   1_545 S
C5     H289    1.088   1_545 S
C6     O39     1.293   .     A
C6     O84     1.272   .     S
C7     O41     1.296   .     A
C7     C9      1.444   .     S
C7     O86     1.288   .     S
C8     C16     1.403   .     A
C8     H29     1.084   .     S
C8     C416    1.390   .     S
C9     C20     1.398   .     A
C9     C19     1.386   .     A
C10    C11     1.383   .     A
C10    H119    1.084   1_455 S
C11    C409    1.391   .     S
C11    H428    1.083   .     S
C12    C14     1.411   .     A
C12    C409    1.431   .     S
C12    C411    1.419   .     S
C13    F21     1.355   .     S
C13    C408    1.431   1_554 S
C13    C407    1.391   1_554 S
C14    C18     1.414   .     A
C15    C19     1.386   .     A
C15    C408    1.419   1_554 S
C15    C412    1.424   1_554 S
C16    C17     1.387   .     A
C16    C411    1.424   .     S
C17    C18     1.382   .     A
C17    H28     1.084   .     S
C18    H24     1.083   .     S
C19    H30     1.072   .     S
C20    C404    1.390   1_554 S
C20    H67     1.083   .     S
F22    C267    1.365   1_545 S
H23    C108    1.083   1_455 S
H25    C137    1.088   .     S
H26    N33     1.029   .     S
H27    N34     1.029   .     S
H31    C54     1.084   .     S
H32    C407    1.083   1_554 S
N33    N34     1.292   .     D
N33    Zn44    2.017   .     S
N34    Zn43    2.017   .     S
O35    Zn43    1.957   .     S
O35    C45     1.275   .     S
O36    Zn44    1.985   .     S
O37    Zn43    1.973   .     S
O37    C48     1.290   .     S
O38    Zn44    1.932   .     S
O39    Zn43    1.985   .     S
O40    Zn44    1.957   .     S
O40    C94     1.272   1_455 S
O41    Zn43    1.932   .     S
O42    Zn44    1.973   .     S
O42    C95     1.288   1_455 S
C45    C47     1.399   .     S
C45    O80     1.287   .     A
C46    C48     1.452   .     S
C46    C58     1.405   .     A
C46    C54     1.399   .     A
C47    C137    1.346   .     S
C47    F198    1.365   .     S
C48    O82     1.297   .     A
C49    C50     1.406   .     S
C49    C355    1.346   1_545 S
C49    H333    1.088   1_545 S
C50    O83     1.293   .     A
C50    O128    1.272   .     S
C51    O85     1.296   .     A
C51    C53     1.444   .     S
C51    O130    1.288   .     S
C52    C60     1.403   .     A
C52    H73     1.084   .     S
C52    C460    1.390   .     S
C53    C64     1.398   .     A
C53    C63     1.386   .     A
C54    C55     1.383   .     A
C55    C453    1.391   .     S
C55    H472    1.083   .     S
C56    C58     1.411   .     A
C56    C453    1.431   .     S
C56    C455    1.419   .     S
C57    F65     1.355   .     S
C57    C452    1.431   1_554 S
C57    C451    1.391   1_554 S
C58    C62     1.414   .     A
C59    C63     1.386   .     A
C59    C452    1.419   1_554 S
C59    C456    1.424   1_554 S
C60    C61     1.387   .     A
C60    C455    1.424   .     S
C61    C62     1.382   .     A
C61    H72     1.084   .     S
C62    H68     1.083   .     S
C63    H74     1.072   .     S
C64    C448    1.390   1_554 S
C64    H111    1.083   .     S
F66    C311    1.365   1_545 S
H69    C181    1.088   .     S
H70    N77     1.029   .     S
H71    N78     1.029   .     S
H75    C98     1.084   .     S
H76    C451    1.083   1_554 S
N77    N78     1.292   .     D
N77    Zn88    2.017   .     S
N78    Zn87    2.017   .     S
O79    Zn87    1.957   .     S
O79    C89     1.275   .     S
O80    Zn88    1.985   .     S
O81    Zn87    1.973   .     S
O81    C92     1.290   .     S
O82    Zn88    1.932   .     S
O83    Zn87    1.985   .     S
O84    Zn88    1.957   .     S
O85    Zn87    1.932   .     S
O86    Zn88    1.973   .     S
C89    C91     1.399   .     S
C89    O124    1.287   .     A
C90    C92     1.452   .     S
C90    C102    1.405   .     A
C90    C98     1.399   .     A
C91    C181    1.346   .     S
C91    F242    1.365   .     S
C92    O126    1.297   .     A
C93    C94     1.406   .     S
C93    C267    1.346   1_645 S
C93    H377    1.088   1_545 S
C94    O127    1.293   .     A
C94    O40     1.272   1_655 S
C95    O129    1.296   .     A
C95    C97     1.444   .     S
C95    O42     1.288   1_655 S
C96    C104    1.403   .     A
C96    H117    1.084   .     S
C96    C504    1.390   .     S
C97    C108    1.398   .     A
C97    C107    1.386   .     A
C98    C99     1.383   .     A
C99    C497    1.391   .     S
C99    H516    1.083   .     S
C100   C102    1.411   .     A
C100   C497    1.431   .     S
C100   C499    1.419   .     S
C101   F109    1.355   .     S
C101   C496    1.431   1_554 S
C101   C495    1.391   1_554 S
C102   C106    1.414   .     A
C103   C107    1.386   .     A
C103   C496    1.419   1_554 S
C103   C500    1.424   1_554 S
C104   C105    1.387   .     A
C104   C499    1.424   .     S
C105   C106    1.382   .     A
C105   H116    1.084   .     S
C106   H112    1.083   .     S
C107   H118    1.072   .     S
C108   C492    1.390   1_554 S
C108   H23     1.083   1_655 S
F110   C355    1.365   1_545 S
H113   C225    1.088   .     S
H114   N121    1.029   .     S
H115   N122    1.029   .     S
H119   C10     1.084   1_655 S
H120   C495    1.083   1_554 S
N121   N122    1.292   .     D
N121   Zn132   2.017   .     S
N122   Zn131   2.017   .     S
O123   Zn131   1.957   .     S
O123   C1      1.275   1_655 S
O124   Zn132   1.985   .     S
O125   Zn131   1.973   .     S
O125   C4      1.290   1_655 S
O126   Zn132   1.932   .     S
O127   Zn131   1.985   .     S
O128   Zn132   1.957   .     S
O129   Zn131   1.932   .     S
O130   Zn132   1.973   .     S
C133   C135    1.399   .     S
C133   O168    1.287   .     A
C133   O255    1.275   1_455 S
C134   C136    1.452   .     S
C134   C146    1.405   .     A
C134   C142    1.399   .     A
C135   C357    1.346   1_455 S
C135   F286    1.365   .     S
C136   O170    1.297   .     A
C136   O257    1.290   1_455 S
C137   C138    1.406   .     S
C138   O171    1.293   .     A
C138   O216    1.272   .     S
C139   O173    1.296   .     A
C139   C141    1.444   .     S
C139   O218    1.288   .     S
C140   C148    1.403   .     A
C140   H161    1.084   .     S
C140   C548    1.390   .     S
C141   C152    1.398   .     A
C141   C151    1.386   .     A
C142   C143    1.383   .     A
C142   H251    1.084   1_455 S
C143   C541    1.391   .     S
C143   H560    1.083   .     S
C144   C146    1.411   .     A
C144   C541    1.431   .     S
C144   C543    1.419   .     S
C145   F153    1.355   .     S
C145   C540    1.431   1_554 S
C145   C539    1.391   1_554 S
C146   C150    1.414   .     A
C147   C151    1.386   .     A
C147   C540    1.419   1_554 S
C147   C544    1.424   1_554 S
C148   C149    1.387   .     A
C148   C543    1.424   .     S
C149   C150    1.382   .     A
C149   H160    1.084   .     S
C150   H156    1.083   .     S
C151   H162    1.072   .     S
C152   C536    1.390   1_554 S
C152   H199    1.083   .     S
H155   C240    1.083   1_455 S
H157   C269    1.088   .     S
H158   N165    1.029   .     S
H159   N166    1.029   .     S
H163   C186    1.084   .     S
H164   C539    1.083   1_554 S
N165   N166    1.292   .     D
N165   Zn176   2.017   .     S
N166   Zn175   2.017   .     S
O167   Zn175   1.957   .     S
O167   C177    1.275   .     S
O168   Zn176   1.985   .     S
O169   Zn175   1.973   .     S
O169   C180    1.290   .     S
O170   Zn176   1.932   .     S
O171   Zn175   1.985   .     S
O172   Zn176   1.957   .     S
O172   C226    1.272   1_455 S
O173   Zn175   1.932   .     S
O174   Zn176   1.973   .     S
O174   C227    1.288   1_455 S
C177   C179    1.399   .     S
C177   O212    1.287   .     A
C178   C180    1.452   .     S
C178   C190    1.405   .     A
C178   C186    1.399   .     A
C179   C269    1.346   .     S
C179   F330    1.365   .     S
C180   O214    1.297   .     A
C181   C182    1.406   .     S
C182   O215    1.293   .     A
C182   O260    1.272   .     S
C183   O217    1.296   .     A
C183   C185    1.444   .     S
C183   O262    1.288   .     S
C184   C192    1.403   .     A
C184   H205    1.084   .     S
C184   C592    1.390   .     S
C185   C196    1.398   .     A
C185   C195    1.386   .     A
C186   C187    1.383   .     A
C187   C585    1.391   .     S
C187   H604    1.083   .     S
C188   C190    1.411   .     A
C188   C585    1.431   .     S
C188   C587    1.419   .     S
C189   F197    1.355   .     S
C189   C584    1.431   1_554 S
C189   C583    1.391   1_554 S
C190   C194    1.414   .     A
C191   C195    1.386   .     A
C191   C584    1.419   1_554 S
C191   C588    1.424   1_554 S
C192   C193    1.387   .     A
C192   C587    1.424   .     S
C193   C194    1.382   .     A
C193   H204    1.084   .     S
C194   H200    1.083   .     S
C195   H206    1.072   .     S
C196   C580    1.390   1_554 S
C196   H243    1.083   .     S
H201   C313    1.088   .     S
H202   N209    1.029   .     S
H203   N210    1.029   .     S
H207   C230    1.084   .     S
H208   C583    1.083   1_554 S
N209   N210    1.292   .     D
N209   Zn220   2.017   .     S
N210   Zn219   2.017   .     S
O211   Zn219   1.957   .     S
O211   C221    1.275   .     S
O212   Zn220   1.985   .     S
O213   Zn219   1.973   .     S
O213   C224    1.290   .     S
O214   Zn220   1.932   .     S
O215   Zn219   1.985   .     S
O216   Zn220   1.957   .     S
O217   Zn219   1.932   .     S
O218   Zn220   1.973   .     S
C221   C223    1.399   .     S
C221   O256    1.287   .     A
C222   C224    1.452   .     S
C222   C234    1.405   .     A
C222   C230    1.399   .     A
C223   C313    1.346   .     S
C223   F374    1.365   .     S
C224   O258    1.297   .     A
C225   C226    1.406   .     S
C225   C3      1.346   1_655 S
C226   O259    1.293   .     A
C226   O172    1.272   1_655 S
C227   O261    1.296   .     A
C227   C229    1.444   .     S
C227   O174    1.288   1_655 S
C228   C236    1.403   .     A
C228   H249    1.084   .     S
C228   C636    1.390   .     S
C229   C240    1.398   .     A
C229   C239    1.386   .     A
C230   C231    1.383   .     A
C231   C629    1.391   .     S
C231   H648    1.083   .     S
C232   C234    1.411   .     A
C232   C629    1.431   .     S
C232   C631    1.419   .     S
C233   F241    1.355   .     S
C233   C628    1.431   1_554 S
C233   C627    1.391   1_554 S
C234   C238    1.414   .     A
C235   C239    1.386   .     A
C235   C628    1.419   1_554 S
C235   C632    1.424   1_554 S
C236   C237    1.387   .     A
C236   C631    1.424   .     S
C237   C238    1.382   .     A
C237   H248    1.084   .     S
C238   H244    1.083   .     S
C239   H250    1.072   .     S
C240   C624    1.390   1_554 S
C240   H155    1.083   1_655 S
H245   C357    1.088   .     S
H246   N253    1.029   .     S
H247   N254    1.029   .     S
H251   C142    1.084   1_655 S
H252   C627    1.083   1_554 S
N253   N254    1.292   .     D
N253   Zn264   2.017   .     S
N254   Zn263   2.017   .     S
O255   Zn263   1.957   .     S
O255   C133    1.275   1_655 S
O256   Zn264   1.985   .     S
O257   Zn263   1.973   .     S
O257   C136    1.290   1_655 S
O258   Zn264   1.932   .     S
O259   Zn263   1.985   .     S
O260   Zn264   1.957   .     S
O261   Zn263   1.932   .     S
O262   Zn264   1.973   .     S
C265   C267    1.399   .     S
C265   O300    1.287   .     A
C265   O387    1.275   1_455 S
C266   C268    1.452   .     S
C266   C278    1.405   .     A
C266   C274    1.399   .     A
C267   C93     1.346   1_465 S
C267   F22     1.365   1_565 S
C268   O302    1.297   .     A
C268   O389    1.290   1_455 S
C269   C270    1.406   .     S
C270   O303    1.293   .     A
C270   O348    1.272   .     S
C271   O305    1.296   .     A
C271   C273    1.444   .     S
C271   O350    1.288   .     S
C272   C280    1.403   .     A
C272   H293    1.084   .     S
C272   C680    1.390   .     S
C273   C284    1.398   .     A
C273   C283    1.386   .     A
C274   C275    1.383   .     A
C274   H383    1.084   1_455 S
C275   C673    1.391   .     S
C275   H692    1.083   .     S
C276   C278    1.411   .     A
C276   C673    1.431   .     S
C276   C675    1.419   .     S
C277   F285    1.355   .     S
C277   C672    1.431   1_554 S
C277   C671    1.391   1_554 S
C278   C282    1.414   .     A
C279   C283    1.386   .     A
C279   C672    1.419   1_554 S
C279   C676    1.424   1_554 S
C280   C281    1.387   .     A
C280   C675    1.424   .     S
C281   C282    1.382   .     A
C281   H292    1.084   .     S
C282   H288    1.083   .     S
C283   H294    1.072   .     S
C284   C668    1.390   1_554 S
C284   H331    1.083   .     S
H287   C372    1.083   1_455 S
H289   C5      1.088   1_565 S
H290   N297    1.029   .     S
H291   N298    1.029   .     S
H295   C318    1.084   .     S
H296   C671    1.083   1_554 S
N297   N298    1.292   .     D
N297   Zn308   2.017   .     S
N298   Zn307   2.017   .     S
O299   Zn307   1.957   .     S
O299   C309    1.275   .     S
O300   Zn308   1.985   .     S
O301   Zn307   1.973   .     S
O301   C312    1.290   .     S
O302   Zn308   1.932   .     S
O303   Zn307   1.985   .     S
O304   Zn308   1.957   .     S
O304   C358    1.272   1_455 S
O305   Zn307   1.932   .     S
O306   Zn308   1.973   .     S
O306   C359    1.288   1_455 S
C309   C311    1.399   .     S
C309   O344    1.287   .     A
C310   C312    1.452   .     S
C310   C322    1.405   .     A
C310   C318    1.399   .     A
C311   C5      1.346   1_565 S
C311   F66     1.365   1_565 S
C312   O346    1.297   .     A
C313   C314    1.406   .     S
C314   O347    1.293   .     A
C314   O392    1.272   .     S
C315   O349    1.296   .     A
C315   C317    1.444   .     S
C315   O394    1.288   .     S
C316   C324    1.403   .     A
C316   H337    1.084   .     S
C316   C724    1.390   .     S
C317   C328    1.398   .     A
C317   C327    1.386   .     A
C318   C319    1.383   .     A
C319   C717    1.391   .     S
C319   H736    1.083   .     S
C320   C322    1.411   .     A
C320   C717    1.431   .     S
C320   C719    1.419   .     S
C321   F329    1.355   .     S
C321   C716    1.431   1_554 S
C321   C715    1.391   1_554 S
C322   C326    1.414   .     A
C323   C327    1.386   .     A
C323   C716    1.419   1_554 S
C323   C720    1.424   1_554 S
C324   C325    1.387   .     A
C324   C719    1.424   .     S
C325   C326    1.382   .     A
C325   H336    1.084   .     S
C326   H332    1.083   .     S
C327   H338    1.072   .     S
C328   C712    1.390   1_554 S
C328   H375    1.083   .     S
H333   C49     1.088   1_565 S
H334   N341    1.029   .     S
H335   N342    1.029   .     S
H339   C362    1.084   .     S
H340   C715    1.083   1_554 S
N341   N342    1.292   .     D
N341   Zn352   2.017   .     S
N342   Zn351   2.017   .     S
O343   Zn351   1.957   .     S
O343   C353    1.275   .     S
O344   Zn352   1.985   .     S
O345   Zn351   1.973   .     S
O345   C356    1.290   .     S
O346   Zn352   1.932   .     S
O347   Zn351   1.985   .     S
O348   Zn352   1.957   .     S
O349   Zn351   1.932   .     S
O350   Zn352   1.973   .     S
C353   C355    1.399   .     S
C353   O388    1.287   .     A
C354   C356    1.452   .     S
C354   C366    1.405   .     A
C354   C362    1.399   .     A
C355   C49     1.346   1_565 S
C355   F110    1.365   1_565 S
C356   O390    1.297   .     A
C357   C358    1.406   .     S
C357   C135    1.346   1_655 S
C358   O391    1.293   .     A
C358   O304    1.272   1_655 S
C359   O393    1.296   .     A
C359   C361    1.444   .     S
C359   O306    1.288   1_655 S
C360   C368    1.403   .     A
C360   H381    1.084   .     S
C360   C768    1.390   .     S
C361   C372    1.398   .     A
C361   C371    1.386   .     A
C362   C363    1.383   .     A
C363   C761    1.391   .     S
C363   H780    1.083   .     S
C364   C366    1.411   .     A
C364   C761    1.431   .     S
C364   C763    1.419   .     S
C365   F373    1.355   .     S
C365   C760    1.431   1_554 S
C365   C759    1.391   1_554 S
C366   C370    1.414   .     A
C367   C371    1.386   .     A
C367   C760    1.419   1_554 S
C367   C764    1.424   1_554 S
C368   C369    1.387   .     A
C368   C763    1.424   .     S
C369   C370    1.382   .     A
C369   H380    1.084   .     S
C370   H376    1.083   .     S
C371   H382    1.072   .     S
C372   C756    1.390   1_554 S
C372   H287    1.083   1_655 S
H377   C93     1.088   1_565 S
H378   N385    1.029   .     S
H379   N386    1.029   .     S
H383   C274    1.084   1_655 S
H384   C759    1.083   1_554 S
N385   N386    1.292   .     D
N385   Zn396   2.017   .     S
N386   Zn395   2.017   .     S
O387   Zn395   1.957   .     S
O387   C265    1.275   1_655 S
O388   Zn396   1.985   .     S
O389   Zn395   1.973   .     S
O389   C268    1.290   1_655 S
O390   Zn396   1.932   .     S
O391   Zn395   1.985   .     S
O392   Zn396   1.957   .     S
O393   Zn395   1.932   .     S
O394   Zn396   1.973   .     S
C397   C399    1.399   .     S
C397   O432    1.287   .     A
C397   O519    1.275   1_455 S
C398   C400    1.452   .     S
C398   C410    1.405   .     A
C398   C406    1.399   .     A
C399   C621    1.346   1_455 S
C399   F550    1.365   .     S
C400   O434    1.297   .     A
C400   O521    1.290   1_455 S
C401   C402    1.406   .     S
C401   C707    1.346   1_545 S
C401   H685    1.088   1_545 S
C402   O435    1.293   .     A
C402   O480    1.272   .     S
C403   O437    1.296   .     A
C403   C405    1.444   .     S
C403   O482    1.288   .     S
C404   C412    1.403   .     A
C404   H425    1.084   .     S
C404   C20     1.390   1_556 S
C405   C416    1.398   .     A
C405   C415    1.386   .     A
C406   C407    1.383   .     A
C406   H515    1.084   1_455 S
C407   C13     1.391   1_556 S
C407   H32     1.083   1_556 S
C408   C410    1.411   .     A
C408   C13     1.431   1_556 S
C408   C15     1.419   1_556 S
C409   F417    1.355   .     S
C410   C414    1.414   .     A
C411   C415    1.386   .     A
C412   C413    1.387   .     A
C412   C15     1.424   1_556 S
C413   C414    1.382   .     A
C413   H424    1.084   .     S
C414   H420    1.083   .     S
C415   H426    1.072   .     S
C416   H463    1.083   .     S
F418   C663    1.365   1_545 S
H419   C504    1.083   1_455 S
H421   C533    1.088   .     S
H422   N429    1.029   .     S
H423   N430    1.029   .     S
H427   C450    1.084   .     S
N429   N430    1.292   .     D
N429   Zn440   2.017   .     S
N430   Zn439   2.017   .     S
O431   Zn439   1.957   .     S
O431   C441    1.275   .     S
O432   Zn440   1.985   .     S
O433   Zn439   1.973   .     S
O433   C444    1.290   .     S
O434   Zn440   1.932   .     S
O435   Zn439   1.985   .     S
O436   Zn440   1.957   .     S
O436   C490    1.272   1_455 S
O437   Zn439   1.932   .     S
O438   Zn440   1.973   .     S
O438   C491    1.288   1_455 S
C441   C443    1.399   .     S
C441   O476    1.287   .     A
C442   C444    1.452   .     S
C442   C454    1.405   .     A
C442   C450    1.399   .     A
C443   C533    1.346   .     S
C443   F594    1.365   .     S
C444   O478    1.297   .     A
C445   C446    1.406   .     S
C445   C751    1.346   1_545 S
C445   H729    1.088   1_545 S
C446   O479    1.293   .     A
C446   O524    1.272   .     S
C447   O481    1.296   .     A
C447   C449    1.444   .     S
C447   O526    1.288   .     S
C448   C456    1.403   .     A
C448   H469    1.084   .     S
C448   C64     1.390   1_556 S
C449   C460    1.398   .     A
C449   C459    1.386   .     A
C450   C451    1.383   .     A
C451   C57     1.391   1_556 S
C451   H76     1.083   1_556 S
C452   C454    1.411   .     A
C452   C57     1.431   1_556 S
C452   C59     1.419   1_556 S
C453   F461    1.355   .     S
C454   C458    1.414   .     A
C455   C459    1.386   .     A
C456   C457    1.387   .     A
C456   C59     1.424   1_556 S
C457   C458    1.382   .     A
C457   H468    1.084   .     S
C458   H464    1.083   .     S
C459   H470    1.072   .     S
C460   H507    1.083   .     S
F462   C707    1.365   1_545 S
H465   C577    1.088   .     S
H466   N473    1.029   .     S
H467   N474    1.029   .     S
H471   C494    1.084   .     S
N473   N474    1.292   .     D
N473   Zn484   2.017   .     S
N474   Zn483   2.017   .     S
O475   Zn483   1.957   .     S
O475   C485    1.275   .     S
O476   Zn484   1.985   .     S
O477   Zn483   1.973   .     S
O477   C488    1.290   .     S
O478   Zn484   1.932   .     S
O479   Zn483   1.985   .     S
O480   Zn484   1.957   .     S
O481   Zn483   1.932   .     S
O482   Zn484   1.973   .     S
C485   C487    1.399   .     S
C485   O520    1.287   .     A
C486   C488    1.452   .     S
C486   C498    1.405   .     A
C486   C494    1.399   .     A
C487   C577    1.346   .     S
C487   F638    1.365   .     S
C488   O522    1.297   .     A
C489   C490    1.406   .     S
C489   C663    1.346   1_645 S
C489   H773    1.088   1_545 S
C490   O523    1.293   .     A
C490   O436    1.272   1_655 S
C491   O525    1.296   .     A
C491   C493    1.444   .     S
C491   O438    1.288   1_655 S
C492   C500    1.403   .     A
C492   H513    1.084   .     S
C492   C108    1.390   1_556 S
C493   C504    1.398   .     A
C493   C503    1.386   .     A
C494   C495    1.383   .     A
C495   C101    1.391   1_556 S
C495   H120    1.083   1_556 S
C496   C498    1.411   .     A
C496   C101    1.431   1_556 S
C496   C103    1.419   1_556 S
C497   F505    1.355   .     S
C498   C502    1.414   .     A
C499   C503    1.386   .     A
C500   C501    1.387   .     A
C500   C103    1.424   1_556 S
C501   C502    1.382   .     A
C501   H512    1.084   .     S
C502   H508    1.083   .     S
C503   H514    1.072   .     S
C504   H419    1.083   1_655 S
F506   C751    1.365   1_545 S
H509   C621    1.088   .     S
H510   N517    1.029   .     S
H511   N518    1.029   .     S
H515   C406    1.084   1_655 S
N517   N518    1.292   .     D
N517   Zn528   2.017   .     S
N518   Zn527   2.017   .     S
O519   Zn527   1.957   .     S
O519   C397    1.275   1_655 S
O520   Zn528   1.985   .     S
O521   Zn527   1.973   .     S
O521   C400    1.290   1_655 S
O522   Zn528   1.932   .     S
O523   Zn527   1.985   .     S
O524   Zn528   1.957   .     S
O525   Zn527   1.932   .     S
O526   Zn528   1.973   .     S
C529   C531    1.399   .     S
C529   O564    1.287   .     A
C529   O651    1.275   1_455 S
C530   C532    1.452   .     S
C530   C542    1.405   .     A
C530   C538    1.399   .     A
C531   C753    1.346   1_455 S
C531   F682    1.365   .     S
C532   O566    1.297   .     A
C532   O653    1.290   1_455 S
C533   C534    1.406   .     S
C534   O567    1.293   .     A
C534   O612    1.272   .     S
C535   O569    1.296   .     A
C535   C537    1.444   .     S
C535   O614    1.288   .     S
C536   C544    1.403   .     A
C536   H557    1.084   .     S
C536   C152    1.390   1_556 S
C537   C548    1.398   .     A
C537   C547    1.386   .     A
C538   C539    1.383   .     A
C538   H647    1.084   1_455 S
C539   C145    1.391   1_556 S
C539   H164    1.083   1_556 S
C540   C542    1.411   .     A
C540   C145    1.431   1_556 S
C540   C147    1.419   1_556 S
C541   F549    1.355   .     S
C542   C546    1.414   .     A
C543   C547    1.386   .     A
C544   C545    1.387   .     A
C544   C147    1.424   1_556 S
C545   C546    1.382   .     A
C545   H556    1.084   .     S
C546   H552    1.083   .     S
C547   H558    1.072   .     S
C548   H595    1.083   .     S
H551   C636    1.083   1_455 S
H553   C665    1.088   .     S
H554   N561    1.029   .     S
H555   N562    1.029   .     S
H559   C582    1.084   .     S
N561   N562    1.292   .     D
N561   Zn572   2.017   .     S
N562   Zn571   2.017   .     S
O563   Zn571   1.957   .     S
O563   C573    1.275   .     S
O564   Zn572   1.985   .     S
O565   Zn571   1.973   .     S
O565   C576    1.290   .     S
O566   Zn572   1.932   .     S
O567   Zn571   1.985   .     S
O568   Zn572   1.957   .     S
O568   C622    1.272   1_455 S
O569   Zn571   1.932   .     S
O570   Zn572   1.973   .     S
O570   C623    1.288   1_455 S
C573   C575    1.399   .     S
C573   O608    1.287   .     A
C574   C576    1.452   .     S
C574   C586    1.405   .     A
C574   C582    1.399   .     A
C575   C665    1.346   .     S
C575   F726    1.365   .     S
C576   O610    1.297   .     A
C577   C578    1.406   .     S
C578   O611    1.293   .     A
C578   O656    1.272   .     S
C579   O613    1.296   .     A
C579   C581    1.444   .     S
C579   O658    1.288   .     S
C580   C588    1.403   .     A
C580   H601    1.084   .     S
C580   C196    1.390   1_556 S
C581   C592    1.398   .     A
C581   C591    1.386   .     A
C582   C583    1.383   .     A
C583   C189    1.391   1_556 S
C583   H208    1.083   1_556 S
C584   C586    1.411   .     A
C584   C189    1.431   1_556 S
C584   C191    1.419   1_556 S
C585   F593    1.355   .     S
C586   C590    1.414   .     A
C587   C591    1.386   .     A
C588   C589    1.387   .     A
C588   C191    1.424   1_556 S
C589   C590    1.382   .     A
C589   H600    1.084   .     S
C590   H596    1.083   .     S
C591   H602    1.072   .     S
C592   H639    1.083   .     S
H597   C709    1.088   .     S
H598   N605    1.029   .     S
H599   N606    1.029   .     S
H603   C626    1.084   .     S
N605   N606    1.292   .     D
N605   Zn616   2.017   .     S
N606   Zn615   2.017   .     S
O607   Zn615   1.957   .     S
O607   C617    1.275   .     S
O608   Zn616   1.985   .     S
O609   Zn615   1.973   .     S
O609   C620    1.290   .     S
O610   Zn616   1.932   .     S
O611   Zn615   1.985   .     S
O612   Zn616   1.957   .     S
O613   Zn615   1.932   .     S
O614   Zn616   1.973   .     S
C617   C619    1.399   .     S
C617   O652    1.287   .     A
C618   C620    1.452   .     S
C618   C630    1.405   .     A
C618   C626    1.399   .     A
C619   C709    1.346   .     S
C619   F770    1.365   .     S
C620   O654    1.297   .     A
C621   C622    1.406   .     S
C621   C399    1.346   1_655 S
C622   O655    1.293   .     A
C622   O568    1.272   1_655 S
C623   O657    1.296   .     A
C623   C625    1.444   .     S
C623   O570    1.288   1_655 S
C624   C632    1.403   .     A
C624   H645    1.084   .     S
C624   C240    1.390   1_556 S
C625   C636    1.398   .     A
C625   C635    1.386   .     A
C626   C627    1.383   .     A
C627   C233    1.391   1_556 S
C627   H252    1.083   1_556 S
C628   C630    1.411   .     A
C628   C233    1.431   1_556 S
C628   C235    1.419   1_556 S
C629   F637    1.355   .     S
C630   C634    1.414   .     A
C631   C635    1.386   .     A
C632   C633    1.387   .     A
C632   C235    1.424   1_556 S
C633   C634    1.382   .     A
C633   H644    1.084   .     S
C634   H640    1.083   .     S
C635   H646    1.072   .     S
C636   H551    1.083   1_655 S
H641   C753    1.088   .     S
H642   N649    1.029   .     S
H643   N650    1.029   .     S
H647   C538    1.084   1_655 S
N649   N650    1.292   .     D
N649   Zn660   2.017   .     S
N650   Zn659   2.017   .     S
O651   Zn659   1.957   .     S
O651   C529    1.275   1_655 S
O652   Zn660   1.985   .     S
O653   Zn659   1.973   .     S
O653   C532    1.290   1_655 S
O654   Zn660   1.932   .     S
O655   Zn659   1.985   .     S
O656   Zn660   1.957   .     S
O657   Zn659   1.932   .     S
O658   Zn660   1.973   .     S
C661   C663    1.399   .     S
C661   O696    1.287   .     A
C661   O783    1.275   1_455 S
C662   C664    1.452   .     S
C662   C674    1.405   .     A
C662   C670    1.399   .     A
C663   C489    1.346   1_465 S
C663   F418    1.365   1_565 S
C664   O698    1.297   .     A
C664   O785    1.290   1_455 S
C665   C666    1.406   .     S
C666   O699    1.293   .     A
C666   O744    1.272   .     S
C667   O701    1.296   .     A
C667   C669    1.444   .     S
C667   O746    1.288   .     S
C668   C676    1.403   .     A
C668   H689    1.084   .     S
C668   C284    1.390   1_556 S
C669   C680    1.398   .     A
C669   C679    1.386   .     A
C670   C671    1.383   .     A
C670   H779    1.084   1_455 S
C671   C277    1.391   1_556 S
C671   H296    1.083   1_556 S
C672   C674    1.411   .     A
C672   C277    1.431   1_556 S
C672   C279    1.419   1_556 S
C673   F681    1.355   .     S
C674   C678    1.414   .     A
C675   C679    1.386   .     A
C676   C677    1.387   .     A
C676   C279    1.424   1_556 S
C677   C678    1.382   .     A
C677   H688    1.084   .     S
C678   H684    1.083   .     S
C679   H690    1.072   .     S
C680   H727    1.083   .     S
H683   C768    1.083   1_455 S
H685   C401    1.088   1_565 S
H686   N693    1.029   .     S
H687   N694    1.029   .     S
H691   C714    1.084   .     S
N693   N694    1.292   .     D
N693   Zn704   2.017   .     S
N694   Zn703   2.017   .     S
O695   Zn703   1.957   .     S
O695   C705    1.275   .     S
O696   Zn704   1.985   .     S
O697   Zn703   1.973   .     S
O697   C708    1.290   .     S
O698   Zn704   1.932   .     S
O699   Zn703   1.985   .     S
O700   Zn704   1.957   .     S
O700   C754    1.272   1_455 S
O701   Zn703   1.932   .     S
O702   Zn704   1.973   .     S
O702   C755    1.288   1_455 S
C705   C707    1.399   .     S
C705   O740    1.287   .     A
C706   C708    1.452   .     S
C706   C718    1.405   .     A
C706   C714    1.399   .     A
C707   C401    1.346   1_565 S
C707   F462    1.365   1_565 S
C708   O742    1.297   .     A
C709   C710    1.406   .     S
C710   O743    1.293   .     A
C710   O788    1.272   .     S
C711   O745    1.296   .     A
C711   C713    1.444   .     S
C711   O790    1.288   .     S
C712   C720    1.403   .     A
C712   H733    1.084   .     S
C712   C328    1.390   1_556 S
C713   C724    1.398   .     A
C713   C723    1.386   .     A
C714   C715    1.383   .     A
C715   C321    1.391   1_556 S
C715   H340    1.083   1_556 S
C716   C718    1.411   .     A
C716   C321    1.431   1_556 S
C716   C323    1.419   1_556 S
C717   F725    1.355   .     S
C718   C722    1.414   .     A
C719   C723    1.386   .     A
C720   C721    1.387   .     A
C720   C323    1.424   1_556 S
C721   C722    1.382   .     A
C721   H732    1.084   .     S
C722   H728    1.083   .     S
C723   H734    1.072   .     S
C724   H771    1.083   .     S
H729   C445    1.088   1_565 S
H730   N737    1.029   .     S
H731   N738    1.029   .     S
H735   C758    1.084   .     S
N737   N738    1.292   .     D
N737   Zn748   2.017   .     S
N738   Zn747   2.017   .     S
O739   Zn747   1.957   .     S
O739   C749    1.275   .     S
O740   Zn748   1.985   .     S
O741   Zn747   1.973   .     S
O741   C752    1.290   .     S
O742   Zn748   1.932   .     S
O743   Zn747   1.985   .     S
O744   Zn748   1.957   .     S
O745   Zn747   1.932   .     S
O746   Zn748   1.973   .     S
C749   C751    1.399   .     S
C749   O784    1.287   .     A
C750   C752    1.452   .     S
C750   C762    1.405   .     A
C750   C758    1.399   .     A
C751   C445    1.346   1_565 S
C751   F506    1.365   1_565 S
C752   O786    1.297   .     A
C753   C754    1.406   .     S
C753   C531    1.346   1_655 S
C754   O787    1.293   .     A
C754   O700    1.272   1_655 S
C755   O789    1.296   .     A
C755   C757    1.444   .     S
C755   O702    1.288   1_655 S
C756   C764    1.403   .     A
C756   H777    1.084   .     S
C756   C372    1.390   1_556 S
C757   C768    1.398   .     A
C757   C767    1.386   .     A
C758   C759    1.383   .     A
C759   C365    1.391   1_556 S
C759   H384    1.083   1_556 S
C760   C762    1.411   .     A
C760   C365    1.431   1_556 S
C760   C367    1.419   1_556 S
C761   F769    1.355   .     S
C762   C766    1.414   .     A
C763   C767    1.386   .     A
C764   C765    1.387   .     A
C764   C367    1.424   1_556 S
C765   C766    1.382   .     A
C765   H776    1.084   .     S
C766   H772    1.083   .     S
C767   H778    1.072   .     S
C768   H683    1.083   1_655 S
H773   C489    1.088   1_565 S
H774   N781    1.029   .     S
H775   N782    1.029   .     S
H779   C670    1.084   1_655 S
N781   N782    1.292   .     D
N781   Zn792   2.017   .     S
N782   Zn791   2.017   .     S
O783   Zn791   1.957   .     S
O783   C661    1.275   1_655 S
O784   Zn792   1.985   .     S
O785   Zn791   1.973   .     S
O785   C664    1.290   1_655 S
O786   Zn792   1.932   .     S
O787   Zn791   1.985   .     S
O788   Zn792   1.957   .     S
O789   Zn791   1.932   .     S
O790   Zn792   1.973   .     S
