data_str_m3_o1_o16_pcu_sym.154
_audit_creation_date              2020-01-03
_audit_creation_method            'Materials Studio'
_symmetry_space_group_name_H-M    'P1'
_symmetry_Int_Tables_number       1
_symmetry_cell_setting            triclinic
loop_
_symmetry_equiv_pos_as_xyz
  x,y,z
_cell_length_a                    29.6223
_cell_length_b                    32.0775
_cell_length_c                    26.2177
_cell_angle_alpha                 90.4985
_cell_angle_beta                  70.1133
_cell_angle_gamma                 89.5872
loop_
_atom_site_label
_atom_site_type_symbol
_atom_site_fract_x
_atom_site_fract_y
_atom_site_fract_z
_atom_site_U_iso_or_equiv
_atom_site_adp_type
_atom_site_occupancy
O1     O     0.12846   0.22775   0.25001   0.00000  Uiso   1.00
O2     O     0.20490   0.22774   0.25000   0.00000  Uiso   1.00
C3     C     0.16654   0.24666   0.25015   0.00000  Uiso   1.00
O4     O     0.10947   0.16666   0.32681   0.00000  Uiso   1.00
O5     O     0.18591   0.16665   0.32681   0.00000  Uiso   1.00
C6     C     0.14007   0.16477   0.35209   0.00000  Uiso   1.00
Zn7    Zn    0.11562   0.16667   0.25000   0.00000  Uiso   1.00
Zn8    Zn    0.21771   0.16666   0.25000   0.00000  Uiso   1.00
O9     O     0.12843   0.10559   0.24999   0.00000  Uiso   1.00
O10    O     0.20488   0.10558   0.24999   0.00000  Uiso   1.00
O11    O     0.14742   0.16668   0.17319   0.00000  Uiso   1.00
O12    O     0.22387   0.16667   0.17319   0.00000  Uiso   1.00
C13    C     0.16681   0.08667   0.24984   0.00000  Uiso   1.00
C14    C     0.19333   0.16660   0.14775   0.00000  Uiso   1.00
C15    C     0.25884   0.12225   0.00916   0.00000  Uiso   1.00
H16    H     0.27656   0.12987   0.08200   0.00000  Uiso   1.00
H17    H     0.25560   0.08956   0.41409   0.00000  Uiso   1.00
C18    C     0.20959   0.16030   0.08925   0.00000  Uiso   1.00
C19    C     0.07801   0.17944   0.44061   0.00000  Uiso   1.00
C20    C     0.06317   0.18180   0.49661   0.00000  Uiso   1.00
C21    C     0.09397   0.16945   0.02412   0.00000  Uiso   1.00
C22    C     0.14162   0.15505   0.49383   0.00000  Uiso   1.00
C23    C     0.15228   0.14535   0.43843   0.00000  Uiso   1.00
C24    C     0.17960   0.15069   0.01520   0.00000  Uiso   1.00
C25    C     0.22209   0.12766   0.48622   0.00000  Uiso   1.00
C26    C     0.22603   0.11000   0.43591   0.00000  Uiso   1.00
C27    C     0.19226   0.11952   0.41179   0.00000  Uiso   1.00
C28    C     0.17762   0.17080   0.06314   0.00000  Uiso   1.00
C29    C     0.25092   0.13700   0.06201   0.00000  Uiso   1.00
C30    C     0.12261   0.16172   0.41112   0.00000  Uiso   1.00
H31    H     0.14985   0.19351   0.08246   0.00000  Uiso   1.00
H32    H     0.05428   0.19126   0.42044   0.00000  Uiso   1.00
H33    H     0.02715   0.19312   0.01861   0.00000  Uiso   1.00
H34    H     0.19742   0.10589   0.37228   0.00000  Uiso   1.00
C35    C     0.19943   0.31189   0.26830   0.00000  Uiso   1.00
H36    H     0.22456   0.29544   0.28302   0.00000  Uiso   1.00
C37    C     0.19971   0.02128   0.26798   0.00000  Uiso   1.00
H38    H     0.22496   0.03761   0.28251   0.00000  Uiso   1.00
C39    C     0.16694   0.04252   0.24971   0.00000  Uiso   1.00
C40    C     0.13403   0.02145   0.23158   0.00000  Uiso   1.00
H41    H     0.10891   0.03789   0.21684   0.00000  Uiso   1.00
C42    C     0.13387   0.31206   0.23174   0.00000  Uiso   1.00
H43    H     0.10884   0.29574   0.21688   0.00000  Uiso   1.00
C44    C     0.16648   0.29082   0.25022   0.00000  Uiso   1.00
C45    C     0.31595   0.13353   0.22925   0.00000  Uiso   1.00
H46    H     0.30329   0.10710   0.21226   0.00000  Uiso   1.00
C47    C     0.03047   0.13353   0.22932   0.00000  Uiso   1.00
H48    H     0.05376   0.10707   0.21248   0.00000  Uiso   1.00
N49    N     0.04760   0.16668   0.25002   0.00000  Uiso   1.00
C50    C     0.01625   0.19940   0.27249   0.00000  Uiso   1.00
C51    C     0.30217   0.19940   0.27140   0.00000  Uiso   1.00
H52    H     0.27792   0.22515   0.28913   0.00000  Uiso   1.00
N53    N     0.28573   0.16665   0.25000   0.00000  Uiso   1.00
C54    C     0.02929   0.23480   0.30055   0.00000  Uiso   1.00
O55    O     0.04718   0.22871   0.33545   0.00000  Uiso   1.00
O56    O     0.01787   0.27539   0.28978   0.00000  Uiso   1.00
H57    H     0.02761   0.29711   0.31228   0.00000  Uiso   1.00
N58    N     0.30365   0.10169   0.48010   0.00000  Uiso   1.00
O59    O     0.32454   0.07827   0.00596   0.00000  Uiso   1.00
O60    O     0.32781   0.11236   0.43059   0.00000  Uiso   1.00
C61    C     0.07209   0.16711   0.08375   0.00000  Uiso   1.00
O62    O     0.08101   0.13746   0.10784   0.00000  Uiso   1.00
O63    O     0.04024   0.19854   0.11209   0.00000  Uiso   1.00
H64    H     0.02836   0.19443   0.15267   0.00000  Uiso   1.00
O65    O     0.46179   0.22775   0.25001   0.00000  Uiso   1.00
O66    O     0.53823   0.22774   0.25000   0.00000  Uiso   1.00
C67    C     0.49987   0.24666   0.25015   0.00000  Uiso   1.00
O68    O     0.44280   0.16666   0.32681   0.00000  Uiso   1.00
O69    O     0.51924   0.16665   0.32681   0.00000  Uiso   1.00
C70    C     0.47340   0.16477   0.35209   0.00000  Uiso   1.00
Zn71   Zn    0.44896   0.16667   0.25000   0.00000  Uiso   1.00
Zn72   Zn    0.55104   0.16666   0.25000   0.00000  Uiso   1.00
O73    O     0.46177   0.10559   0.24999   0.00000  Uiso   1.00
O74    O     0.53821   0.10558   0.24999   0.00000  Uiso   1.00
O75    O     0.48076   0.16668   0.17319   0.00000  Uiso   1.00
O76    O     0.55720   0.16667   0.17319   0.00000  Uiso   1.00
C77    C     0.50014   0.08667   0.24984   0.00000  Uiso   1.00
C78    C     0.52666   0.16660   0.14775   0.00000  Uiso   1.00
C79    C     0.59218   0.12225   0.00916   0.00000  Uiso   1.00
H80    H     0.60989   0.12987   0.08200   0.00000  Uiso   1.00
H81    H     0.58894   0.08956   0.41409   0.00000  Uiso   1.00
C82    C     0.54292   0.16030   0.08925   0.00000  Uiso   1.00
C83    C     0.41134   0.17944   0.44061   0.00000  Uiso   1.00
C84    C     0.39650   0.18180   0.49661   0.00000  Uiso   1.00
C85    C     0.42730   0.16945   0.02412   0.00000  Uiso   1.00
C86    C     0.47496   0.15505   0.49383   0.00000  Uiso   1.00
C87    C     0.48562   0.14535   0.43843   0.00000  Uiso   1.00
C88    C     0.51293   0.15069   0.01520   0.00000  Uiso   1.00
C89    C     0.55542   0.12766   0.48622   0.00000  Uiso   1.00
C90    C     0.55936   0.11000   0.43591   0.00000  Uiso   1.00
C91    C     0.52560   0.11952   0.41179   0.00000  Uiso   1.00
C92    C     0.51095   0.17080   0.06314   0.00000  Uiso   1.00
C93    C     0.58425   0.13700   0.06201   0.00000  Uiso   1.00
C94    C     0.45594   0.16172   0.41112   0.00000  Uiso   1.00
H95    H     0.48318   0.19351   0.08246   0.00000  Uiso   1.00
H96    H     0.38761   0.19126   0.42044   0.00000  Uiso   1.00
H97    H     0.36048   0.19312   0.01861   0.00000  Uiso   1.00
H98    H     0.53075   0.10589   0.37228   0.00000  Uiso   1.00
C99    C     0.53277   0.31189   0.26830   0.00000  Uiso   1.00
H100   H     0.55789   0.29544   0.28302   0.00000  Uiso   1.00
C101   C     0.53304   0.02128   0.26798   0.00000  Uiso   1.00
H102   H     0.55829   0.03761   0.28251   0.00000  Uiso   1.00
C103   C     0.50028   0.04252   0.24971   0.00000  Uiso   1.00
C104   C     0.46736   0.02145   0.23158   0.00000  Uiso   1.00
H105   H     0.44224   0.03789   0.21684   0.00000  Uiso   1.00
C106   C     0.46720   0.31206   0.23174   0.00000  Uiso   1.00
H107   H     0.44218   0.29574   0.21688   0.00000  Uiso   1.00
C108   C     0.49981   0.29082   0.25022   0.00000  Uiso   1.00
C109   C     0.64929   0.13353   0.22925   0.00000  Uiso   1.00
H110   H     0.63663   0.10710   0.21226   0.00000  Uiso   1.00
C111   C     0.36380   0.13353   0.22932   0.00000  Uiso   1.00
H112   H     0.38709   0.10707   0.21248   0.00000  Uiso   1.00
N113   N     0.38093   0.16668   0.25002   0.00000  Uiso   1.00
C114   C     0.34958   0.19940   0.27249   0.00000  Uiso   1.00
C115   C     0.63550   0.19940   0.27140   0.00000  Uiso   1.00
H116   H     0.61125   0.22515   0.28913   0.00000  Uiso   1.00
N117   N     0.61906   0.16665   0.25000   0.00000  Uiso   1.00
C118   C     0.36262   0.23480   0.30055   0.00000  Uiso   1.00
O119   O     0.38052   0.22871   0.33545   0.00000  Uiso   1.00
O120   O     0.35121   0.27539   0.28978   0.00000  Uiso   1.00
H121   H     0.36095   0.29711   0.31228   0.00000  Uiso   1.00
N122   N     0.63699   0.10169   0.48010   0.00000  Uiso   1.00
O123   O     0.65787   0.07827   0.00596   0.00000  Uiso   1.00
O124   O     0.66115   0.11236   0.43059   0.00000  Uiso   1.00
C125   C     0.40542   0.16711   0.08375   0.00000  Uiso   1.00
O126   O     0.41434   0.13746   0.10784   0.00000  Uiso   1.00
O127   O     0.37358   0.19854   0.11209   0.00000  Uiso   1.00
H128   H     0.36170   0.19443   0.15267   0.00000  Uiso   1.00
O129   O     0.79512   0.22775   0.25001   0.00000  Uiso   1.00
O130   O     0.87157   0.22774   0.25000   0.00000  Uiso   1.00
C131   C     0.83321   0.24666   0.25015   0.00000  Uiso   1.00
O132   O     0.77613   0.16666   0.32681   0.00000  Uiso   1.00
O133   O     0.85258   0.16665   0.32681   0.00000  Uiso   1.00
C134   C     0.80674   0.16477   0.35209   0.00000  Uiso   1.00
Zn135  Zn    0.78229   0.16667   0.25000   0.00000  Uiso   1.00
Zn136  Zn    0.88438   0.16666   0.25000   0.00000  Uiso   1.00
O137   O     0.79510   0.10559   0.24999   0.00000  Uiso   1.00
O138   O     0.87154   0.10558   0.24999   0.00000  Uiso   1.00
O139   O     0.81409   0.16668   0.17319   0.00000  Uiso   1.00
O140   O     0.89053   0.16667   0.17319   0.00000  Uiso   1.00
C141   C     0.83348   0.08667   0.24984   0.00000  Uiso   1.00
C142   C     0.85999   0.16660   0.14775   0.00000  Uiso   1.00
C143   C     0.92551   0.12225   0.00916   0.00000  Uiso   1.00
H144   H     0.94322   0.12987   0.08200   0.00000  Uiso   1.00
H145   H     0.92227   0.08956   0.41409   0.00000  Uiso   1.00
C146   C     0.87625   0.16030   0.08925   0.00000  Uiso   1.00
C147   C     0.74467   0.17944   0.44061   0.00000  Uiso   1.00
C148   C     0.72984   0.18180   0.49661   0.00000  Uiso   1.00
C149   C     0.76064   0.16945   0.02412   0.00000  Uiso   1.00
C150   C     0.80829   0.15505   0.49383   0.00000  Uiso   1.00
C151   C     0.81895   0.14535   0.43843   0.00000  Uiso   1.00
C152   C     0.84627   0.15069   0.01520   0.00000  Uiso   1.00
C153   C     0.88875   0.12766   0.48622   0.00000  Uiso   1.00
C154   C     0.89269   0.11000   0.43591   0.00000  Uiso   1.00
C155   C     0.85893   0.11952   0.41179   0.00000  Uiso   1.00
C156   C     0.84429   0.17080   0.06314   0.00000  Uiso   1.00
C157   C     0.91759   0.13700   0.06201   0.00000  Uiso   1.00
C158   C     0.78928   0.16172   0.41112   0.00000  Uiso   1.00
H159   H     0.81652   0.19351   0.08246   0.00000  Uiso   1.00
H160   H     0.72094   0.19126   0.42044   0.00000  Uiso   1.00
H161   H     0.69381   0.19312   0.01861   0.00000  Uiso   1.00
H162   H     0.86409   0.10589   0.37228   0.00000  Uiso   1.00
C163   C     0.86610   0.31189   0.26830   0.00000  Uiso   1.00
H164   H     0.89123   0.29544   0.28302   0.00000  Uiso   1.00
C165   C     0.86637   0.02128   0.26798   0.00000  Uiso   1.00
H166   H     0.89162   0.03761   0.28251   0.00000  Uiso   1.00
C167   C     0.83361   0.04252   0.24971   0.00000  Uiso   1.00
C168   C     0.80069   0.02145   0.23158   0.00000  Uiso   1.00
H169   H     0.77557   0.03789   0.21684   0.00000  Uiso   1.00
C170   C     0.80054   0.31206   0.23174   0.00000  Uiso   1.00
H171   H     0.77551   0.29574   0.21688   0.00000  Uiso   1.00
C172   C     0.83314   0.29082   0.25022   0.00000  Uiso   1.00
C173   C     0.98262   0.13353   0.22925   0.00000  Uiso   1.00
H174   H     0.96996   0.10710   0.21226   0.00000  Uiso   1.00
C175   C     0.69714   0.13353   0.22932   0.00000  Uiso   1.00
H176   H     0.72043   0.10707   0.21248   0.00000  Uiso   1.00
N177   N     0.71426   0.16668   0.25002   0.00000  Uiso   1.00
C178   C     0.68292   0.19940   0.27249   0.00000  Uiso   1.00
C179   C     0.96884   0.19940   0.27140   0.00000  Uiso   1.00
H180   H     0.94459   0.22515   0.28913   0.00000  Uiso   1.00
N181   N     0.95239   0.16665   0.25000   0.00000  Uiso   1.00
C182   C     0.69595   0.23480   0.30055   0.00000  Uiso   1.00
O183   O     0.71385   0.22871   0.33545   0.00000  Uiso   1.00
O184   O     0.68454   0.27539   0.28978   0.00000  Uiso   1.00
H185   H     0.69428   0.29711   0.31228   0.00000  Uiso   1.00
N186   N     0.97032   0.10169   0.48010   0.00000  Uiso   1.00
O187   O     0.99121   0.07827   0.00596   0.00000  Uiso   1.00
O188   O     0.99448   0.11236   0.43059   0.00000  Uiso   1.00
C189   C     0.73876   0.16711   0.08375   0.00000  Uiso   1.00
O190   O     0.74768   0.13746   0.10784   0.00000  Uiso   1.00
O191   O     0.70691   0.19854   0.11209   0.00000  Uiso   1.00
H192   H     0.69503   0.19443   0.15267   0.00000  Uiso   1.00
O193   O     0.12846   0.56108   0.25001   0.00000  Uiso   1.00
O194   O     0.20490   0.56107   0.25000   0.00000  Uiso   1.00
C195   C     0.16654   0.58000   0.25015   0.00000  Uiso   1.00
O196   O     0.10947   0.50000   0.32681   0.00000  Uiso   1.00
O197   O     0.18591   0.49999   0.32681   0.00000  Uiso   1.00
C198   C     0.14007   0.49810   0.35209   0.00000  Uiso   1.00
Zn199  Zn    0.11562   0.50001   0.25000   0.00000  Uiso   1.00
Zn200  Zn    0.21771   0.49999   0.25000   0.00000  Uiso   1.00
O201   O     0.12843   0.43893   0.24999   0.00000  Uiso   1.00
O202   O     0.20488   0.43892   0.24999   0.00000  Uiso   1.00
O203   O     0.14742   0.50001   0.17319   0.00000  Uiso   1.00
O204   O     0.22387   0.50000   0.17319   0.00000  Uiso   1.00
C205   C     0.16681   0.42001   0.24984   0.00000  Uiso   1.00
C206   C     0.19333   0.49994   0.14775   0.00000  Uiso   1.00
C207   C     0.25884   0.45559   0.00916   0.00000  Uiso   1.00
H208   H     0.27656   0.46320   0.08200   0.00000  Uiso   1.00
H209   H     0.25560   0.42290   0.41409   0.00000  Uiso   1.00
C210   C     0.20959   0.49363   0.08925   0.00000  Uiso   1.00
C211   C     0.07801   0.51278   0.44061   0.00000  Uiso   1.00
C212   C     0.06317   0.51513   0.49661   0.00000  Uiso   1.00
C213   C     0.09397   0.50278   0.02412   0.00000  Uiso   1.00
C214   C     0.14162   0.48839   0.49383   0.00000  Uiso   1.00
C215   C     0.15228   0.47869   0.43843   0.00000  Uiso   1.00
C216   C     0.17960   0.48402   0.01520   0.00000  Uiso   1.00
C217   C     0.22209   0.46099   0.48622   0.00000  Uiso   1.00
C218   C     0.22603   0.44333   0.43591   0.00000  Uiso   1.00
C219   C     0.19226   0.45286   0.41179   0.00000  Uiso   1.00
C220   C     0.17762   0.50413   0.06314   0.00000  Uiso   1.00
C221   C     0.25092   0.47033   0.06201   0.00000  Uiso   1.00
C222   C     0.12261   0.49505   0.41112   0.00000  Uiso   1.00
H223   H     0.14985   0.52684   0.08246   0.00000  Uiso   1.00
H224   H     0.05428   0.52459   0.42044   0.00000  Uiso   1.00
H225   H     0.02715   0.52645   0.01861   0.00000  Uiso   1.00
H226   H     0.19742   0.43922   0.37228   0.00000  Uiso   1.00
C227   C     0.19943   0.64522   0.26830   0.00000  Uiso   1.00
H228   H     0.22456   0.62877   0.28302   0.00000  Uiso   1.00
C229   C     0.19971   0.35462   0.26798   0.00000  Uiso   1.00
H230   H     0.22496   0.37094   0.28251   0.00000  Uiso   1.00
C231   C     0.16694   0.37585   0.24971   0.00000  Uiso   1.00
C232   C     0.13403   0.35478   0.23158   0.00000  Uiso   1.00
H233   H     0.10891   0.37122   0.21684   0.00000  Uiso   1.00
C234   C     0.13387   0.64539   0.23174   0.00000  Uiso   1.00
H235   H     0.10884   0.62907   0.21688   0.00000  Uiso   1.00
C236   C     0.16648   0.62415   0.25022   0.00000  Uiso   1.00
C237   C     0.31595   0.46687   0.22925   0.00000  Uiso   1.00
H238   H     0.30329   0.44043   0.21226   0.00000  Uiso   1.00
C239   C     0.03047   0.46686   0.22932   0.00000  Uiso   1.00
H240   H     0.05376   0.44040   0.21248   0.00000  Uiso   1.00
N241   N     0.04760   0.50001   0.25002   0.00000  Uiso   1.00
C242   C     0.01625   0.53273   0.27249   0.00000  Uiso   1.00
C243   C     0.30217   0.53273   0.27140   0.00000  Uiso   1.00
H244   H     0.27792   0.55848   0.28913   0.00000  Uiso   1.00
N245   N     0.28573   0.49998   0.25000   0.00000  Uiso   1.00
C246   C     0.02929   0.56813   0.30055   0.00000  Uiso   1.00
O247   O     0.04718   0.56204   0.33545   0.00000  Uiso   1.00
O248   O     0.01787   0.60872   0.28978   0.00000  Uiso   1.00
H249   H     0.02761   0.63044   0.31228   0.00000  Uiso   1.00
N250   N     0.30365   0.43502   0.48010   0.00000  Uiso   1.00
O251   O     0.32454   0.41160   0.00596   0.00000  Uiso   1.00
O252   O     0.32781   0.44570   0.43059   0.00000  Uiso   1.00
C253   C     0.07209   0.50044   0.08375   0.00000  Uiso   1.00
O254   O     0.08101   0.47079   0.10784   0.00000  Uiso   1.00
O255   O     0.04024   0.53187   0.11209   0.00000  Uiso   1.00
H256   H     0.02836   0.52776   0.15267   0.00000  Uiso   1.00
O257   O     0.46179   0.56108   0.25001   0.00000  Uiso   1.00
O258   O     0.53823   0.56107   0.25000   0.00000  Uiso   1.00
C259   C     0.49987   0.58000   0.25015   0.00000  Uiso   1.00
O260   O     0.44280   0.50000   0.32681   0.00000  Uiso   1.00
O261   O     0.51924   0.49999   0.32681   0.00000  Uiso   1.00
C262   C     0.47340   0.49810   0.35209   0.00000  Uiso   1.00
Zn263  Zn    0.44896   0.50001   0.25000   0.00000  Uiso   1.00
Zn264  Zn    0.55104   0.49999   0.25000   0.00000  Uiso   1.00
O265   O     0.46177   0.43893   0.24999   0.00000  Uiso   1.00
O266   O     0.53821   0.43892   0.24999   0.00000  Uiso   1.00
O267   O     0.48076   0.50001   0.17319   0.00000  Uiso   1.00
O268   O     0.55720   0.50000   0.17319   0.00000  Uiso   1.00
C269   C     0.50014   0.42001   0.24984   0.00000  Uiso   1.00
C270   C     0.52666   0.49994   0.14775   0.00000  Uiso   1.00
C271   C     0.59218   0.45559   0.00916   0.00000  Uiso   1.00
H272   H     0.60989   0.46320   0.08200   0.00000  Uiso   1.00
H273   H     0.58894   0.42290   0.41409   0.00000  Uiso   1.00
C274   C     0.54292   0.49363   0.08925   0.00000  Uiso   1.00
C275   C     0.41134   0.51278   0.44061   0.00000  Uiso   1.00
C276   C     0.39650   0.51513   0.49661   0.00000  Uiso   1.00
C277   C     0.42730   0.50278   0.02412   0.00000  Uiso   1.00
C278   C     0.47496   0.48839   0.49383   0.00000  Uiso   1.00
C279   C     0.48562   0.47869   0.43843   0.00000  Uiso   1.00
C280   C     0.51293   0.48402   0.01520   0.00000  Uiso   1.00
C281   C     0.55542   0.46099   0.48622   0.00000  Uiso   1.00
C282   C     0.55936   0.44333   0.43591   0.00000  Uiso   1.00
C283   C     0.52560   0.45286   0.41179   0.00000  Uiso   1.00
C284   C     0.51095   0.50413   0.06314   0.00000  Uiso   1.00
C285   C     0.58425   0.47033   0.06201   0.00000  Uiso   1.00
C286   C     0.45594   0.49505   0.41112   0.00000  Uiso   1.00
H287   H     0.48318   0.52684   0.08246   0.00000  Uiso   1.00
H288   H     0.38761   0.52459   0.42044   0.00000  Uiso   1.00
H289   H     0.36048   0.52645   0.01861   0.00000  Uiso   1.00
H290   H     0.53075   0.43922   0.37228   0.00000  Uiso   1.00
C291   C     0.53277   0.64522   0.26830   0.00000  Uiso   1.00
H292   H     0.55789   0.62877   0.28302   0.00000  Uiso   1.00
C293   C     0.53304   0.35462   0.26798   0.00000  Uiso   1.00
H294   H     0.55829   0.37094   0.28251   0.00000  Uiso   1.00
C295   C     0.50028   0.37585   0.24971   0.00000  Uiso   1.00
C296   C     0.46736   0.35478   0.23158   0.00000  Uiso   1.00
H297   H     0.44224   0.37122   0.21684   0.00000  Uiso   1.00
C298   C     0.46720   0.64539   0.23174   0.00000  Uiso   1.00
H299   H     0.44218   0.62907   0.21688   0.00000  Uiso   1.00
C300   C     0.49981   0.62415   0.25022   0.00000  Uiso   1.00
C301   C     0.64929   0.46687   0.22925   0.00000  Uiso   1.00
H302   H     0.63663   0.44043   0.21226   0.00000  Uiso   1.00
C303   C     0.36380   0.46686   0.22932   0.00000  Uiso   1.00
H304   H     0.38709   0.44040   0.21248   0.00000  Uiso   1.00
N305   N     0.38093   0.50001   0.25002   0.00000  Uiso   1.00
C306   C     0.34958   0.53273   0.27249   0.00000  Uiso   1.00
C307   C     0.63550   0.53273   0.27140   0.00000  Uiso   1.00
H308   H     0.61125   0.55848   0.28913   0.00000  Uiso   1.00
N309   N     0.61906   0.49998   0.25000   0.00000  Uiso   1.00
C310   C     0.36262   0.56813   0.30055   0.00000  Uiso   1.00
O311   O     0.38052   0.56204   0.33545   0.00000  Uiso   1.00
O312   O     0.35121   0.60872   0.28978   0.00000  Uiso   1.00
H313   H     0.36095   0.63044   0.31228   0.00000  Uiso   1.00
N314   N     0.63699   0.43502   0.48010   0.00000  Uiso   1.00
O315   O     0.65787   0.41160   0.00596   0.00000  Uiso   1.00
O316   O     0.66115   0.44570   0.43059   0.00000  Uiso   1.00
C317   C     0.40542   0.50044   0.08375   0.00000  Uiso   1.00
O318   O     0.41434   0.47079   0.10784   0.00000  Uiso   1.00
O319   O     0.37358   0.53187   0.11209   0.00000  Uiso   1.00
H320   H     0.36170   0.52776   0.15267   0.00000  Uiso   1.00
O321   O     0.79512   0.56108   0.25001   0.00000  Uiso   1.00
O322   O     0.87157   0.56107   0.25000   0.00000  Uiso   1.00
C323   C     0.83321   0.58000   0.25015   0.00000  Uiso   1.00
O324   O     0.77613   0.50000   0.32681   0.00000  Uiso   1.00
O325   O     0.85258   0.49999   0.32681   0.00000  Uiso   1.00
C326   C     0.80674   0.49810   0.35209   0.00000  Uiso   1.00
Zn327  Zn    0.78229   0.50001   0.25000   0.00000  Uiso   1.00
Zn328  Zn    0.88438   0.49999   0.25000   0.00000  Uiso   1.00
O329   O     0.79510   0.43893   0.24999   0.00000  Uiso   1.00
O330   O     0.87154   0.43892   0.24999   0.00000  Uiso   1.00
O331   O     0.81409   0.50001   0.17319   0.00000  Uiso   1.00
O332   O     0.89053   0.50000   0.17319   0.00000  Uiso   1.00
C333   C     0.83348   0.42001   0.24984   0.00000  Uiso   1.00
C334   C     0.85999   0.49994   0.14775   0.00000  Uiso   1.00
C335   C     0.92551   0.45559   0.00916   0.00000  Uiso   1.00
H336   H     0.94322   0.46320   0.08200   0.00000  Uiso   1.00
H337   H     0.92227   0.42290   0.41409   0.00000  Uiso   1.00
C338   C     0.87625   0.49363   0.08925   0.00000  Uiso   1.00
C339   C     0.74467   0.51278   0.44061   0.00000  Uiso   1.00
C340   C     0.72984   0.51513   0.49661   0.00000  Uiso   1.00
C341   C     0.76064   0.50278   0.02412   0.00000  Uiso   1.00
C342   C     0.80829   0.48839   0.49383   0.00000  Uiso   1.00
C343   C     0.81895   0.47869   0.43843   0.00000  Uiso   1.00
C344   C     0.84627   0.48402   0.01520   0.00000  Uiso   1.00
C345   C     0.88875   0.46099   0.48622   0.00000  Uiso   1.00
C346   C     0.89269   0.44333   0.43591   0.00000  Uiso   1.00
C347   C     0.85893   0.45286   0.41179   0.00000  Uiso   1.00
C348   C     0.84429   0.50413   0.06314   0.00000  Uiso   1.00
C349   C     0.91759   0.47033   0.06201   0.00000  Uiso   1.00
C350   C     0.78928   0.49505   0.41112   0.00000  Uiso   1.00
H351   H     0.81652   0.52684   0.08246   0.00000  Uiso   1.00
H352   H     0.72094   0.52459   0.42044   0.00000  Uiso   1.00
H353   H     0.69381   0.52645   0.01861   0.00000  Uiso   1.00
H354   H     0.86409   0.43922   0.37228   0.00000  Uiso   1.00
C355   C     0.86610   0.64522   0.26830   0.00000  Uiso   1.00
H356   H     0.89123   0.62877   0.28302   0.00000  Uiso   1.00
C357   C     0.86637   0.35462   0.26798   0.00000  Uiso   1.00
H358   H     0.89162   0.37094   0.28251   0.00000  Uiso   1.00
C359   C     0.83361   0.37585   0.24971   0.00000  Uiso   1.00
C360   C     0.80069   0.35478   0.23158   0.00000  Uiso   1.00
H361   H     0.77557   0.37122   0.21684   0.00000  Uiso   1.00
C362   C     0.80054   0.64539   0.23174   0.00000  Uiso   1.00
H363   H     0.77551   0.62907   0.21688   0.00000  Uiso   1.00
C364   C     0.83314   0.62415   0.25022   0.00000  Uiso   1.00
C365   C     0.98262   0.46687   0.22925   0.00000  Uiso   1.00
H366   H     0.96996   0.44043   0.21226   0.00000  Uiso   1.00
C367   C     0.69714   0.46686   0.22932   0.00000  Uiso   1.00
H368   H     0.72043   0.44040   0.21248   0.00000  Uiso   1.00
N369   N     0.71426   0.50001   0.25002   0.00000  Uiso   1.00
C370   C     0.68292   0.53273   0.27249   0.00000  Uiso   1.00
C371   C     0.96884   0.53273   0.27140   0.00000  Uiso   1.00
H372   H     0.94459   0.55848   0.28913   0.00000  Uiso   1.00
N373   N     0.95239   0.49998   0.25000   0.00000  Uiso   1.00
C374   C     0.69595   0.56813   0.30055   0.00000  Uiso   1.00
O375   O     0.71385   0.56204   0.33545   0.00000  Uiso   1.00
O376   O     0.68454   0.60872   0.28978   0.00000  Uiso   1.00
H377   H     0.69428   0.63044   0.31228   0.00000  Uiso   1.00
N378   N     0.97032   0.43502   0.48010   0.00000  Uiso   1.00
O379   O     0.99121   0.41160   0.00596   0.00000  Uiso   1.00
O380   O     0.99448   0.44570   0.43059   0.00000  Uiso   1.00
C381   C     0.73876   0.50044   0.08375   0.00000  Uiso   1.00
O382   O     0.74768   0.47079   0.10784   0.00000  Uiso   1.00
O383   O     0.70691   0.53187   0.11209   0.00000  Uiso   1.00
H384   H     0.69503   0.52776   0.15267   0.00000  Uiso   1.00
O385   O     0.12846   0.89442   0.25001   0.00000  Uiso   1.00
O386   O     0.20490   0.89441   0.25000   0.00000  Uiso   1.00
C387   C     0.16654   0.91333   0.25015   0.00000  Uiso   1.00
O388   O     0.10947   0.83333   0.32681   0.00000  Uiso   1.00
O389   O     0.18591   0.83332   0.32681   0.00000  Uiso   1.00
C390   C     0.14007   0.83143   0.35209   0.00000  Uiso   1.00
Zn391  Zn    0.11562   0.83334   0.25000   0.00000  Uiso   1.00
Zn392  Zn    0.21771   0.83333   0.25000   0.00000  Uiso   1.00
O393   O     0.12843   0.77226   0.24999   0.00000  Uiso   1.00
O394   O     0.20488   0.77225   0.24999   0.00000  Uiso   1.00
O395   O     0.14742   0.83335   0.17319   0.00000  Uiso   1.00
O396   O     0.22387   0.83334   0.17319   0.00000  Uiso   1.00
C397   C     0.16681   0.75334   0.24984   0.00000  Uiso   1.00
C398   C     0.19333   0.83327   0.14775   0.00000  Uiso   1.00
C399   C     0.25884   0.78892   0.00916   0.00000  Uiso   1.00
H400   H     0.27656   0.79653   0.08200   0.00000  Uiso   1.00
H401   H     0.25560   0.75623   0.41409   0.00000  Uiso   1.00
C402   C     0.20959   0.82696   0.08925   0.00000  Uiso   1.00
C403   C     0.07801   0.84611   0.44061   0.00000  Uiso   1.00
C404   C     0.06317   0.84847   0.49661   0.00000  Uiso   1.00
C405   C     0.09397   0.83611   0.02412   0.00000  Uiso   1.00
C406   C     0.14162   0.82172   0.49383   0.00000  Uiso   1.00
C407   C     0.15228   0.81202   0.43843   0.00000  Uiso   1.00
C408   C     0.17960   0.81736   0.01520   0.00000  Uiso   1.00
C409   C     0.22209   0.79433   0.48622   0.00000  Uiso   1.00
C410   C     0.22603   0.77666   0.43591   0.00000  Uiso   1.00
C411   C     0.19226   0.78619   0.41179   0.00000  Uiso   1.00
C412   C     0.17762   0.83746   0.06314   0.00000  Uiso   1.00
C413   C     0.25092   0.80366   0.06201   0.00000  Uiso   1.00
C414   C     0.12261   0.82838   0.41112   0.00000  Uiso   1.00
H415   H     0.14985   0.86017   0.08246   0.00000  Uiso   1.00
H416   H     0.05428   0.85792   0.42044   0.00000  Uiso   1.00
H417   H     0.02715   0.85978   0.01861   0.00000  Uiso   1.00
H418   H     0.19742   0.77255   0.37228   0.00000  Uiso   1.00
C419   C     0.19943   0.97856   0.26830   0.00000  Uiso   1.00
H420   H     0.22456   0.96211   0.28302   0.00000  Uiso   1.00
C421   C     0.19971   0.68795   0.26798   0.00000  Uiso   1.00
H422   H     0.22496   0.70428   0.28251   0.00000  Uiso   1.00
C423   C     0.16694   0.70919   0.24971   0.00000  Uiso   1.00
C424   C     0.13403   0.68811   0.23158   0.00000  Uiso   1.00
H425   H     0.10891   0.70456   0.21684   0.00000  Uiso   1.00
C426   C     0.13387   0.97873   0.23174   0.00000  Uiso   1.00
H427   H     0.10884   0.96240   0.21688   0.00000  Uiso   1.00
C428   C     0.16648   0.95749   0.25022   0.00000  Uiso   1.00
C429   C     0.31595   0.80020   0.22925   0.00000  Uiso   1.00
H430   H     0.30329   0.77377   0.21226   0.00000  Uiso   1.00
C431   C     0.03047   0.80020   0.22932   0.00000  Uiso   1.00
H432   H     0.05376   0.77374   0.21248   0.00000  Uiso   1.00
N433   N     0.04760   0.83334   0.25002   0.00000  Uiso   1.00
C434   C     0.01625   0.86606   0.27249   0.00000  Uiso   1.00
C435   C     0.30217   0.86606   0.27140   0.00000  Uiso   1.00
H436   H     0.27792   0.89182   0.28913   0.00000  Uiso   1.00
N437   N     0.28573   0.83331   0.25000   0.00000  Uiso   1.00
C438   C     0.02929   0.90146   0.30055   0.00000  Uiso   1.00
O439   O     0.04718   0.89538   0.33545   0.00000  Uiso   1.00
O440   O     0.01787   0.94206   0.28978   0.00000  Uiso   1.00
H441   H     0.02761   0.96378   0.31228   0.00000  Uiso   1.00
N442   N     0.30365   0.76835   0.48010   0.00000  Uiso   1.00
O443   O     0.32454   0.74493   0.00596   0.00000  Uiso   1.00
O444   O     0.32781   0.77903   0.43059   0.00000  Uiso   1.00
C445   C     0.07209   0.83377   0.08375   0.00000  Uiso   1.00
O446   O     0.08101   0.80412   0.10784   0.00000  Uiso   1.00
O447   O     0.04024   0.86521   0.11209   0.00000  Uiso   1.00
H448   H     0.02836   0.86110   0.15267   0.00000  Uiso   1.00
O449   O     0.46179   0.89442   0.25001   0.00000  Uiso   1.00
O450   O     0.53823   0.89441   0.25000   0.00000  Uiso   1.00
C451   C     0.49987   0.91333   0.25015   0.00000  Uiso   1.00
O452   O     0.44280   0.83333   0.32681   0.00000  Uiso   1.00
O453   O     0.51924   0.83332   0.32681   0.00000  Uiso   1.00
C454   C     0.47340   0.83143   0.35209   0.00000  Uiso   1.00
Zn455  Zn    0.44896   0.83334   0.25000   0.00000  Uiso   1.00
Zn456  Zn    0.55104   0.83333   0.25000   0.00000  Uiso   1.00
O457   O     0.46177   0.77226   0.24999   0.00000  Uiso   1.00
O458   O     0.53821   0.77225   0.24999   0.00000  Uiso   1.00
O459   O     0.48076   0.83335   0.17319   0.00000  Uiso   1.00
O460   O     0.55720   0.83334   0.17319   0.00000  Uiso   1.00
C461   C     0.50014   0.75334   0.24984   0.00000  Uiso   1.00
C462   C     0.52666   0.83327   0.14775   0.00000  Uiso   1.00
C463   C     0.59218   0.78892   0.00916   0.00000  Uiso   1.00
H464   H     0.60989   0.79653   0.08200   0.00000  Uiso   1.00
H465   H     0.58894   0.75623   0.41409   0.00000  Uiso   1.00
C466   C     0.54292   0.82696   0.08925   0.00000  Uiso   1.00
C467   C     0.41134   0.84611   0.44061   0.00000  Uiso   1.00
C468   C     0.39650   0.84847   0.49661   0.00000  Uiso   1.00
C469   C     0.42730   0.83611   0.02412   0.00000  Uiso   1.00
C470   C     0.47496   0.82172   0.49383   0.00000  Uiso   1.00
C471   C     0.48562   0.81202   0.43843   0.00000  Uiso   1.00
C472   C     0.51293   0.81736   0.01520   0.00000  Uiso   1.00
C473   C     0.55542   0.79433   0.48622   0.00000  Uiso   1.00
C474   C     0.55936   0.77666   0.43591   0.00000  Uiso   1.00
C475   C     0.52560   0.78619   0.41179   0.00000  Uiso   1.00
C476   C     0.51095   0.83746   0.06314   0.00000  Uiso   1.00
C477   C     0.58425   0.80366   0.06201   0.00000  Uiso   1.00
C478   C     0.45594   0.82838   0.41112   0.00000  Uiso   1.00
H479   H     0.48318   0.86017   0.08246   0.00000  Uiso   1.00
H480   H     0.38761   0.85792   0.42044   0.00000  Uiso   1.00
H481   H     0.36048   0.85978   0.01861   0.00000  Uiso   1.00
H482   H     0.53075   0.77255   0.37228   0.00000  Uiso   1.00
C483   C     0.53277   0.97856   0.26830   0.00000  Uiso   1.00
H484   H     0.55789   0.96211   0.28302   0.00000  Uiso   1.00
C485   C     0.53304   0.68795   0.26798   0.00000  Uiso   1.00
H486   H     0.55829   0.70428   0.28251   0.00000  Uiso   1.00
C487   C     0.50028   0.70919   0.24971   0.00000  Uiso   1.00
C488   C     0.46736   0.68811   0.23158   0.00000  Uiso   1.00
H489   H     0.44224   0.70456   0.21684   0.00000  Uiso   1.00
C490   C     0.46720   0.97873   0.23174   0.00000  Uiso   1.00
H491   H     0.44218   0.96240   0.21688   0.00000  Uiso   1.00
C492   C     0.49981   0.95749   0.25022   0.00000  Uiso   1.00
C493   C     0.64929   0.80020   0.22925   0.00000  Uiso   1.00
H494   H     0.63663   0.77377   0.21226   0.00000  Uiso   1.00
C495   C     0.36380   0.80020   0.22932   0.00000  Uiso   1.00
H496   H     0.38709   0.77374   0.21248   0.00000  Uiso   1.00
N497   N     0.38093   0.83334   0.25002   0.00000  Uiso   1.00
C498   C     0.34958   0.86606   0.27249   0.00000  Uiso   1.00
C499   C     0.63550   0.86606   0.27140   0.00000  Uiso   1.00
H500   H     0.61125   0.89182   0.28913   0.00000  Uiso   1.00
N501   N     0.61906   0.83331   0.25000   0.00000  Uiso   1.00
C502   C     0.36262   0.90146   0.30055   0.00000  Uiso   1.00
O503   O     0.38052   0.89538   0.33545   0.00000  Uiso   1.00
O504   O     0.35121   0.94206   0.28978   0.00000  Uiso   1.00
H505   H     0.36095   0.96378   0.31228   0.00000  Uiso   1.00
N506   N     0.63699   0.76835   0.48010   0.00000  Uiso   1.00
O507   O     0.65787   0.74493   0.00596   0.00000  Uiso   1.00
O508   O     0.66115   0.77903   0.43059   0.00000  Uiso   1.00
C509   C     0.40542   0.83377   0.08375   0.00000  Uiso   1.00
O510   O     0.41434   0.80412   0.10784   0.00000  Uiso   1.00
O511   O     0.37358   0.86521   0.11209   0.00000  Uiso   1.00
H512   H     0.36170   0.86110   0.15267   0.00000  Uiso   1.00
O513   O     0.79512   0.89442   0.25001   0.00000  Uiso   1.00
O514   O     0.87157   0.89441   0.25000   0.00000  Uiso   1.00
C515   C     0.83321   0.91333   0.25015   0.00000  Uiso   1.00
O516   O     0.77613   0.83333   0.32681   0.00000  Uiso   1.00
O517   O     0.85258   0.83332   0.32681   0.00000  Uiso   1.00
C518   C     0.80674   0.83143   0.35209   0.00000  Uiso   1.00
Zn519  Zn    0.78229   0.83334   0.25000   0.00000  Uiso   1.00
Zn520  Zn    0.88438   0.83333   0.25000   0.00000  Uiso   1.00
O521   O     0.79510   0.77226   0.24999   0.00000  Uiso   1.00
O522   O     0.87154   0.77225   0.24999   0.00000  Uiso   1.00
O523   O     0.81409   0.83335   0.17319   0.00000  Uiso   1.00
O524   O     0.89053   0.83334   0.17319   0.00000  Uiso   1.00
C525   C     0.83348   0.75334   0.24984   0.00000  Uiso   1.00
C526   C     0.85999   0.83327   0.14775   0.00000  Uiso   1.00
C527   C     0.92551   0.78892   0.00916   0.00000  Uiso   1.00
H528   H     0.94322   0.79653   0.08200   0.00000  Uiso   1.00
H529   H     0.92227   0.75623   0.41409   0.00000  Uiso   1.00
C530   C     0.87625   0.82696   0.08925   0.00000  Uiso   1.00
C531   C     0.74467   0.84611   0.44061   0.00000  Uiso   1.00
C532   C     0.72984   0.84847   0.49661   0.00000  Uiso   1.00
C533   C     0.76064   0.83611   0.02412   0.00000  Uiso   1.00
C534   C     0.80829   0.82172   0.49383   0.00000  Uiso   1.00
C535   C     0.81895   0.81202   0.43843   0.00000  Uiso   1.00
C536   C     0.84627   0.81736   0.01520   0.00000  Uiso   1.00
C537   C     0.88875   0.79433   0.48622   0.00000  Uiso   1.00
C538   C     0.89269   0.77666   0.43591   0.00000  Uiso   1.00
C539   C     0.85893   0.78619   0.41179   0.00000  Uiso   1.00
C540   C     0.84429   0.83746   0.06314   0.00000  Uiso   1.00
C541   C     0.91759   0.80366   0.06201   0.00000  Uiso   1.00
C542   C     0.78928   0.82838   0.41112   0.00000  Uiso   1.00
H543   H     0.81652   0.86017   0.08246   0.00000  Uiso   1.00
H544   H     0.72094   0.85792   0.42044   0.00000  Uiso   1.00
H545   H     0.69381   0.85978   0.01861   0.00000  Uiso   1.00
H546   H     0.86409   0.77255   0.37228   0.00000  Uiso   1.00
C547   C     0.86610   0.97856   0.26830   0.00000  Uiso   1.00
H548   H     0.89123   0.96211   0.28302   0.00000  Uiso   1.00
C549   C     0.86637   0.68795   0.26798   0.00000  Uiso   1.00
H550   H     0.89162   0.70428   0.28251   0.00000  Uiso   1.00
C551   C     0.83361   0.70919   0.24971   0.00000  Uiso   1.00
C552   C     0.80069   0.68811   0.23158   0.00000  Uiso   1.00
H553   H     0.77557   0.70456   0.21684   0.00000  Uiso   1.00
C554   C     0.80054   0.97873   0.23174   0.00000  Uiso   1.00
H555   H     0.77551   0.96240   0.21688   0.00000  Uiso   1.00
C556   C     0.83314   0.95749   0.25022   0.00000  Uiso   1.00
C557   C     0.98262   0.80020   0.22925   0.00000  Uiso   1.00
H558   H     0.96996   0.77377   0.21226   0.00000  Uiso   1.00
C559   C     0.69714   0.80020   0.22932   0.00000  Uiso   1.00
H560   H     0.72043   0.77374   0.21248   0.00000  Uiso   1.00
N561   N     0.71426   0.83334   0.25002   0.00000  Uiso   1.00
C562   C     0.68292   0.86606   0.27249   0.00000  Uiso   1.00
C563   C     0.96884   0.86606   0.27140   0.00000  Uiso   1.00
H564   H     0.94459   0.89182   0.28913   0.00000  Uiso   1.00
N565   N     0.95239   0.83331   0.25000   0.00000  Uiso   1.00
C566   C     0.69595   0.90146   0.30055   0.00000  Uiso   1.00
O567   O     0.71385   0.89538   0.33545   0.00000  Uiso   1.00
O568   O     0.68454   0.94206   0.28978   0.00000  Uiso   1.00
H569   H     0.69428   0.96378   0.31228   0.00000  Uiso   1.00
N570   N     0.97032   0.76835   0.48010   0.00000  Uiso   1.00
O571   O     0.99121   0.74493   0.00596   0.00000  Uiso   1.00
O572   O     0.99448   0.77903   0.43059   0.00000  Uiso   1.00
C573   C     0.73876   0.83377   0.08375   0.00000  Uiso   1.00
O574   O     0.74768   0.80412   0.10784   0.00000  Uiso   1.00
O575   O     0.70691   0.86521   0.11209   0.00000  Uiso   1.00
H576   H     0.69503   0.86110   0.15267   0.00000  Uiso   1.00
O577   O     0.12846   0.22775   0.75001   0.00000  Uiso   1.00
O578   O     0.20490   0.22774   0.75000   0.00000  Uiso   1.00
C579   C     0.16654   0.24666   0.75015   0.00000  Uiso   1.00
O580   O     0.10947   0.16666   0.82681   0.00000  Uiso   1.00
O581   O     0.18591   0.16665   0.82681   0.00000  Uiso   1.00
C582   C     0.14007   0.16477   0.85209   0.00000  Uiso   1.00
Zn583  Zn    0.11562   0.16667   0.75000   0.00000  Uiso   1.00
Zn584  Zn    0.21771   0.16666   0.75000   0.00000  Uiso   1.00
O585   O     0.12843   0.10559   0.74999   0.00000  Uiso   1.00
O586   O     0.20488   0.10558   0.74999   0.00000  Uiso   1.00
O587   O     0.14742   0.16668   0.67319   0.00000  Uiso   1.00
O588   O     0.22387   0.16667   0.67319   0.00000  Uiso   1.00
C589   C     0.16681   0.08667   0.74984   0.00000  Uiso   1.00
C590   C     0.19333   0.16660   0.64775   0.00000  Uiso   1.00
C591   C     0.25884   0.12225   0.50916   0.00000  Uiso   1.00
H592   H     0.27656   0.12987   0.58200   0.00000  Uiso   1.00
H593   H     0.25560   0.08956   0.91409   0.00000  Uiso   1.00
C594   C     0.20959   0.16030   0.58925   0.00000  Uiso   1.00
C595   C     0.07801   0.17944   0.94061   0.00000  Uiso   1.00
C596   C     0.06317   0.18180   0.99661   0.00000  Uiso   1.00
C597   C     0.09397   0.16945   0.52412   0.00000  Uiso   1.00
C598   C     0.14162   0.15505   0.99383   0.00000  Uiso   1.00
C599   C     0.15228   0.14535   0.93843   0.00000  Uiso   1.00
C600   C     0.17960   0.15069   0.51520   0.00000  Uiso   1.00
C601   C     0.22209   0.12766   0.98622   0.00000  Uiso   1.00
C602   C     0.22603   0.11000   0.93591   0.00000  Uiso   1.00
C603   C     0.19226   0.11952   0.91179   0.00000  Uiso   1.00
C604   C     0.17762   0.17080   0.56314   0.00000  Uiso   1.00
C605   C     0.25092   0.13700   0.56201   0.00000  Uiso   1.00
C606   C     0.12261   0.16172   0.91112   0.00000  Uiso   1.00
H607   H     0.14985   0.19351   0.58246   0.00000  Uiso   1.00
H608   H     0.05428   0.19126   0.92044   0.00000  Uiso   1.00
H609   H     0.02715   0.19312   0.51861   0.00000  Uiso   1.00
H610   H     0.19742   0.10589   0.87228   0.00000  Uiso   1.00
C611   C     0.19943   0.31189   0.76830   0.00000  Uiso   1.00
H612   H     0.22456   0.29544   0.78302   0.00000  Uiso   1.00
C613   C     0.19971   0.02128   0.76798   0.00000  Uiso   1.00
H614   H     0.22496   0.03761   0.78251   0.00000  Uiso   1.00
C615   C     0.16694   0.04252   0.74971   0.00000  Uiso   1.00
C616   C     0.13403   0.02145   0.73158   0.00000  Uiso   1.00
H617   H     0.10891   0.03789   0.71684   0.00000  Uiso   1.00
C618   C     0.13387   0.31206   0.73174   0.00000  Uiso   1.00
H619   H     0.10884   0.29574   0.71688   0.00000  Uiso   1.00
C620   C     0.16648   0.29082   0.75022   0.00000  Uiso   1.00
C621   C     0.31595   0.13353   0.72925   0.00000  Uiso   1.00
H622   H     0.30329   0.10710   0.71226   0.00000  Uiso   1.00
C623   C     0.03047   0.13353   0.72932   0.00000  Uiso   1.00
H624   H     0.05376   0.10707   0.71248   0.00000  Uiso   1.00
N625   N     0.04760   0.16668   0.75002   0.00000  Uiso   1.00
C626   C     0.01625   0.19940   0.77249   0.00000  Uiso   1.00
C627   C     0.30217   0.19940   0.77140   0.00000  Uiso   1.00
H628   H     0.27792   0.22515   0.78913   0.00000  Uiso   1.00
N629   N     0.28573   0.16665   0.75000   0.00000  Uiso   1.00
C630   C     0.02929   0.23480   0.80055   0.00000  Uiso   1.00
O631   O     0.04718   0.22871   0.83545   0.00000  Uiso   1.00
O632   O     0.01787   0.27539   0.78978   0.00000  Uiso   1.00
H633   H     0.02761   0.29711   0.81228   0.00000  Uiso   1.00
N634   N     0.30365   0.10169   0.98010   0.00000  Uiso   1.00
O635   O     0.32454   0.07827   0.50596   0.00000  Uiso   1.00
O636   O     0.32781   0.11236   0.93059   0.00000  Uiso   1.00
C637   C     0.07209   0.16711   0.58375   0.00000  Uiso   1.00
O638   O     0.08101   0.13746   0.60784   0.00000  Uiso   1.00
O639   O     0.04024   0.19854   0.61209   0.00000  Uiso   1.00
H640   H     0.02836   0.19443   0.65267   0.00000  Uiso   1.00
O641   O     0.46179   0.22775   0.75001   0.00000  Uiso   1.00
O642   O     0.53823   0.22774   0.75000   0.00000  Uiso   1.00
C643   C     0.49987   0.24666   0.75015   0.00000  Uiso   1.00
O644   O     0.44280   0.16666   0.82681   0.00000  Uiso   1.00
O645   O     0.51924   0.16665   0.82681   0.00000  Uiso   1.00
C646   C     0.47340   0.16477   0.85209   0.00000  Uiso   1.00
Zn647  Zn    0.44896   0.16667   0.75000   0.00000  Uiso   1.00
Zn648  Zn    0.55104   0.16666   0.75000   0.00000  Uiso   1.00
O649   O     0.46177   0.10559   0.74999   0.00000  Uiso   1.00
O650   O     0.53821   0.10558   0.74999   0.00000  Uiso   1.00
O651   O     0.48076   0.16668   0.67319   0.00000  Uiso   1.00
O652   O     0.55720   0.16667   0.67319   0.00000  Uiso   1.00
C653   C     0.50014   0.08667   0.74984   0.00000  Uiso   1.00
C654   C     0.52666   0.16660   0.64775   0.00000  Uiso   1.00
C655   C     0.59218   0.12225   0.50916   0.00000  Uiso   1.00
H656   H     0.60989   0.12987   0.58200   0.00000  Uiso   1.00
H657   H     0.58894   0.08956   0.91409   0.00000  Uiso   1.00
C658   C     0.54292   0.16030   0.58925   0.00000  Uiso   1.00
C659   C     0.41134   0.17944   0.94061   0.00000  Uiso   1.00
C660   C     0.39650   0.18180   0.99661   0.00000  Uiso   1.00
C661   C     0.42730   0.16945   0.52412   0.00000  Uiso   1.00
C662   C     0.47496   0.15505   0.99383   0.00000  Uiso   1.00
C663   C     0.48562   0.14535   0.93843   0.00000  Uiso   1.00
C664   C     0.51293   0.15069   0.51520   0.00000  Uiso   1.00
C665   C     0.55542   0.12766   0.98622   0.00000  Uiso   1.00
C666   C     0.55936   0.11000   0.93591   0.00000  Uiso   1.00
C667   C     0.52560   0.11952   0.91179   0.00000  Uiso   1.00
C668   C     0.51095   0.17080   0.56314   0.00000  Uiso   1.00
C669   C     0.58425   0.13700   0.56201   0.00000  Uiso   1.00
C670   C     0.45594   0.16172   0.91112   0.00000  Uiso   1.00
H671   H     0.48318   0.19351   0.58246   0.00000  Uiso   1.00
H672   H     0.38761   0.19126   0.92044   0.00000  Uiso   1.00
H673   H     0.36048   0.19312   0.51861   0.00000  Uiso   1.00
H674   H     0.53075   0.10589   0.87228   0.00000  Uiso   1.00
C675   C     0.53277   0.31189   0.76830   0.00000  Uiso   1.00
H676   H     0.55789   0.29544   0.78302   0.00000  Uiso   1.00
C677   C     0.53304   0.02128   0.76798   0.00000  Uiso   1.00
H678   H     0.55829   0.03761   0.78251   0.00000  Uiso   1.00
C679   C     0.50028   0.04252   0.74971   0.00000  Uiso   1.00
C680   C     0.46736   0.02145   0.73158   0.00000  Uiso   1.00
H681   H     0.44224   0.03789   0.71684   0.00000  Uiso   1.00
C682   C     0.46720   0.31206   0.73174   0.00000  Uiso   1.00
H683   H     0.44218   0.29574   0.71688   0.00000  Uiso   1.00
C684   C     0.49981   0.29082   0.75022   0.00000  Uiso   1.00
C685   C     0.64929   0.13353   0.72925   0.00000  Uiso   1.00
H686   H     0.63663   0.10710   0.71226   0.00000  Uiso   1.00
C687   C     0.36380   0.13353   0.72932   0.00000  Uiso   1.00
H688   H     0.38709   0.10707   0.71248   0.00000  Uiso   1.00
N689   N     0.38093   0.16668   0.75002   0.00000  Uiso   1.00
C690   C     0.34958   0.19940   0.77249   0.00000  Uiso   1.00
C691   C     0.63550   0.19940   0.77140   0.00000  Uiso   1.00
H692   H     0.61125   0.22515   0.78913   0.00000  Uiso   1.00
N693   N     0.61906   0.16665   0.75000   0.00000  Uiso   1.00
C694   C     0.36262   0.23480   0.80055   0.00000  Uiso   1.00
O695   O     0.38052   0.22871   0.83545   0.00000  Uiso   1.00
O696   O     0.35121   0.27539   0.78978   0.00000  Uiso   1.00
H697   H     0.36095   0.29711   0.81228   0.00000  Uiso   1.00
N698   N     0.63699   0.10169   0.98010   0.00000  Uiso   1.00
O699   O     0.65787   0.07827   0.50596   0.00000  Uiso   1.00
O700   O     0.66115   0.11236   0.93059   0.00000  Uiso   1.00
C701   C     0.40542   0.16711   0.58375   0.00000  Uiso   1.00
O702   O     0.41434   0.13746   0.60784   0.00000  Uiso   1.00
O703   O     0.37358   0.19854   0.61209   0.00000  Uiso   1.00
H704   H     0.36170   0.19443   0.65267   0.00000  Uiso   1.00
O705   O     0.79512   0.22775   0.75001   0.00000  Uiso   1.00
O706   O     0.87157   0.22774   0.75000   0.00000  Uiso   1.00
C707   C     0.83321   0.24666   0.75015   0.00000  Uiso   1.00
O708   O     0.77613   0.16666   0.82681   0.00000  Uiso   1.00
O709   O     0.85258   0.16665   0.82681   0.00000  Uiso   1.00
C710   C     0.80674   0.16477   0.85209   0.00000  Uiso   1.00
Zn711  Zn    0.78229   0.16667   0.75000   0.00000  Uiso   1.00
Zn712  Zn    0.88438   0.16666   0.75000   0.00000  Uiso   1.00
O713   O     0.79510   0.10559   0.74999   0.00000  Uiso   1.00
O714   O     0.87154   0.10558   0.74999   0.00000  Uiso   1.00
O715   O     0.81409   0.16668   0.67319   0.00000  Uiso   1.00
O716   O     0.89053   0.16667   0.67319   0.00000  Uiso   1.00
C717   C     0.83348   0.08667   0.74984   0.00000  Uiso   1.00
C718   C     0.85999   0.16660   0.64775   0.00000  Uiso   1.00
C719   C     0.92551   0.12225   0.50916   0.00000  Uiso   1.00
H720   H     0.94322   0.12987   0.58200   0.00000  Uiso   1.00
H721   H     0.92227   0.08956   0.91409   0.00000  Uiso   1.00
C722   C     0.87625   0.16030   0.58925   0.00000  Uiso   1.00
C723   C     0.74467   0.17944   0.94061   0.00000  Uiso   1.00
C724   C     0.72984   0.18180   0.99661   0.00000  Uiso   1.00
C725   C     0.76064   0.16945   0.52412   0.00000  Uiso   1.00
C726   C     0.80829   0.15505   0.99383   0.00000  Uiso   1.00
C727   C     0.81895   0.14535   0.93843   0.00000  Uiso   1.00
C728   C     0.84627   0.15069   0.51520   0.00000  Uiso   1.00
C729   C     0.88875   0.12766   0.98622   0.00000  Uiso   1.00
C730   C     0.89269   0.11000   0.93591   0.00000  Uiso   1.00
C731   C     0.85893   0.11952   0.91179   0.00000  Uiso   1.00
C732   C     0.84429   0.17080   0.56314   0.00000  Uiso   1.00
C733   C     0.91759   0.13700   0.56201   0.00000  Uiso   1.00
C734   C     0.78928   0.16172   0.91112   0.00000  Uiso   1.00
H735   H     0.81652   0.19351   0.58246   0.00000  Uiso   1.00
H736   H     0.72094   0.19126   0.92044   0.00000  Uiso   1.00
H737   H     0.69381   0.19312   0.51861   0.00000  Uiso   1.00
H738   H     0.86409   0.10589   0.87228   0.00000  Uiso   1.00
C739   C     0.86610   0.31189   0.76830   0.00000  Uiso   1.00
H740   H     0.89123   0.29544   0.78302   0.00000  Uiso   1.00
C741   C     0.86637   0.02128   0.76798   0.00000  Uiso   1.00
H742   H     0.89162   0.03761   0.78251   0.00000  Uiso   1.00
C743   C     0.83361   0.04252   0.74971   0.00000  Uiso   1.00
C744   C     0.80069   0.02145   0.73158   0.00000  Uiso   1.00
H745   H     0.77557   0.03789   0.71684   0.00000  Uiso   1.00
C746   C     0.80054   0.31206   0.73174   0.00000  Uiso   1.00
H747   H     0.77551   0.29574   0.71688   0.00000  Uiso   1.00
C748   C     0.83314   0.29082   0.75022   0.00000  Uiso   1.00
C749   C     0.98262   0.13353   0.72925   0.00000  Uiso   1.00
H750   H     0.96996   0.10710   0.71226   0.00000  Uiso   1.00
C751   C     0.69714   0.13353   0.72932   0.00000  Uiso   1.00
H752   H     0.72043   0.10707   0.71248   0.00000  Uiso   1.00
N753   N     0.71426   0.16668   0.75002   0.00000  Uiso   1.00
C754   C     0.68292   0.19940   0.77249   0.00000  Uiso   1.00
C755   C     0.96884   0.19940   0.77140   0.00000  Uiso   1.00
H756   H     0.94459   0.22515   0.78913   0.00000  Uiso   1.00
N757   N     0.95239   0.16665   0.75000   0.00000  Uiso   1.00
C758   C     0.69595   0.23480   0.80055   0.00000  Uiso   1.00
O759   O     0.71385   0.22871   0.83545   0.00000  Uiso   1.00
O760   O     0.68454   0.27539   0.78978   0.00000  Uiso   1.00
H761   H     0.69428   0.29711   0.81228   0.00000  Uiso   1.00
N762   N     0.97032   0.10169   0.98010   0.00000  Uiso   1.00
O763   O     0.99121   0.07827   0.50596   0.00000  Uiso   1.00
O764   O     0.99448   0.11236   0.93059   0.00000  Uiso   1.00
C765   C     0.73876   0.16711   0.58375   0.00000  Uiso   1.00
O766   O     0.74768   0.13746   0.60784   0.00000  Uiso   1.00
O767   O     0.70691   0.19854   0.61209   0.00000  Uiso   1.00
H768   H     0.69503   0.19443   0.65267   0.00000  Uiso   1.00
O769   O     0.12846   0.56108   0.75001   0.00000  Uiso   1.00
O770   O     0.20490   0.56107   0.75000   0.00000  Uiso   1.00
C771   C     0.16654   0.58000   0.75015   0.00000  Uiso   1.00
O772   O     0.10947   0.50000   0.82681   0.00000  Uiso   1.00
O773   O     0.18591   0.49999   0.82681   0.00000  Uiso   1.00
C774   C     0.14007   0.49810   0.85209   0.00000  Uiso   1.00
Zn775  Zn    0.11562   0.50001   0.75000   0.00000  Uiso   1.00
Zn776  Zn    0.21771   0.49999   0.75000   0.00000  Uiso   1.00
O777   O     0.12843   0.43893   0.74999   0.00000  Uiso   1.00
O778   O     0.20488   0.43892   0.74999   0.00000  Uiso   1.00
O779   O     0.14742   0.50001   0.67319   0.00000  Uiso   1.00
O780   O     0.22387   0.50000   0.67319   0.00000  Uiso   1.00
C781   C     0.16681   0.42001   0.74984   0.00000  Uiso   1.00
C782   C     0.19333   0.49994   0.64775   0.00000  Uiso   1.00
C783   C     0.25884   0.45559   0.50916   0.00000  Uiso   1.00
H784   H     0.27656   0.46320   0.58200   0.00000  Uiso   1.00
H785   H     0.25560   0.42290   0.91409   0.00000  Uiso   1.00
C786   C     0.20959   0.49363   0.58925   0.00000  Uiso   1.00
C787   C     0.07801   0.51278   0.94061   0.00000  Uiso   1.00
C788   C     0.06317   0.51513   0.99661   0.00000  Uiso   1.00
C789   C     0.09397   0.50278   0.52412   0.00000  Uiso   1.00
C790   C     0.14162   0.48839   0.99383   0.00000  Uiso   1.00
C791   C     0.15228   0.47869   0.93843   0.00000  Uiso   1.00
C792   C     0.17960   0.48402   0.51520   0.00000  Uiso   1.00
C793   C     0.22209   0.46099   0.98622   0.00000  Uiso   1.00
C794   C     0.22603   0.44333   0.93591   0.00000  Uiso   1.00
C795   C     0.19226   0.45286   0.91179   0.00000  Uiso   1.00
C796   C     0.17762   0.50413   0.56314   0.00000  Uiso   1.00
C797   C     0.25092   0.47033   0.56201   0.00000  Uiso   1.00
C798   C     0.12261   0.49505   0.91112   0.00000  Uiso   1.00
H799   H     0.14985   0.52684   0.58246   0.00000  Uiso   1.00
H800   H     0.05428   0.52459   0.92044   0.00000  Uiso   1.00
H801   H     0.02715   0.52645   0.51861   0.00000  Uiso   1.00
H802   H     0.19742   0.43922   0.87228   0.00000  Uiso   1.00
C803   C     0.19943   0.64522   0.76830   0.00000  Uiso   1.00
H804   H     0.22456   0.62877   0.78302   0.00000  Uiso   1.00
C805   C     0.19971   0.35462   0.76798   0.00000  Uiso   1.00
H806   H     0.22496   0.37094   0.78251   0.00000  Uiso   1.00
C807   C     0.16694   0.37585   0.74971   0.00000  Uiso   1.00
C808   C     0.13403   0.35478   0.73158   0.00000  Uiso   1.00
H809   H     0.10891   0.37122   0.71684   0.00000  Uiso   1.00
C810   C     0.13387   0.64539   0.73174   0.00000  Uiso   1.00
H811   H     0.10884   0.62907   0.71688   0.00000  Uiso   1.00
C812   C     0.16648   0.62415   0.75022   0.00000  Uiso   1.00
C813   C     0.31595   0.46687   0.72925   0.00000  Uiso   1.00
H814   H     0.30329   0.44043   0.71226   0.00000  Uiso   1.00
C815   C     0.03047   0.46686   0.72932   0.00000  Uiso   1.00
H816   H     0.05376   0.44040   0.71248   0.00000  Uiso   1.00
N817   N     0.04760   0.50001   0.75002   0.00000  Uiso   1.00
C818   C     0.01625   0.53273   0.77249   0.00000  Uiso   1.00
C819   C     0.30217   0.53273   0.77140   0.00000  Uiso   1.00
H820   H     0.27792   0.55848   0.78913   0.00000  Uiso   1.00
N821   N     0.28573   0.49998   0.75000   0.00000  Uiso   1.00
C822   C     0.02929   0.56813   0.80055   0.00000  Uiso   1.00
O823   O     0.04718   0.56204   0.83545   0.00000  Uiso   1.00
O824   O     0.01787   0.60872   0.78978   0.00000  Uiso   1.00
H825   H     0.02761   0.63044   0.81228   0.00000  Uiso   1.00
N826   N     0.30365   0.43502   0.98010   0.00000  Uiso   1.00
O827   O     0.32454   0.41160   0.50596   0.00000  Uiso   1.00
O828   O     0.32781   0.44570   0.93059   0.00000  Uiso   1.00
C829   C     0.07209   0.50044   0.58375   0.00000  Uiso   1.00
O830   O     0.08101   0.47079   0.60784   0.00000  Uiso   1.00
O831   O     0.04024   0.53187   0.61209   0.00000  Uiso   1.00
H832   H     0.02836   0.52776   0.65267   0.00000  Uiso   1.00
O833   O     0.46179   0.56108   0.75001   0.00000  Uiso   1.00
O834   O     0.53823   0.56107   0.75000   0.00000  Uiso   1.00
C835   C     0.49987   0.58000   0.75015   0.00000  Uiso   1.00
O836   O     0.44280   0.50000   0.82681   0.00000  Uiso   1.00
O837   O     0.51924   0.49999   0.82681   0.00000  Uiso   1.00
C838   C     0.47340   0.49810   0.85209   0.00000  Uiso   1.00
Zn839  Zn    0.44896   0.50001   0.75000   0.00000  Uiso   1.00
Zn840  Zn    0.55104   0.49999   0.75000   0.00000  Uiso   1.00
O841   O     0.46177   0.43893   0.74999   0.00000  Uiso   1.00
O842   O     0.53821   0.43892   0.74999   0.00000  Uiso   1.00
O843   O     0.48076   0.50001   0.67319   0.00000  Uiso   1.00
O844   O     0.55720   0.50000   0.67319   0.00000  Uiso   1.00
C845   C     0.50014   0.42001   0.74984   0.00000  Uiso   1.00
C846   C     0.52666   0.49994   0.64775   0.00000  Uiso   1.00
C847   C     0.59218   0.45559   0.50916   0.00000  Uiso   1.00
H848   H     0.60989   0.46320   0.58200   0.00000  Uiso   1.00
H849   H     0.58894   0.42290   0.91409   0.00000  Uiso   1.00
C850   C     0.54292   0.49363   0.58925   0.00000  Uiso   1.00
C851   C     0.41134   0.51278   0.94061   0.00000  Uiso   1.00
C852   C     0.39650   0.51513   0.99661   0.00000  Uiso   1.00
C853   C     0.42730   0.50278   0.52412   0.00000  Uiso   1.00
C854   C     0.47496   0.48839   0.99383   0.00000  Uiso   1.00
C855   C     0.48562   0.47869   0.93843   0.00000  Uiso   1.00
C856   C     0.51293   0.48402   0.51520   0.00000  Uiso   1.00
C857   C     0.55542   0.46099   0.98622   0.00000  Uiso   1.00
C858   C     0.55936   0.44333   0.93591   0.00000  Uiso   1.00
C859   C     0.52560   0.45286   0.91179   0.00000  Uiso   1.00
C860   C     0.51095   0.50413   0.56314   0.00000  Uiso   1.00
C861   C     0.58425   0.47033   0.56201   0.00000  Uiso   1.00
C862   C     0.45594   0.49505   0.91112   0.00000  Uiso   1.00
H863   H     0.48318   0.52684   0.58246   0.00000  Uiso   1.00
H864   H     0.38761   0.52459   0.92044   0.00000  Uiso   1.00
H865   H     0.36048   0.52645   0.51861   0.00000  Uiso   1.00
H866   H     0.53075   0.43922   0.87228   0.00000  Uiso   1.00
C867   C     0.53277   0.64522   0.76830   0.00000  Uiso   1.00
H868   H     0.55789   0.62877   0.78302   0.00000  Uiso   1.00
C869   C     0.53304   0.35462   0.76798   0.00000  Uiso   1.00
H870   H     0.55829   0.37094   0.78251   0.00000  Uiso   1.00
C871   C     0.50028   0.37585   0.74971   0.00000  Uiso   1.00
C872   C     0.46736   0.35478   0.73158   0.00000  Uiso   1.00
H873   H     0.44224   0.37122   0.71684   0.00000  Uiso   1.00
C874   C     0.46720   0.64539   0.73174   0.00000  Uiso   1.00
H875   H     0.44218   0.62907   0.71688   0.00000  Uiso   1.00
C876   C     0.49981   0.62415   0.75022   0.00000  Uiso   1.00
C877   C     0.64929   0.46687   0.72925   0.00000  Uiso   1.00
H878   H     0.63663   0.44043   0.71226   0.00000  Uiso   1.00
C879   C     0.36380   0.46686   0.72932   0.00000  Uiso   1.00
H880   H     0.38709   0.44040   0.71248   0.00000  Uiso   1.00
N881   N     0.38093   0.50001   0.75002   0.00000  Uiso   1.00
C882   C     0.34958   0.53273   0.77249   0.00000  Uiso   1.00
C883   C     0.63550   0.53273   0.77140   0.00000  Uiso   1.00
H884   H     0.61125   0.55848   0.78913   0.00000  Uiso   1.00
N885   N     0.61906   0.49998   0.75000   0.00000  Uiso   1.00
C886   C     0.36262   0.56813   0.80055   0.00000  Uiso   1.00
O887   O     0.38052   0.56204   0.83545   0.00000  Uiso   1.00
O888   O     0.35121   0.60872   0.78978   0.00000  Uiso   1.00
H889   H     0.36095   0.63044   0.81228   0.00000  Uiso   1.00
N890   N     0.63699   0.43502   0.98010   0.00000  Uiso   1.00
O891   O     0.65787   0.41160   0.50596   0.00000  Uiso   1.00
O892   O     0.66115   0.44570   0.93059   0.00000  Uiso   1.00
C893   C     0.40542   0.50044   0.58375   0.00000  Uiso   1.00
O894   O     0.41434   0.47079   0.60784   0.00000  Uiso   1.00
O895   O     0.37358   0.53187   0.61209   0.00000  Uiso   1.00
H896   H     0.36170   0.52776   0.65267   0.00000  Uiso   1.00
O897   O     0.79512   0.56108   0.75001   0.00000  Uiso   1.00
O898   O     0.87157   0.56107   0.75000   0.00000  Uiso   1.00
C899   C     0.83321   0.58000   0.75015   0.00000  Uiso   1.00
O900   O     0.77613   0.50000   0.82681   0.00000  Uiso   1.00
O901   O     0.85258   0.49999   0.82681   0.00000  Uiso   1.00
C902   C     0.80674   0.49810   0.85209   0.00000  Uiso   1.00
Zn903  Zn    0.78229   0.50001   0.75000   0.00000  Uiso   1.00
Zn904  Zn    0.88438   0.49999   0.75000   0.00000  Uiso   1.00
O905   O     0.79510   0.43893   0.74999   0.00000  Uiso   1.00
O906   O     0.87154   0.43892   0.74999   0.00000  Uiso   1.00
O907   O     0.81409   0.50001   0.67319   0.00000  Uiso   1.00
O908   O     0.89053   0.50000   0.67319   0.00000  Uiso   1.00
C909   C     0.83348   0.42001   0.74984   0.00000  Uiso   1.00
C910   C     0.85999   0.49994   0.64775   0.00000  Uiso   1.00
C911   C     0.92551   0.45559   0.50916   0.00000  Uiso   1.00
H912   H     0.94322   0.46320   0.58200   0.00000  Uiso   1.00
H913   H     0.92227   0.42290   0.91409   0.00000  Uiso   1.00
C914   C     0.87625   0.49363   0.58925   0.00000  Uiso   1.00
C915   C     0.74467   0.51278   0.94061   0.00000  Uiso   1.00
C916   C     0.72984   0.51513   0.99661   0.00000  Uiso   1.00
C917   C     0.76064   0.50278   0.52412   0.00000  Uiso   1.00
C918   C     0.80829   0.48839   0.99383   0.00000  Uiso   1.00
C919   C     0.81895   0.47869   0.93843   0.00000  Uiso   1.00
C920   C     0.84627   0.48402   0.51520   0.00000  Uiso   1.00
C921   C     0.88875   0.46099   0.98622   0.00000  Uiso   1.00
C922   C     0.89269   0.44333   0.93591   0.00000  Uiso   1.00
C923   C     0.85893   0.45286   0.91179   0.00000  Uiso   1.00
C924   C     0.84429   0.50413   0.56314   0.00000  Uiso   1.00
C925   C     0.91759   0.47033   0.56201   0.00000  Uiso   1.00
C926   C     0.78928   0.49505   0.91112   0.00000  Uiso   1.00
H927   H     0.81652   0.52684   0.58246   0.00000  Uiso   1.00
H928   H     0.72094   0.52459   0.92044   0.00000  Uiso   1.00
H929   H     0.69381   0.52645   0.51861   0.00000  Uiso   1.00
H930   H     0.86409   0.43922   0.87228   0.00000  Uiso   1.00
C931   C     0.86610   0.64522   0.76830   0.00000  Uiso   1.00
H932   H     0.89123   0.62877   0.78302   0.00000  Uiso   1.00
C933   C     0.86637   0.35462   0.76798   0.00000  Uiso   1.00
H934   H     0.89162   0.37094   0.78251   0.00000  Uiso   1.00
C935   C     0.83361   0.37585   0.74971   0.00000  Uiso   1.00
C936   C     0.80069   0.35478   0.73158   0.00000  Uiso   1.00
H937   H     0.77557   0.37122   0.71684   0.00000  Uiso   1.00
C938   C     0.80054   0.64539   0.73174   0.00000  Uiso   1.00
H939   H     0.77551   0.62907   0.71688   0.00000  Uiso   1.00
C940   C     0.83314   0.62415   0.75022   0.00000  Uiso   1.00
C941   C     0.98262   0.46687   0.72925   0.00000  Uiso   1.00
H942   H     0.96996   0.44043   0.71226   0.00000  Uiso   1.00
C943   C     0.69714   0.46686   0.72932   0.00000  Uiso   1.00
H944   H     0.72043   0.44040   0.71248   0.00000  Uiso   1.00
N945   N     0.71426   0.50001   0.75002   0.00000  Uiso   1.00
C946   C     0.68292   0.53273   0.77249   0.00000  Uiso   1.00
C947   C     0.96884   0.53273   0.77140   0.00000  Uiso   1.00
H948   H     0.94459   0.55848   0.78913   0.00000  Uiso   1.00
N949   N     0.95239   0.49998   0.75000   0.00000  Uiso   1.00
C950   C     0.69595   0.56813   0.80055   0.00000  Uiso   1.00
O951   O     0.71385   0.56204   0.83545   0.00000  Uiso   1.00
O952   O     0.68454   0.60872   0.78978   0.00000  Uiso   1.00
H953   H     0.69428   0.63044   0.81228   0.00000  Uiso   1.00
N954   N     0.97032   0.43502   0.98010   0.00000  Uiso   1.00
O955   O     0.99121   0.41160   0.50596   0.00000  Uiso   1.00
O956   O     0.99448   0.44570   0.93059   0.00000  Uiso   1.00
C957   C     0.73876   0.50044   0.58375   0.00000  Uiso   1.00
O958   O     0.74768   0.47079   0.60784   0.00000  Uiso   1.00
O959   O     0.70691   0.53187   0.61209   0.00000  Uiso   1.00
H960   H     0.69503   0.52776   0.65267   0.00000  Uiso   1.00
O961   O     0.12846   0.89442   0.75001   0.00000  Uiso   1.00
O962   O     0.20490   0.89441   0.75000   0.00000  Uiso   1.00
C963   C     0.16654   0.91333   0.75015   0.00000  Uiso   1.00
O964   O     0.10947   0.83333   0.82681   0.00000  Uiso   1.00
O965   O     0.18591   0.83332   0.82681   0.00000  Uiso   1.00
C966   C     0.14007   0.83143   0.85209   0.00000  Uiso   1.00
Zn967  Zn    0.11562   0.83334   0.75000   0.00000  Uiso   1.00
Zn968  Zn    0.21771   0.83333   0.75000   0.00000  Uiso   1.00
O969   O     0.12843   0.77226   0.74999   0.00000  Uiso   1.00
O970   O     0.20488   0.77225   0.74999   0.00000  Uiso   1.00
O971   O     0.14742   0.83335   0.67319   0.00000  Uiso   1.00
O972   O     0.22387   0.83334   0.67319   0.00000  Uiso   1.00
C973   C     0.16681   0.75334   0.74984   0.00000  Uiso   1.00
C974   C     0.19333   0.83327   0.64775   0.00000  Uiso   1.00
C975   C     0.25884   0.78892   0.50916   0.00000  Uiso   1.00
H976   H     0.27656   0.79653   0.58200   0.00000  Uiso   1.00
H977   H     0.25560   0.75623   0.91409   0.00000  Uiso   1.00
C978   C     0.20959   0.82696   0.58925   0.00000  Uiso   1.00
C979   C     0.07801   0.84611   0.94061   0.00000  Uiso   1.00
C980   C     0.06317   0.84847   0.99661   0.00000  Uiso   1.00
C981   C     0.09397   0.83611   0.52412   0.00000  Uiso   1.00
C982   C     0.14162   0.82172   0.99383   0.00000  Uiso   1.00
C983   C     0.15228   0.81202   0.93843   0.00000  Uiso   1.00
C984   C     0.17960   0.81736   0.51520   0.00000  Uiso   1.00
C985   C     0.22209   0.79433   0.98622   0.00000  Uiso   1.00
C986   C     0.22603   0.77666   0.93591   0.00000  Uiso   1.00
C987   C     0.19226   0.78619   0.91179   0.00000  Uiso   1.00
C988   C     0.17762   0.83746   0.56314   0.00000  Uiso   1.00
C989   C     0.25092   0.80366   0.56201   0.00000  Uiso   1.00
C990   C     0.12261   0.82838   0.91112   0.00000  Uiso   1.00
H991   H     0.14985   0.86017   0.58246   0.00000  Uiso   1.00
H992   H     0.05428   0.85792   0.92044   0.00000  Uiso   1.00
H993   H     0.02715   0.85978   0.51861   0.00000  Uiso   1.00
H994   H     0.19742   0.77255   0.87228   0.00000  Uiso   1.00
C995   C     0.19943   0.97856   0.76830   0.00000  Uiso   1.00
H996   H     0.22456   0.96211   0.78302   0.00000  Uiso   1.00
C997   C     0.19971   0.68795   0.76798   0.00000  Uiso   1.00
H998   H     0.22496   0.70428   0.78251   0.00000  Uiso   1.00
C999   C     0.16694   0.70919   0.74971   0.00000  Uiso   1.00
C1000  C     0.13403   0.68811   0.73158   0.00000  Uiso   1.00
H1001  H     0.10891   0.70456   0.71684   0.00000  Uiso   1.00
C1002  C     0.13387   0.97873   0.73174   0.00000  Uiso   1.00
H1003  H     0.10884   0.96240   0.71688   0.00000  Uiso   1.00
C1004  C     0.16648   0.95749   0.75022   0.00000  Uiso   1.00
C1005  C     0.31595   0.80020   0.72925   0.00000  Uiso   1.00
H1006  H     0.30329   0.77377   0.71226   0.00000  Uiso   1.00
C1007  C     0.03047   0.80020   0.72932   0.00000  Uiso   1.00
H1008  H     0.05376   0.77374   0.71248   0.00000  Uiso   1.00
N1009  N     0.04760   0.83334   0.75002   0.00000  Uiso   1.00
C1010  C     0.01625   0.86606   0.77249   0.00000  Uiso   1.00
C1011  C     0.30217   0.86606   0.77140   0.00000  Uiso   1.00
H1012  H     0.27792   0.89182   0.78913   0.00000  Uiso   1.00
N1013  N     0.28573   0.83331   0.75000   0.00000  Uiso   1.00
C1014  C     0.02929   0.90146   0.80055   0.00000  Uiso   1.00
O1015  O     0.04718   0.89538   0.83545   0.00000  Uiso   1.00
O1016  O     0.01787   0.94206   0.78978   0.00000  Uiso   1.00
H1017  H     0.02761   0.96378   0.81228   0.00000  Uiso   1.00
N1018  N     0.30365   0.76835   0.98010   0.00000  Uiso   1.00
O1019  O     0.32454   0.74493   0.50596   0.00000  Uiso   1.00
O1020  O     0.32781   0.77903   0.93059   0.00000  Uiso   1.00
C1021  C     0.07209   0.83377   0.58375   0.00000  Uiso   1.00
O1022  O     0.08101   0.80412   0.60784   0.00000  Uiso   1.00
O1023  O     0.04024   0.86521   0.61209   0.00000  Uiso   1.00
H1024  H     0.02836   0.86110   0.65267   0.00000  Uiso   1.00
O1025  O     0.46179   0.89442   0.75001   0.00000  Uiso   1.00
O1026  O     0.53823   0.89441   0.75000   0.00000  Uiso   1.00
C1027  C     0.49987   0.91333   0.75015   0.00000  Uiso   1.00
O1028  O     0.44280   0.83333   0.82681   0.00000  Uiso   1.00
O1029  O     0.51924   0.83332   0.82681   0.00000  Uiso   1.00
C1030  C     0.47340   0.83143   0.85209   0.00000  Uiso   1.00
Zn1031 Zn    0.44896   0.83334   0.75000   0.00000  Uiso   1.00
Zn1032 Zn    0.55104   0.83333   0.75000   0.00000  Uiso   1.00
O1033  O     0.46177   0.77226   0.74999   0.00000  Uiso   1.00
O1034  O     0.53821   0.77225   0.74999   0.00000  Uiso   1.00
O1035  O     0.48076   0.83335   0.67319   0.00000  Uiso   1.00
O1036  O     0.55720   0.83334   0.67319   0.00000  Uiso   1.00
C1037  C     0.50014   0.75334   0.74984   0.00000  Uiso   1.00
C1038  C     0.52666   0.83327   0.64775   0.00000  Uiso   1.00
C1039  C     0.59218   0.78892   0.50916   0.00000  Uiso   1.00
H1040  H     0.60989   0.79653   0.58200   0.00000  Uiso   1.00
H1041  H     0.58894   0.75623   0.91409   0.00000  Uiso   1.00
C1042  C     0.54292   0.82696   0.58925   0.00000  Uiso   1.00
C1043  C     0.41134   0.84611   0.94061   0.00000  Uiso   1.00
C1044  C     0.39650   0.84847   0.99661   0.00000  Uiso   1.00
C1045  C     0.42730   0.83611   0.52412   0.00000  Uiso   1.00
C1046  C     0.47496   0.82172   0.99383   0.00000  Uiso   1.00
C1047  C     0.48562   0.81202   0.93843   0.00000  Uiso   1.00
C1048  C     0.51293   0.81736   0.51520   0.00000  Uiso   1.00
C1049  C     0.55542   0.79433   0.98622   0.00000  Uiso   1.00
C1050  C     0.55936   0.77666   0.93591   0.00000  Uiso   1.00
C1051  C     0.52560   0.78619   0.91179   0.00000  Uiso   1.00
C1052  C     0.51095   0.83746   0.56314   0.00000  Uiso   1.00
C1053  C     0.58425   0.80366   0.56201   0.00000  Uiso   1.00
C1054  C     0.45594   0.82838   0.91112   0.00000  Uiso   1.00
H1055  H     0.48318   0.86017   0.58246   0.00000  Uiso   1.00
H1056  H     0.38761   0.85792   0.92044   0.00000  Uiso   1.00
H1057  H     0.36048   0.85978   0.51861   0.00000  Uiso   1.00
H1058  H     0.53075   0.77255   0.87228   0.00000  Uiso   1.00
C1059  C     0.53277   0.97856   0.76830   0.00000  Uiso   1.00
H1060  H     0.55789   0.96211   0.78302   0.00000  Uiso   1.00
C1061  C     0.53304   0.68795   0.76798   0.00000  Uiso   1.00
H1062  H     0.55829   0.70428   0.78251   0.00000  Uiso   1.00
C1063  C     0.50028   0.70919   0.74971   0.00000  Uiso   1.00
C1064  C     0.46736   0.68811   0.73158   0.00000  Uiso   1.00
H1065  H     0.44224   0.70456   0.71684   0.00000  Uiso   1.00
C1066  C     0.46720   0.97873   0.73174   0.00000  Uiso   1.00
H1067  H     0.44218   0.96240   0.71688   0.00000  Uiso   1.00
C1068  C     0.49981   0.95749   0.75022   0.00000  Uiso   1.00
C1069  C     0.64929   0.80020   0.72925   0.00000  Uiso   1.00
H1070  H     0.63663   0.77377   0.71226   0.00000  Uiso   1.00
C1071  C     0.36380   0.80020   0.72932   0.00000  Uiso   1.00
H1072  H     0.38709   0.77374   0.71248   0.00000  Uiso   1.00
N1073  N     0.38093   0.83334   0.75002   0.00000  Uiso   1.00
C1074  C     0.34958   0.86606   0.77249   0.00000  Uiso   1.00
C1075  C     0.63550   0.86606   0.77140   0.00000  Uiso   1.00
H1076  H     0.61125   0.89182   0.78913   0.00000  Uiso   1.00
N1077  N     0.61906   0.83331   0.75000   0.00000  Uiso   1.00
C1078  C     0.36262   0.90146   0.80055   0.00000  Uiso   1.00
O1079  O     0.38052   0.89538   0.83545   0.00000  Uiso   1.00
O1080  O     0.35121   0.94206   0.78978   0.00000  Uiso   1.00
H1081  H     0.36095   0.96378   0.81228   0.00000  Uiso   1.00
N1082  N     0.63699   0.76835   0.98010   0.00000  Uiso   1.00
O1083  O     0.65787   0.74493   0.50596   0.00000  Uiso   1.00
O1084  O     0.66115   0.77903   0.93059   0.00000  Uiso   1.00
C1085  C     0.40542   0.83377   0.58375   0.00000  Uiso   1.00
O1086  O     0.41434   0.80412   0.60784   0.00000  Uiso   1.00
O1087  O     0.37358   0.86521   0.61209   0.00000  Uiso   1.00
H1088  H     0.36170   0.86110   0.65267   0.00000  Uiso   1.00
O1089  O     0.79512   0.89442   0.75001   0.00000  Uiso   1.00
O1090  O     0.87157   0.89441   0.75000   0.00000  Uiso   1.00
C1091  C     0.83321   0.91333   0.75015   0.00000  Uiso   1.00
O1092  O     0.77613   0.83333   0.82681   0.00000  Uiso   1.00
O1093  O     0.85258   0.83332   0.82681   0.00000  Uiso   1.00
C1094  C     0.80674   0.83143   0.85209   0.00000  Uiso   1.00
Zn1095 Zn    0.78229   0.83334   0.75000   0.00000  Uiso   1.00
Zn1096 Zn    0.88438   0.83333   0.75000   0.00000  Uiso   1.00
O1097  O     0.79510   0.77226   0.74999   0.00000  Uiso   1.00
O1098  O     0.87154   0.77225   0.74999   0.00000  Uiso   1.00
O1099  O     0.81409   0.83335   0.67319   0.00000  Uiso   1.00
O1100  O     0.89053   0.83334   0.67319   0.00000  Uiso   1.00
C1101  C     0.83348   0.75334   0.74984   0.00000  Uiso   1.00
C1102  C     0.85999   0.83327   0.64775   0.00000  Uiso   1.00
C1103  C     0.92551   0.78892   0.50916   0.00000  Uiso   1.00
H1104  H     0.94322   0.79653   0.58200   0.00000  Uiso   1.00
H1105  H     0.92227   0.75623   0.91409   0.00000  Uiso   1.00
C1106  C     0.87625   0.82696   0.58925   0.00000  Uiso   1.00
C1107  C     0.74467   0.84611   0.94061   0.00000  Uiso   1.00
C1108  C     0.72984   0.84847   0.99661   0.00000  Uiso   1.00
C1109  C     0.76064   0.83611   0.52412   0.00000  Uiso   1.00
C1110  C     0.80829   0.82172   0.99383   0.00000  Uiso   1.00
C1111  C     0.81895   0.81202   0.93843   0.00000  Uiso   1.00
C1112  C     0.84627   0.81736   0.51520   0.00000  Uiso   1.00
C1113  C     0.88875   0.79433   0.98622   0.00000  Uiso   1.00
C1114  C     0.89269   0.77666   0.93591   0.00000  Uiso   1.00
C1115  C     0.85893   0.78619   0.91179   0.00000  Uiso   1.00
C1116  C     0.84429   0.83746   0.56314   0.00000  Uiso   1.00
C1117  C     0.91759   0.80366   0.56201   0.00000  Uiso   1.00
C1118  C     0.78928   0.82838   0.91112   0.00000  Uiso   1.00
H1119  H     0.81652   0.86017   0.58246   0.00000  Uiso   1.00
H1120  H     0.72094   0.85792   0.92044   0.00000  Uiso   1.00
H1121  H     0.69381   0.85978   0.51861   0.00000  Uiso   1.00
H1122  H     0.86409   0.77255   0.87228   0.00000  Uiso   1.00
C1123  C     0.86610   0.97856   0.76830   0.00000  Uiso   1.00
H1124  H     0.89123   0.96211   0.78302   0.00000  Uiso   1.00
C1125  C     0.86637   0.68795   0.76798   0.00000  Uiso   1.00
H1126  H     0.89162   0.70428   0.78251   0.00000  Uiso   1.00
C1127  C     0.83361   0.70919   0.74971   0.00000  Uiso   1.00
C1128  C     0.80069   0.68811   0.73158   0.00000  Uiso   1.00
H1129  H     0.77557   0.70456   0.71684   0.00000  Uiso   1.00
C1130  C     0.80054   0.97873   0.73174   0.00000  Uiso   1.00
H1131  H     0.77551   0.96240   0.71688   0.00000  Uiso   1.00
C1132  C     0.83314   0.95749   0.75022   0.00000  Uiso   1.00
C1133  C     0.98262   0.80020   0.72925   0.00000  Uiso   1.00
H1134  H     0.96996   0.77377   0.71226   0.00000  Uiso   1.00
C1135  C     0.69714   0.80020   0.72932   0.00000  Uiso   1.00
H1136  H     0.72043   0.77374   0.71248   0.00000  Uiso   1.00
N1137  N     0.71426   0.83334   0.75002   0.00000  Uiso   1.00
C1138  C     0.68292   0.86606   0.77249   0.00000  Uiso   1.00
C1139  C     0.96884   0.86606   0.77140   0.00000  Uiso   1.00
H1140  H     0.94459   0.89182   0.78913   0.00000  Uiso   1.00
N1141  N     0.95239   0.83331   0.75000   0.00000  Uiso   1.00
C1142  C     0.69595   0.90146   0.80055   0.00000  Uiso   1.00
O1143  O     0.71385   0.89538   0.83545   0.00000  Uiso   1.00
O1144  O     0.68454   0.94206   0.78978   0.00000  Uiso   1.00
H1145  H     0.69428   0.96378   0.81228   0.00000  Uiso   1.00
N1146  N     0.97032   0.76835   0.98010   0.00000  Uiso   1.00
O1147  O     0.99121   0.74493   0.50596   0.00000  Uiso   1.00
O1148  O     0.99448   0.77903   0.93059   0.00000  Uiso   1.00
C1149  C     0.73876   0.83377   0.58375   0.00000  Uiso   1.00
O1150  O     0.74768   0.80412   0.60784   0.00000  Uiso   1.00
O1151  O     0.70691   0.86521   0.61209   0.00000  Uiso   1.00
H1152  H     0.69503   0.86110   0.65267   0.00000  Uiso   1.00
loop_
_geom_bond_atom_site_label_1
_geom_bond_atom_site_label_2
_geom_bond_distance
_geom_bond_site_symmetry_2
_ccdc_geom_bond_type
O1     C3      1.286   .     A
O1     Zn7     1.998   .     S
O2     C3      1.283   .     A
O2     Zn8     1.993   .     S
C3     C44     1.416   .     S
O4     Zn7     1.959   .     S
O4     C6      1.294   .     A
O5     Zn8     1.911   .     S
O5     C6      1.295   .     A
C6     C30     1.460   .     S
Zn7    O9      1.993   .     S
Zn7    O11     1.911   .     S
Zn7    N49     2.015   .     S
Zn8    N53     2.015   .     S
Zn8    O12     1.959   .     S
Zn8    O10     1.998   .     S
O9     C13     1.284   .     A
O10    C13     1.285   .     A
O11    C14     1.295   .     A
O12    C14     1.294   .     A
C13    C39     1.416   .     S
C14    C18     1.455   .     S
C15    C29     1.401   .     A
C15    C601    1.422   1_554 S
C15    N634    1.438   1_554 S
H16    C29     1.084   .     S
H17    C26     1.081   .     S
C18    C29     1.397   .     A
C18    C28     1.385   .     A
C19    H32     1.082   .     S
C19    C30     1.398   .     A
C19    C20     1.383   .     A
C20    C597    1.399   .     S
C20    H609    1.084   .     S
C21    C61     1.478   .     S
C21    C596    1.399   1_554 S
C21    C598    1.435   1_554 S
C22    C23     1.409   .     A
C22    C597    1.435   .     S
C22    C600    1.424   .     S
C23    C27     1.411   .     A
C23    C30     1.410   .     A
C24    C28     1.391   .     A
C24    C598    1.424   1_554 S
C24    C601    1.426   1_554 S
C25    C26     1.399   .     A
C25    C591    1.422   .     S
C25    C600    1.426   .     S
C26    C27     1.387   .     A
C27    H34     1.082   .     S
C28    H31     1.080   .     S
H33    C596    1.084   1_554 S
C35    C44     1.398   .     A
C35    H36     1.084   .     S
C35    C229    1.371   .     S
C37    H38     1.084   .     S
C37    C39     1.396   .     A
C37    C419    1.371   1_545 S
C39    C40     1.397   .     A
C40    H41     1.084   .     S
C40    C426    1.370   1_545 S
C42    C44     1.395   .     A
C42    H43     1.084   .     S
C42    C232    1.370   .     S
C45    N53     1.368   .     A
C45    H46     1.081   .     S
C45    C111    1.418   .     S
C47    H48     1.081   .     S
C47    N49     1.367   .     A
C47    C173    1.418   1_455 S
N49    C50     1.383   .     A
C50    C54     1.471   .     S
C50    C179    1.415   1_455 S
C51    H52     1.083   .     S
C51    N53     1.356   .     A
C51    C114    1.415   .     S
C54    O56     1.398   .     S
C54    O55     1.220   .     D
O56    H57     1.014   .     S
N58    O60     1.301   .     A
N58    C591    1.438   .     S
N58    O635    1.302   .     S
O59    N634    1.302   1_554 S
C61    O62     1.222   .     D
C61    O63     1.398   .     S
O63    H64     1.011   .     S
O65    C67     1.286   .     A
O65    Zn71    1.998   .     S
O66    C67     1.283   .     A
O66    Zn72    1.993   .     S
C67    C108    1.416   .     S
O68    Zn71    1.959   .     S
O68    C70     1.294   .     A
O69    Zn72    1.911   .     S
O69    C70     1.295   .     A
C70    C94     1.460   .     S
Zn71   O73     1.993   .     S
Zn71   O75     1.911   .     S
Zn71   N113    2.015   .     S
Zn72   N117    2.015   .     S
Zn72   O76     1.959   .     S
Zn72   O74     1.998   .     S
O73    C77     1.284   .     A
O74    C77     1.285   .     A
O75    C78     1.295   .     A
O76    C78     1.294   .     A
C77    C103    1.416   .     S
C78    C82     1.455   .     S
C79    C93     1.401   .     A
C79    C665    1.422   1_554 S
C79    N698    1.438   1_554 S
H80    C93     1.084   .     S
H81    C90     1.081   .     S
C82    C93     1.397   .     A
C82    C92     1.385   .     A
C83    H96     1.082   .     S
C83    C94     1.398   .     A
C83    C84     1.383   .     A
C84    C661    1.399   .     S
C84    H673    1.084   .     S
C85    C125    1.478   .     S
C85    C660    1.399   1_554 S
C85    C662    1.435   1_554 S
C86    C87     1.409   .     A
C86    C661    1.435   .     S
C86    C664    1.424   .     S
C87    C91     1.411   .     A
C87    C94     1.410   .     A
C88    C92     1.391   .     A
C88    C662    1.424   1_554 S
C88    C665    1.426   1_554 S
C89    C90     1.399   .     A
C89    C655    1.422   .     S
C89    C664    1.426   .     S
C90    C91     1.387   .     A
C91    H98     1.082   .     S
C92    H95     1.080   .     S
H97    C660    1.084   1_554 S
C99    C108    1.398   .     A
C99    H100    1.084   .     S
C99    C293    1.371   .     S
C101   H102    1.084   .     S
C101   C103    1.396   .     A
C101   C483    1.371   1_545 S
C103   C104    1.397   .     A
C104   H105    1.084   .     S
C104   C490    1.370   1_545 S
C106   C108    1.395   .     A
C106   H107    1.084   .     S
C106   C296    1.370   .     S
C109   N117    1.368   .     A
C109   H110    1.081   .     S
C109   C175    1.418   .     S
C111   H112    1.081   .     S
C111   N113    1.367   .     A
N113   C114    1.383   .     A
C114   C118    1.471   .     S
C115   H116    1.083   .     S
C115   N117    1.356   .     A
C115   C178    1.415   .     S
C118   O120    1.398   .     S
C118   O119    1.220   .     D
O120   H121    1.014   .     S
N122   O124    1.301   .     A
N122   C655    1.438   .     S
N122   O699    1.302   .     S
O123   N698    1.302   1_554 S
C125   O126    1.222   .     D
C125   O127    1.398   .     S
O127   H128    1.011   .     S
O129   C131    1.286   .     A
O129   Zn135   1.998   .     S
O130   C131    1.283   .     A
O130   Zn136   1.993   .     S
C131   C172    1.416   .     S
O132   Zn135   1.959   .     S
O132   C134    1.294   .     A
O133   Zn136   1.911   .     S
O133   C134    1.295   .     A
C134   C158    1.460   .     S
Zn135  O137    1.993   .     S
Zn135  O139    1.911   .     S
Zn135  N177    2.015   .     S
Zn136  N181    2.015   .     S
Zn136  O140    1.959   .     S
Zn136  O138    1.998   .     S
O137   C141    1.284   .     A
O138   C141    1.285   .     A
O139   C142    1.295   .     A
O140   C142    1.294   .     A
C141   C167    1.416   .     S
C142   C146    1.455   .     S
C143   C157    1.401   .     A
C143   C729    1.422   1_554 S
C143   N762    1.438   1_554 S
H144   C157    1.084   .     S
H145   C154    1.081   .     S
C146   C157    1.397   .     A
C146   C156    1.385   .     A
C147   H160    1.082   .     S
C147   C158    1.398   .     A
C147   C148    1.383   .     A
C148   C725    1.399   .     S
C148   H737    1.084   .     S
C149   C189    1.478   .     S
C149   C724    1.399   1_554 S
C149   C726    1.435   1_554 S
C150   C151    1.409   .     A
C150   C725    1.435   .     S
C150   C728    1.424   .     S
C151   C155    1.411   .     A
C151   C158    1.410   .     A
C152   C156    1.391   .     A
C152   C726    1.424   1_554 S
C152   C729    1.426   1_554 S
C153   C154    1.399   .     A
C153   C719    1.422   .     S
C153   C728    1.426   .     S
C154   C155    1.387   .     A
C155   H162    1.082   .     S
C156   H159    1.080   .     S
H161   C724    1.084   1_554 S
C163   C172    1.398   .     A
C163   H164    1.084   .     S
C163   C357    1.371   .     S
C165   H166    1.084   .     S
C165   C167    1.396   .     A
C165   C547    1.371   1_545 S
C167   C168    1.397   .     A
C168   H169    1.084   .     S
C168   C554    1.370   1_545 S
C170   C172    1.395   .     A
C170   H171    1.084   .     S
C170   C360    1.370   .     S
C173   N181    1.368   .     A
C173   H174    1.081   .     S
C173   C47     1.418   1_655 S
C175   H176    1.081   .     S
C175   N177    1.367   .     A
N177   C178    1.383   .     A
C178   C182    1.471   .     S
C179   H180    1.083   .     S
C179   N181    1.356   .     A
C179   C50     1.415   1_655 S
C182   O184    1.398   .     S
C182   O183    1.220   .     D
O184   H185    1.014   .     S
N186   O188    1.301   .     A
N186   C719    1.438   .     S
N186   O763    1.302   .     S
O187   N762    1.302   1_554 S
C189   O190    1.222   .     D
C189   O191    1.398   .     S
O191   H192    1.011   .     S
O193   C195    1.286   .     A
O193   Zn199   1.998   .     S
O194   C195    1.283   .     A
O194   Zn200   1.993   .     S
C195   C236    1.416   .     S
O196   Zn199   1.959   .     S
O196   C198    1.294   .     A
O197   Zn200   1.911   .     S
O197   C198    1.295   .     A
C198   C222    1.460   .     S
Zn199  O201    1.993   .     S
Zn199  O203    1.911   .     S
Zn199  N241    2.015   .     S
Zn200  N245    2.015   .     S
Zn200  O204    1.959   .     S
Zn200  O202    1.998   .     S
O201   C205    1.284   .     A
O202   C205    1.285   .     A
O203   C206    1.295   .     A
O204   C206    1.294   .     A
C205   C231    1.416   .     S
C206   C210    1.455   .     S
C207   C221    1.401   .     A
C207   C793    1.422   1_554 S
C207   N826    1.438   1_554 S
H208   C221    1.084   .     S
H209   C218    1.081   .     S
C210   C221    1.397   .     A
C210   C220    1.385   .     A
C211   H224    1.082   .     S
C211   C222    1.398   .     A
C211   C212    1.383   .     A
C212   C789    1.399   .     S
C212   H801    1.084   .     S
C213   C253    1.478   .     S
C213   C788    1.399   1_554 S
C213   C790    1.435   1_554 S
C214   C215    1.409   .     A
C214   C789    1.435   .     S
C214   C792    1.424   .     S
C215   C219    1.411   .     A
C215   C222    1.410   .     A
C216   C220    1.391   .     A
C216   C790    1.424   1_554 S
C216   C793    1.426   1_554 S
C217   C218    1.399   .     A
C217   C783    1.422   .     S
C217   C792    1.426   .     S
C218   C219    1.387   .     A
C219   H226    1.082   .     S
C220   H223    1.080   .     S
H225   C788    1.084   1_554 S
C227   C236    1.398   .     A
C227   H228    1.084   .     S
C227   C421    1.371   .     S
C229   H230    1.084   .     S
C229   C231    1.396   .     A
C231   C232    1.397   .     A
C232   H233    1.084   .     S
C234   C236    1.395   .     A
C234   H235    1.084   .     S
C234   C424    1.370   .     S
C237   N245    1.368   .     A
C237   H238    1.081   .     S
C237   C303    1.418   .     S
C239   H240    1.081   .     S
C239   N241    1.367   .     A
C239   C365    1.418   1_455 S
N241   C242    1.383   .     A
C242   C246    1.471   .     S
C242   C371    1.415   1_455 S
C243   H244    1.083   .     S
C243   N245    1.356   .     A
C243   C306    1.415   .     S
C246   O248    1.398   .     S
C246   O247    1.220   .     D
O248   H249    1.014   .     S
N250   O252    1.301   .     A
N250   C783    1.438   .     S
N250   O827    1.302   .     S
O251   N826    1.302   1_554 S
C253   O254    1.222   .     D
C253   O255    1.398   .     S
O255   H256    1.011   .     S
O257   C259    1.286   .     A
O257   Zn263   1.998   .     S
O258   C259    1.283   .     A
O258   Zn264   1.993   .     S
C259   C300    1.416   .     S
O260   Zn263   1.959   .     S
O260   C262    1.294   .     A
O261   Zn264   1.911   .     S
O261   C262    1.295   .     A
C262   C286    1.460   .     S
Zn263  O265    1.993   .     S
Zn263  O267    1.911   .     S
Zn263  N305    2.015   .     S
Zn264  N309    2.015   .     S
Zn264  O268    1.959   .     S
Zn264  O266    1.998   .     S
O265   C269    1.284   .     A
O266   C269    1.285   .     A
O267   C270    1.295   .     A
O268   C270    1.294   .     A
C269   C295    1.416   .     S
C270   C274    1.455   .     S
C271   C285    1.401   .     A
C271   C857    1.422   1_554 S
C271   N890    1.438   1_554 S
H272   C285    1.084   .     S
H273   C282    1.081   .     S
C274   C285    1.397   .     A
C274   C284    1.385   .     A
C275   H288    1.082   .     S
C275   C286    1.398   .     A
C275   C276    1.383   .     A
C276   C853    1.399   .     S
C276   H865    1.084   .     S
C277   C317    1.478   .     S
C277   C852    1.399   1_554 S
C277   C854    1.435   1_554 S
C278   C279    1.409   .     A
C278   C853    1.435   .     S
C278   C856    1.424   .     S
C279   C283    1.411   .     A
C279   C286    1.410   .     A
C280   C284    1.391   .     A
C280   C854    1.424   1_554 S
C280   C857    1.426   1_554 S
C281   C282    1.399   .     A
C281   C847    1.422   .     S
C281   C856    1.426   .     S
C282   C283    1.387   .     A
C283   H290    1.082   .     S
C284   H287    1.080   .     S
H289   C852    1.084   1_554 S
C291   C300    1.398   .     A
C291   H292    1.084   .     S
C291   C485    1.371   .     S
C293   H294    1.084   .     S
C293   C295    1.396   .     A
C295   C296    1.397   .     A
C296   H297    1.084   .     S
C298   C300    1.395   .     A
C298   H299    1.084   .     S
C298   C488    1.370   .     S
C301   N309    1.368   .     A
C301   H302    1.081   .     S
C301   C367    1.418   .     S
C303   H304    1.081   .     S
C303   N305    1.367   .     A
N305   C306    1.383   .     A
C306   C310    1.471   .     S
C307   H308    1.083   .     S
C307   N309    1.356   .     A
C307   C370    1.415   .     S
C310   O312    1.398   .     S
C310   O311    1.220   .     D
O312   H313    1.014   .     S
N314   O316    1.301   .     A
N314   C847    1.438   .     S
N314   O891    1.302   .     S
O315   N890    1.302   1_554 S
C317   O318    1.222   .     D
C317   O319    1.398   .     S
O319   H320    1.011   .     S
O321   C323    1.286   .     A
O321   Zn327   1.998   .     S
O322   C323    1.283   .     A
O322   Zn328   1.993   .     S
C323   C364    1.416   .     S
O324   Zn327   1.959   .     S
O324   C326    1.294   .     A
O325   Zn328   1.911   .     S
O325   C326    1.295   .     A
C326   C350    1.460   .     S
Zn327  O329    1.993   .     S
Zn327  O331    1.911   .     S
Zn327  N369    2.015   .     S
Zn328  N373    2.015   .     S
Zn328  O332    1.959   .     S
Zn328  O330    1.998   .     S
O329   C333    1.284   .     A
O330   C333    1.285   .     A
O331   C334    1.295   .     A
O332   C334    1.294   .     A
C333   C359    1.416   .     S
C334   C338    1.455   .     S
C335   C349    1.401   .     A
C335   C921    1.422   1_554 S
C335   N954    1.438   1_554 S
H336   C349    1.084   .     S
H337   C346    1.081   .     S
C338   C349    1.397   .     A
C338   C348    1.385   .     A
C339   H352    1.082   .     S
C339   C350    1.398   .     A
C339   C340    1.383   .     A
C340   C917    1.399   .     S
C340   H929    1.084   .     S
C341   C381    1.478   .     S
C341   C916    1.399   1_554 S
C341   C918    1.435   1_554 S
C342   C343    1.409   .     A
C342   C917    1.435   .     S
C342   C920    1.424   .     S
C343   C347    1.411   .     A
C343   C350    1.410   .     A
C344   C348    1.391   .     A
C344   C918    1.424   1_554 S
C344   C921    1.426   1_554 S
C345   C346    1.399   .     A
C345   C911    1.422   .     S
C345   C920    1.426   .     S
C346   C347    1.387   .     A
C347   H354    1.082   .     S
C348   H351    1.080   .     S
H353   C916    1.084   1_554 S
C355   C364    1.398   .     A
C355   H356    1.084   .     S
C355   C549    1.371   .     S
C357   H358    1.084   .     S
C357   C359    1.396   .     A
C359   C360    1.397   .     A
C360   H361    1.084   .     S
C362   C364    1.395   .     A
C362   H363    1.084   .     S
C362   C552    1.370   .     S
C365   N373    1.368   .     A
C365   H366    1.081   .     S
C365   C239    1.418   1_655 S
C367   H368    1.081   .     S
C367   N369    1.367   .     A
N369   C370    1.383   .     A
C370   C374    1.471   .     S
C371   H372    1.083   .     S
C371   N373    1.356   .     A
C371   C242    1.415   1_655 S
C374   O376    1.398   .     S
C374   O375    1.220   .     D
O376   H377    1.014   .     S
N378   O380    1.301   .     A
N378   C911    1.438   .     S
N378   O955    1.302   .     S
O379   N954    1.302   1_554 S
C381   O382    1.222   .     D
C381   O383    1.398   .     S
O383   H384    1.011   .     S
O385   C387    1.286   .     A
O385   Zn391   1.998   .     S
O386   C387    1.283   .     A
O386   Zn392   1.993   .     S
C387   C428    1.416   .     S
O388   Zn391   1.959   .     S
O388   C390    1.294   .     A
O389   Zn392   1.911   .     S
O389   C390    1.295   .     A
C390   C414    1.460   .     S
Zn391  O393    1.993   .     S
Zn391  O395    1.911   .     S
Zn391  N433    2.015   .     S
Zn392  N437    2.015   .     S
Zn392  O396    1.959   .     S
Zn392  O394    1.998   .     S
O393   C397    1.284   .     A
O394   C397    1.285   .     A
O395   C398    1.295   .     A
O396   C398    1.294   .     A
C397   C423    1.416   .     S
C398   C402    1.455   .     S
C399   C413    1.401   .     A
C399   C985    1.422   1_554 S
C399   N1018   1.438   1_554 S
H400   C413    1.084   .     S
H401   C410    1.081   .     S
C402   C413    1.397   .     A
C402   C412    1.385   .     A
C403   H416    1.082   .     S
C403   C414    1.398   .     A
C403   C404    1.383   .     A
C404   C981    1.399   .     S
C404   H993    1.084   .     S
C405   C445    1.478   .     S
C405   C980    1.399   1_554 S
C405   C982    1.435   1_554 S
C406   C407    1.409   .     A
C406   C981    1.435   .     S
C406   C984    1.424   .     S
C407   C411    1.411   .     A
C407   C414    1.410   .     A
C408   C412    1.391   .     A
C408   C982    1.424   1_554 S
C408   C985    1.426   1_554 S
C409   C410    1.399   .     A
C409   C975    1.422   .     S
C409   C984    1.426   .     S
C410   C411    1.387   .     A
C411   H418    1.082   .     S
C412   H415    1.080   .     S
H417   C980    1.084   1_554 S
C419   C428    1.398   .     A
C419   H420    1.084   .     S
C419   C37     1.371   1_565 S
C421   H422    1.084   .     S
C421   C423    1.396   .     A
C423   C424    1.397   .     A
C424   H425    1.084   .     S
C426   C428    1.395   .     A
C426   H427    1.084   .     S
C426   C40     1.370   1_565 S
C429   N437    1.368   .     A
C429   H430    1.081   .     S
C429   C495    1.418   .     S
C431   H432    1.081   .     S
C431   N433    1.367   .     A
C431   C557    1.418   1_455 S
N433   C434    1.383   .     A
C434   C438    1.471   .     S
C434   C563    1.415   1_455 S
C435   H436    1.083   .     S
C435   N437    1.356   .     A
C435   C498    1.415   .     S
C438   O440    1.398   .     S
C438   O439    1.220   .     D
O440   H441    1.014   .     S
N442   O444    1.301   .     A
N442   C975    1.438   .     S
N442   O1019   1.302   .     S
O443   N1018   1.302   1_554 S
C445   O446    1.222   .     D
C445   O447    1.398   .     S
O447   H448    1.011   .     S
O449   C451    1.286   .     A
O449   Zn455   1.998   .     S
O450   C451    1.283   .     A
O450   Zn456   1.993   .     S
C451   C492    1.416   .     S
O452   Zn455   1.959   .     S
O452   C454    1.294   .     A
O453   Zn456   1.911   .     S
O453   C454    1.295   .     A
C454   C478    1.460   .     S
Zn455  O457    1.993   .     S
Zn455  O459    1.911   .     S
Zn455  N497    2.015   .     S
Zn456  N501    2.015   .     S
Zn456  O460    1.959   .     S
Zn456  O458    1.998   .     S
O457   C461    1.284   .     A
O458   C461    1.285   .     A
O459   C462    1.295   .     A
O460   C462    1.294   .     A
C461   C487    1.416   .     S
C462   C466    1.455   .     S
C463   C477    1.401   .     A
C463   C1049   1.422   1_554 S
C463   N1082   1.438   1_554 S
H464   C477    1.084   .     S
H465   C474    1.081   .     S
C466   C477    1.397   .     A
C466   C476    1.385   .     A
C467   H480    1.082   .     S
C467   C478    1.398   .     A
C467   C468    1.383   .     A
C468   C1045   1.399   .     S
C468   H1057   1.084   .     S
C469   C509    1.478   .     S
C469   C1044   1.399   1_554 S
C469   C1046   1.435   1_554 S
C470   C471    1.409   .     A
C470   C1045   1.435   .     S
C470   C1048   1.424   .     S
C471   C475    1.411   .     A
C471   C478    1.410   .     A
C472   C476    1.391   .     A
C472   C1046   1.424   1_554 S
C472   C1049   1.426   1_554 S
C473   C474    1.399   .     A
C473   C1039   1.422   .     S
C473   C1048   1.426   .     S
C474   C475    1.387   .     A
C475   H482    1.082   .     S
C476   H479    1.080   .     S
H481   C1044   1.084   1_554 S
C483   C492    1.398   .     A
C483   H484    1.084   .     S
C483   C101    1.371   1_565 S
C485   H486    1.084   .     S
C485   C487    1.396   .     A
C487   C488    1.397   .     A
C488   H489    1.084   .     S
C490   C492    1.395   .     A
C490   H491    1.084   .     S
C490   C104    1.370   1_565 S
C493   N501    1.368   .     A
C493   H494    1.081   .     S
C493   C559    1.418   .     S
C495   H496    1.081   .     S
C495   N497    1.367   .     A
N497   C498    1.383   .     A
C498   C502    1.471   .     S
C499   H500    1.083   .     S
C499   N501    1.356   .     A
C499   C562    1.415   .     S
C502   O504    1.398   .     S
C502   O503    1.220   .     D
O504   H505    1.014   .     S
N506   O508    1.301   .     A
N506   C1039   1.438   .     S
N506   O1083   1.302   .     S
O507   N1082   1.302   1_554 S
C509   O510    1.222   .     D
C509   O511    1.398   .     S
O511   H512    1.011   .     S
O513   C515    1.286   .     A
O513   Zn519   1.998   .     S
O514   C515    1.283   .     A
O514   Zn520   1.993   .     S
C515   C556    1.416   .     S
O516   Zn519   1.959   .     S
O516   C518    1.294   .     A
O517   Zn520   1.911   .     S
O517   C518    1.295   .     A
C518   C542    1.460   .     S
Zn519  O521    1.993   .     S
Zn519  O523    1.911   .     S
Zn519  N561    2.015   .     S
Zn520  N565    2.015   .     S
Zn520  O524    1.959   .     S
Zn520  O522    1.998   .     S
O521   C525    1.284   .     A
O522   C525    1.285   .     A
O523   C526    1.295   .     A
O524   C526    1.294   .     A
C525   C551    1.416   .     S
C526   C530    1.455   .     S
C527   C541    1.401   .     A
C527   C1113   1.422   1_554 S
C527   N1146   1.438   1_554 S
H528   C541    1.084   .     S
H529   C538    1.081   .     S
C530   C541    1.397   .     A
C530   C540    1.385   .     A
C531   H544    1.082   .     S
C531   C542    1.398   .     A
C531   C532    1.383   .     A
C532   C1109   1.399   .     S
C532   H1121   1.084   .     S
C533   C573    1.478   .     S
C533   C1108   1.399   1_554 S
C533   C1110   1.435   1_554 S
C534   C535    1.409   .     A
C534   C1109   1.435   .     S
C534   C1112   1.424   .     S
C535   C539    1.411   .     A
C535   C542    1.410   .     A
C536   C540    1.391   .     A
C536   C1110   1.424   1_554 S
C536   C1113   1.426   1_554 S
C537   C538    1.399   .     A
C537   C1103   1.422   .     S
C537   C1112   1.426   .     S
C538   C539    1.387   .     A
C539   H546    1.082   .     S
C540   H543    1.080   .     S
H545   C1108   1.084   1_554 S
C547   C556    1.398   .     A
C547   H548    1.084   .     S
C547   C165    1.371   1_565 S
C549   H550    1.084   .     S
C549   C551    1.396   .     A
C551   C552    1.397   .     A
C552   H553    1.084   .     S
C554   C556    1.395   .     A
C554   H555    1.084   .     S
C554   C168    1.370   1_565 S
C557   N565    1.368   .     A
C557   H558    1.081   .     S
C557   C431    1.418   1_655 S
C559   H560    1.081   .     S
C559   N561    1.367   .     A
N561   C562    1.383   .     A
C562   C566    1.471   .     S
C563   H564    1.083   .     S
C563   N565    1.356   .     A
C563   C434    1.415   1_655 S
C566   O568    1.398   .     S
C566   O567    1.220   .     D
O568   H569    1.014   .     S
N570   O572    1.301   .     A
N570   C1103   1.438   .     S
N570   O1147   1.302   .     S
O571   N1146   1.302   1_554 S
C573   O574    1.222   .     D
C573   O575    1.398   .     S
O575   H576    1.011   .     S
O577   C579    1.286   .     A
O577   Zn583   1.998   .     S
O578   C579    1.283   .     A
O578   Zn584   1.993   .     S
C579   C620    1.416   .     S
O580   Zn583   1.959   .     S
O580   C582    1.294   .     A
O581   Zn584   1.911   .     S
O581   C582    1.295   .     A
C582   C606    1.460   .     S
Zn583  O585    1.993   .     S
Zn583  O587    1.911   .     S
Zn583  N625    2.015   .     S
Zn584  N629    2.015   .     S
Zn584  O588    1.959   .     S
Zn584  O586    1.998   .     S
O585   C589    1.284   .     A
O586   C589    1.285   .     A
O587   C590    1.295   .     A
O588   C590    1.294   .     A
C589   C615    1.416   .     S
C590   C594    1.455   .     S
C591   C605    1.401   .     A
H592   C605    1.084   .     S
H593   C602    1.081   .     S
C594   C605    1.397   .     A
C594   C604    1.385   .     A
C595   H608    1.082   .     S
C595   C606    1.398   .     A
C595   C596    1.383   .     A
C596   C21     1.399   1_556 S
C596   H33     1.084   1_556 S
C597   C637    1.478   .     S
C598   C599    1.409   .     A
C598   C21     1.435   1_556 S
C598   C24     1.424   1_556 S
C599   C603    1.411   .     A
C599   C606    1.410   .     A
C600   C604    1.391   .     A
C601   C602    1.399   .     A
C601   C15     1.422   1_556 S
C601   C24     1.426   1_556 S
C602   C603    1.387   .     A
C603   H610    1.082   .     S
C604   H607    1.080   .     S
C611   C620    1.398   .     A
C611   H612    1.084   .     S
C611   C805    1.371   .     S
C613   H614    1.084   .     S
C613   C615    1.396   .     A
C613   C995    1.371   1_545 S
C615   C616    1.397   .     A
C616   H617    1.084   .     S
C616   C1002   1.370   1_545 S
C618   C620    1.395   .     A
C618   H619    1.084   .     S
C618   C808    1.370   .     S
C621   N629    1.368   .     A
C621   H622    1.081   .     S
C621   C687    1.418   .     S
C623   H624    1.081   .     S
C623   N625    1.367   .     A
C623   C749    1.418   1_455 S
N625   C626    1.383   .     A
C626   C630    1.471   .     S
C626   C755    1.415   1_455 S
C627   H628    1.083   .     S
C627   N629    1.356   .     A
C627   C690    1.415   .     S
C630   O632    1.398   .     S
C630   O631    1.220   .     D
O632   H633    1.014   .     S
N634   O636    1.301   .     A
N634   C15     1.438   1_556 S
N634   O59     1.302   1_556 S
C637   O638    1.222   .     D
C637   O639    1.398   .     S
O639   H640    1.011   .     S
O641   C643    1.286   .     A
O641   Zn647   1.998   .     S
O642   C643    1.283   .     A
O642   Zn648   1.993   .     S
C643   C684    1.416   .     S
O644   Zn647   1.959   .     S
O644   C646    1.294   .     A
O645   Zn648   1.911   .     S
O645   C646    1.295   .     A
C646   C670    1.460   .     S
Zn647  O649    1.993   .     S
Zn647  O651    1.911   .     S
Zn647  N689    2.015   .     S
Zn648  N693    2.015   .     S
Zn648  O652    1.959   .     S
Zn648  O650    1.998   .     S
O649   C653    1.284   .     A
O650   C653    1.285   .     A
O651   C654    1.295   .     A
O652   C654    1.294   .     A
C653   C679    1.416   .     S
C654   C658    1.455   .     S
C655   C669    1.401   .     A
H656   C669    1.084   .     S
H657   C666    1.081   .     S
C658   C669    1.397   .     A
C658   C668    1.385   .     A
C659   H672    1.082   .     S
C659   C670    1.398   .     A
C659   C660    1.383   .     A
C660   C85     1.399   1_556 S
C660   H97     1.084   1_556 S
C661   C701    1.478   .     S
C662   C663    1.409   .     A
C662   C85     1.435   1_556 S
C662   C88     1.424   1_556 S
C663   C667    1.411   .     A
C663   C670    1.410   .     A
C664   C668    1.391   .     A
C665   C666    1.399   .     A
C665   C79     1.422   1_556 S
C665   C88     1.426   1_556 S
C666   C667    1.387   .     A
C667   H674    1.082   .     S
C668   H671    1.080   .     S
C675   C684    1.398   .     A
C675   H676    1.084   .     S
C675   C869    1.371   .     S
C677   H678    1.084   .     S
C677   C679    1.396   .     A
C677   C1059   1.371   1_545 S
C679   C680    1.397   .     A
C680   H681    1.084   .     S
C680   C1066   1.370   1_545 S
C682   C684    1.395   .     A
C682   H683    1.084   .     S
C682   C872    1.370   .     S
C685   N693    1.368   .     A
C685   H686    1.081   .     S
C685   C751    1.418   .     S
C687   H688    1.081   .     S
C687   N689    1.367   .     A
N689   C690    1.383   .     A
C690   C694    1.471   .     S
C691   H692    1.083   .     S
C691   N693    1.356   .     A
C691   C754    1.415   .     S
C694   O696    1.398   .     S
C694   O695    1.220   .     D
O696   H697    1.014   .     S
N698   O700    1.301   .     A
N698   C79     1.438   1_556 S
N698   O123    1.302   1_556 S
C701   O702    1.222   .     D
C701   O703    1.398   .     S
O703   H704    1.011   .     S
O705   C707    1.286   .     A
O705   Zn711   1.998   .     S
O706   C707    1.283   .     A
O706   Zn712   1.993   .     S
C707   C748    1.416   .     S
O708   Zn711   1.959   .     S
O708   C710    1.294   .     A
O709   Zn712   1.911   .     S
O709   C710    1.295   .     A
C710   C734    1.460   .     S
Zn711  O713    1.993   .     S
Zn711  O715    1.911   .     S
Zn711  N753    2.015   .     S
Zn712  N757    2.015   .     S
Zn712  O716    1.959   .     S
Zn712  O714    1.998   .     S
O713   C717    1.284   .     A
O714   C717    1.285   .     A
O715   C718    1.295   .     A
O716   C718    1.294   .     A
C717   C743    1.416   .     S
C718   C722    1.455   .     S
C719   C733    1.401   .     A
H720   C733    1.084   .     S
H721   C730    1.081   .     S
C722   C733    1.397   .     A
C722   C732    1.385   .     A
C723   H736    1.082   .     S
C723   C734    1.398   .     A
C723   C724    1.383   .     A
C724   C149    1.399   1_556 S
C724   H161    1.084   1_556 S
C725   C765    1.478   .     S
C726   C727    1.409   .     A
C726   C149    1.435   1_556 S
C726   C152    1.424   1_556 S
C727   C731    1.411   .     A
C727   C734    1.410   .     A
C728   C732    1.391   .     A
C729   C730    1.399   .     A
C729   C143    1.422   1_556 S
C729   C152    1.426   1_556 S
C730   C731    1.387   .     A
C731   H738    1.082   .     S
C732   H735    1.080   .     S
C739   C748    1.398   .     A
C739   H740    1.084   .     S
C739   C933    1.371   .     S
C741   H742    1.084   .     S
C741   C743    1.396   .     A
C741   C1123   1.371   1_545 S
C743   C744    1.397   .     A
C744   H745    1.084   .     S
C744   C1130   1.370   1_545 S
C746   C748    1.395   .     A
C746   H747    1.084   .     S
C746   C936    1.370   .     S
C749   N757    1.368   .     A
C749   H750    1.081   .     S
C749   C623    1.418   1_655 S
C751   H752    1.081   .     S
C751   N753    1.367   .     A
N753   C754    1.383   .     A
C754   C758    1.471   .     S
C755   H756    1.083   .     S
C755   N757    1.356   .     A
C755   C626    1.415   1_655 S
C758   O760    1.398   .     S
C758   O759    1.220   .     D
O760   H761    1.014   .     S
N762   O764    1.301   .     A
N762   C143    1.438   1_556 S
N762   O187    1.302   1_556 S
C765   O766    1.222   .     D
C765   O767    1.398   .     S
O767   H768    1.011   .     S
O769   C771    1.286   .     A
O769   Zn775   1.998   .     S
O770   C771    1.283   .     A
O770   Zn776   1.993   .     S
C771   C812    1.416   .     S
O772   Zn775   1.959   .     S
O772   C774    1.294   .     A
O773   Zn776   1.911   .     S
O773   C774    1.295   .     A
C774   C798    1.460   .     S
Zn775  O777    1.993   .     S
Zn775  O779    1.911   .     S
Zn775  N817    2.015   .     S
Zn776  N821    2.015   .     S
Zn776  O780    1.959   .     S
Zn776  O778    1.998   .     S
O777   C781    1.284   .     A
O778   C781    1.285   .     A
O779   C782    1.295   .     A
O780   C782    1.294   .     A
C781   C807    1.416   .     S
C782   C786    1.455   .     S
C783   C797    1.401   .     A
H784   C797    1.084   .     S
H785   C794    1.081   .     S
C786   C797    1.397   .     A
C786   C796    1.385   .     A
C787   H800    1.082   .     S
C787   C798    1.398   .     A
C787   C788    1.383   .     A
C788   C213    1.399   1_556 S
C788   H225    1.084   1_556 S
C789   C829    1.478   .     S
C790   C791    1.409   .     A
C790   C213    1.435   1_556 S
C790   C216    1.424   1_556 S
C791   C795    1.411   .     A
C791   C798    1.410   .     A
C792   C796    1.391   .     A
C793   C794    1.399   .     A
C793   C207    1.422   1_556 S
C793   C216    1.426   1_556 S
C794   C795    1.387   .     A
C795   H802    1.082   .     S
C796   H799    1.080   .     S
C803   C812    1.398   .     A
C803   H804    1.084   .     S
C803   C997    1.371   .     S
C805   H806    1.084   .     S
C805   C807    1.396   .     A
C807   C808    1.397   .     A
C808   H809    1.084   .     S
C810   C812    1.395   .     A
C810   H811    1.084   .     S
C810   C1000   1.370   .     S
C813   N821    1.368   .     A
C813   H814    1.081   .     S
C813   C879    1.418   .     S
C815   H816    1.081   .     S
C815   N817    1.367   .     A
C815   C941    1.418   1_455 S
N817   C818    1.383   .     A
C818   C822    1.471   .     S
C818   C947    1.415   1_455 S
C819   H820    1.083   .     S
C819   N821    1.356   .     A
C819   C882    1.415   .     S
C822   O824    1.398   .     S
C822   O823    1.220   .     D
O824   H825    1.014   .     S
N826   O828    1.301   .     A
N826   C207    1.438   1_556 S
N826   O251    1.302   1_556 S
C829   O830    1.222   .     D
C829   O831    1.398   .     S
O831   H832    1.011   .     S
O833   C835    1.286   .     A
O833   Zn839   1.998   .     S
O834   C835    1.283   .     A
O834   Zn840   1.993   .     S
C835   C876    1.416   .     S
O836   Zn839   1.959   .     S
O836   C838    1.294   .     A
O837   Zn840   1.911   .     S
O837   C838    1.295   .     A
C838   C862    1.460   .     S
Zn839  O841    1.993   .     S
Zn839  O843    1.911   .     S
Zn839  N881    2.015   .     S
Zn840  N885    2.015   .     S
Zn840  O844    1.959   .     S
Zn840  O842    1.998   .     S
O841   C845    1.284   .     A
O842   C845    1.285   .     A
O843   C846    1.295   .     A
O844   C846    1.294   .     A
C845   C871    1.416   .     S
C846   C850    1.455   .     S
C847   C861    1.401   .     A
H848   C861    1.084   .     S
H849   C858    1.081   .     S
C850   C861    1.397   .     A
C850   C860    1.385   .     A
C851   H864    1.082   .     S
C851   C862    1.398   .     A
C851   C852    1.383   .     A
C852   C277    1.399   1_556 S
C852   H289    1.084   1_556 S
C853   C893    1.478   .     S
C854   C855    1.409   .     A
C854   C277    1.435   1_556 S
C854   C280    1.424   1_556 S
C855   C859    1.411   .     A
C855   C862    1.410   .     A
C856   C860    1.391   .     A
C857   C858    1.399   .     A
C857   C271    1.422   1_556 S
C857   C280    1.426   1_556 S
C858   C859    1.387   .     A
C859   H866    1.082   .     S
C860   H863    1.080   .     S
C867   C876    1.398   .     A
C867   H868    1.084   .     S
C867   C1061   1.371   .     S
C869   H870    1.084   .     S
C869   C871    1.396   .     A
C871   C872    1.397   .     A
C872   H873    1.084   .     S
C874   C876    1.395   .     A
C874   H875    1.084   .     S
C874   C1064   1.370   .     S
C877   N885    1.368   .     A
C877   H878    1.081   .     S
C877   C943    1.418   .     S
C879   H880    1.081   .     S
C879   N881    1.367   .     A
N881   C882    1.383   .     A
C882   C886    1.471   .     S
C883   H884    1.083   .     S
C883   N885    1.356   .     A
C883   C946    1.415   .     S
C886   O888    1.398   .     S
C886   O887    1.220   .     D
O888   H889    1.014   .     S
N890   O892    1.301   .     A
N890   C271    1.438   1_556 S
N890   O315    1.302   1_556 S
C893   O894    1.222   .     D
C893   O895    1.398   .     S
O895   H896    1.011   .     S
O897   C899    1.286   .     A
O897   Zn903   1.998   .     S
O898   C899    1.283   .     A
O898   Zn904   1.993   .     S
C899   C940    1.416   .     S
O900   Zn903   1.959   .     S
O900   C902    1.294   .     A
O901   Zn904   1.911   .     S
O901   C902    1.295   .     A
C902   C926    1.460   .     S
Zn903  O905    1.993   .     S
Zn903  O907    1.911   .     S
Zn903  N945    2.015   .     S
Zn904  N949    2.015   .     S
Zn904  O908    1.959   .     S
Zn904  O906    1.998   .     S
O905   C909    1.284   .     A
O906   C909    1.285   .     A
O907   C910    1.295   .     A
O908   C910    1.294   .     A
C909   C935    1.416   .     S
C910   C914    1.455   .     S
C911   C925    1.401   .     A
H912   C925    1.084   .     S
H913   C922    1.081   .     S
C914   C925    1.397   .     A
C914   C924    1.385   .     A
C915   H928    1.082   .     S
C915   C926    1.398   .     A
C915   C916    1.383   .     A
C916   C341    1.399   1_556 S
C916   H353    1.084   1_556 S
C917   C957    1.478   .     S
C918   C919    1.409   .     A
C918   C341    1.435   1_556 S
C918   C344    1.424   1_556 S
C919   C923    1.411   .     A
C919   C926    1.410   .     A
C920   C924    1.391   .     A
C921   C922    1.399   .     A
C921   C335    1.422   1_556 S
C921   C344    1.426   1_556 S
C922   C923    1.387   .     A
C923   H930    1.082   .     S
C924   H927    1.080   .     S
C931   C940    1.398   .     A
C931   H932    1.084   .     S
C931   C1125   1.371   .     S
C933   H934    1.084   .     S
C933   C935    1.396   .     A
C935   C936    1.397   .     A
C936   H937    1.084   .     S
C938   C940    1.395   .     A
C938   H939    1.084   .     S
C938   C1128   1.370   .     S
C941   N949    1.368   .     A
C941   H942    1.081   .     S
C941   C815    1.418   1_655 S
C943   H944    1.081   .     S
C943   N945    1.367   .     A
N945   C946    1.383   .     A
C946   C950    1.471   .     S
C947   H948    1.083   .     S
C947   N949    1.356   .     A
C947   C818    1.415   1_655 S
C950   O952    1.398   .     S
C950   O951    1.220   .     D
O952   H953    1.014   .     S
N954   O956    1.301   .     A
N954   C335    1.438   1_556 S
N954   O379    1.302   1_556 S
C957   O958    1.222   .     D
C957   O959    1.398   .     S
O959   H960    1.011   .     S
O961   C963    1.286   .     A
O961   Zn967   1.998   .     S
O962   C963    1.283   .     A
O962   Zn968   1.993   .     S
C963   C1004   1.416   .     S
O964   Zn967   1.959   .     S
O964   C966    1.294   .     A
O965   Zn968   1.911   .     S
O965   C966    1.295   .     A
C966   C990    1.460   .     S
Zn967  O969    1.993   .     S
Zn967  O971    1.911   .     S
Zn967  N1009   2.015   .     S
Zn968  N1013   2.015   .     S
Zn968  O972    1.959   .     S
Zn968  O970    1.998   .     S
O969   C973    1.284   .     A
O970   C973    1.285   .     A
O971   C974    1.295   .     A
O972   C974    1.294   .     A
C973   C999    1.416   .     S
C974   C978    1.455   .     S
C975   C989    1.401   .     A
H976   C989    1.084   .     S
H977   C986    1.081   .     S
C978   C989    1.397   .     A
C978   C988    1.385   .     A
C979   H992    1.082   .     S
C979   C990    1.398   .     A
C979   C980    1.383   .     A
C980   C405    1.399   1_556 S
C980   H417    1.084   1_556 S
C981   C1021   1.478   .     S
C982   C983    1.409   .     A
C982   C405    1.435   1_556 S
C982   C408    1.424   1_556 S
C983   C987    1.411   .     A
C983   C990    1.410   .     A
C984   C988    1.391   .     A
C985   C986    1.399   .     A
C985   C399    1.422   1_556 S
C985   C408    1.426   1_556 S
C986   C987    1.387   .     A
C987   H994    1.082   .     S
C988   H991    1.080   .     S
C995   C1004   1.398   .     A
C995   H996    1.084   .     S
C995   C613    1.371   1_565 S
C997   H998    1.084   .     S
C997   C999    1.396   .     A
C999   C1000   1.397   .     A
C1000  H1001   1.084   .     S
C1002  C1004   1.395   .     A
C1002  H1003   1.084   .     S
C1002  C616    1.370   1_565 S
C1005  N1013   1.368   .     A
C1005  H1006   1.081   .     S
C1005  C1071   1.418   .     S
C1007  H1008   1.081   .     S
C1007  N1009   1.367   .     A
C1007  C1133   1.418   1_455 S
N1009  C1010   1.383   .     A
C1010  C1014   1.471   .     S
C1010  C1139   1.415   1_455 S
C1011  H1012   1.083   .     S
C1011  N1013   1.356   .     A
C1011  C1074   1.415   .     S
C1014  O1016   1.398   .     S
C1014  O1015   1.220   .     D
O1016  H1017   1.014   .     S
N1018  O1020   1.301   .     A
N1018  C399    1.438   1_556 S
N1018  O443    1.302   1_556 S
C1021  O1022   1.222   .     D
C1021  O1023   1.398   .     S
O1023  H1024   1.011   .     S
O1025  C1027   1.286   .     A
O1025  Zn1031  1.998   .     S
O1026  C1027   1.283   .     A
O1026  Zn1032  1.993   .     S
C1027  C1068   1.416   .     S
O1028  Zn1031  1.959   .     S
O1028  C1030   1.294   .     A
O1029  Zn1032  1.911   .     S
O1029  C1030   1.295   .     A
C1030  C1054   1.460   .     S
Zn1031 O1033   1.993   .     S
Zn1031 O1035   1.911   .     S
Zn1031 N1073   2.015   .     S
Zn1032 N1077   2.015   .     S
Zn1032 O1036   1.959   .     S
Zn1032 O1034   1.998   .     S
O1033  C1037   1.284   .     A
O1034  C1037   1.285   .     A
O1035  C1038   1.295   .     A
O1036  C1038   1.294   .     A
C1037  C1063   1.416   .     S
C1038  C1042   1.455   .     S
C1039  C1053   1.401   .     A
H1040  C1053   1.084   .     S
H1041  C1050   1.081   .     S
C1042  C1053   1.397   .     A
C1042  C1052   1.385   .     A
C1043  H1056   1.082   .     S
C1043  C1054   1.398   .     A
C1043  C1044   1.383   .     A
C1044  C469    1.399   1_556 S
C1044  H481    1.084   1_556 S
C1045  C1085   1.478   .     S
C1046  C1047   1.409   .     A
C1046  C469    1.435   1_556 S
C1046  C472    1.424   1_556 S
C1047  C1051   1.411   .     A
C1047  C1054   1.410   .     A
C1048  C1052   1.391   .     A
C1049  C1050   1.399   .     A
C1049  C463    1.422   1_556 S
C1049  C472    1.426   1_556 S
C1050  C1051   1.387   .     A
C1051  H1058   1.082   .     S
C1052  H1055   1.080   .     S
C1059  C1068   1.398   .     A
C1059  H1060   1.084   .     S
C1059  C677    1.371   1_565 S
C1061  H1062   1.084   .     S
C1061  C1063   1.396   .     A
C1063  C1064   1.397   .     A
C1064  H1065   1.084   .     S
C1066  C1068   1.395   .     A
C1066  H1067   1.084   .     S
C1066  C680    1.370   1_565 S
C1069  N1077   1.368   .     A
C1069  H1070   1.081   .     S
C1069  C1135   1.418   .     S
C1071  H1072   1.081   .     S
C1071  N1073   1.367   .     A
N1073  C1074   1.383   .     A
C1074  C1078   1.471   .     S
C1075  H1076   1.083   .     S
C1075  N1077   1.356   .     A
C1075  C1138   1.415   .     S
C1078  O1080   1.398   .     S
C1078  O1079   1.220   .     D
O1080  H1081   1.014   .     S
N1082  O1084   1.301   .     A
N1082  C463    1.438   1_556 S
N1082  O507    1.302   1_556 S
C1085  O1086   1.222   .     D
C1085  O1087   1.398   .     S
O1087  H1088   1.011   .     S
O1089  C1091   1.286   .     A
O1089  Zn1095  1.998   .     S
O1090  C1091   1.283   .     A
O1090  Zn1096  1.993   .     S
C1091  C1132   1.416   .     S
O1092  Zn1095  1.959   .     S
O1092  C1094   1.294   .     A
O1093  Zn1096  1.911   .     S
O1093  C1094   1.295   .     A
C1094  C1118   1.460   .     S
Zn1095 O1097   1.993   .     S
Zn1095 O1099   1.911   .     S
Zn1095 N1137   2.015   .     S
Zn1096 N1141   2.015   .     S
Zn1096 O1100   1.959   .     S
Zn1096 O1098   1.998   .     S
O1097  C1101   1.284   .     A
O1098  C1101   1.285   .     A
O1099  C1102   1.295   .     A
O1100  C1102   1.294   .     A
C1101  C1127   1.416   .     S
C1102  C1106   1.455   .     S
C1103  C1117   1.401   .     A
H1104  C1117   1.084   .     S
H1105  C1114   1.081   .     S
C1106  C1117   1.397   .     A
C1106  C1116   1.385   .     A
C1107  H1120   1.082   .     S
C1107  C1118   1.398   .     A
C1107  C1108   1.383   .     A
C1108  C533    1.399   1_556 S
C1108  H545    1.084   1_556 S
C1109  C1149   1.478   .     S
C1110  C1111   1.409   .     A
C1110  C533    1.435   1_556 S
C1110  C536    1.424   1_556 S
C1111  C1115   1.411   .     A
C1111  C1118   1.410   .     A
C1112  C1116   1.391   .     A
C1113  C1114   1.399   .     A
C1113  C527    1.422   1_556 S
C1113  C536    1.426   1_556 S
C1114  C1115   1.387   .     A
C1115  H1122   1.082   .     S
C1116  H1119   1.080   .     S
C1123  C1132   1.398   .     A
C1123  H1124   1.084   .     S
C1123  C741    1.371   1_565 S
C1125  H1126   1.084   .     S
C1125  C1127   1.396   .     A
C1127  C1128   1.397   .     A
C1128  H1129   1.084   .     S
C1130  C1132   1.395   .     A
C1130  H1131   1.084   .     S
C1130  C744    1.370   1_565 S
C1133  N1141   1.368   .     A
C1133  H1134   1.081   .     S
C1133  C1007   1.418   1_655 S
C1135  H1136   1.081   .     S
C1135  N1137   1.367   .     A
N1137  C1138   1.383   .     A
C1138  C1142   1.471   .     S
C1139  H1140   1.083   .     S
C1139  N1141   1.356   .     A
C1139  C1010   1.415   1_655 S
C1142  O1144   1.398   .     S
C1142  O1143   1.220   .     D
O1144  H1145   1.014   .     S
N1146  O1148   1.301   .     A
N1146  C527    1.438   1_556 S
N1146  O571    1.302   1_556 S
C1149  O1150   1.222   .     D
C1149  O1151   1.398   .     S
O1151  H1152   1.011   .     S
