data_str_m3_o1_o10_pcu_sym.220
_audit_creation_date              2020-01-03
_audit_creation_method            'Materials Studio'
_symmetry_space_group_name_H-M    'P1'
_symmetry_Int_Tables_number       1
_symmetry_cell_setting            triclinic
loop_
_symmetry_equiv_pos_as_xyz
  x,y,z
_cell_length_a                    25.7410
_cell_length_b                    31.8897
_cell_length_c                    29.6749
_cell_angle_alpha                 89.6603
_cell_angle_beta                  98.4701
_cell_angle_gamma                 90.3427
loop_
_atom_site_label
_atom_site_type_symbol
_atom_site_fract_x
_atom_site_fract_y
_atom_site_fract_z
_atom_site_U_iso_or_equiv
_atom_site_adp_type
_atom_site_occupancy
C1     C     0.16693   0.08690   0.16679   0.00000  Uiso   1.00
C2     C     0.16640   0.24643   0.16655   0.00000  Uiso   1.00
C3     C     0.06711   0.16636   0.15476   0.00000  Uiso   1.00
C4     C     0.26623   0.16698   0.17857   0.00000  Uiso   1.00
C5     C     0.01206   0.16623   0.14836   0.00000  Uiso   1.00
C6     C     0.32127   0.16710   0.18497   0.00000  Uiso   1.00
C7     C     0.11911   0.02203   0.15224   0.00000  Uiso   1.00
C8     C     0.21422   0.31131   0.18109   0.00000  Uiso   1.00
C9     C     0.11861   0.31163   0.15199   0.00000  Uiso   1.00
C10    C     0.21472   0.02170   0.18135   0.00000  Uiso   1.00
C11    C     0.16628   0.29064   0.16637   0.00000  Uiso   1.00
C12    C     0.16705   0.04269   0.16696   0.00000  Uiso   1.00
C13    C     0.19888   0.19325   0.02752   0.00000  Uiso   1.00
C14    C     0.13445   0.14009   0.30581   0.00000  Uiso   1.00
C15    C     0.19875   0.19313   0.31308   0.00000  Uiso   1.00
C16    C     0.13458   0.14020   0.02026   0.00000  Uiso   1.00
H17    H     0.32489   0.16543   0.11360   0.00000  Uiso   1.00
H18    H     0.00845   0.16790   0.21974   0.00000  Uiso   1.00
H19    H     0.22438   0.21427   0.29790   0.00000  Uiso   1.00
H20    H     0.10895   0.11906   0.03543   0.00000  Uiso   1.00
N21    N     0.16665   0.16666   0.28573   0.00000  Uiso   1.00
N22    N     0.16668   0.16668   0.04760   0.00000  Uiso   1.00
O23    O     0.16666   0.10558   0.20487   0.00000  Uiso   1.00
O24    O     0.16667   0.22775   0.12846   0.00000  Uiso   1.00
O25    O     0.16666   0.10559   0.12843   0.00000  Uiso   1.00
O26    O     0.16667   0.22774   0.20490   0.00000  Uiso   1.00
O27    O     0.09058   0.16666   0.19595   0.00000  Uiso   1.00
O28    O     0.24275   0.16667   0.13739   0.00000  Uiso   1.00
O29    O     0.09058   0.16667   0.11950   0.00000  Uiso   1.00
O30    O     0.24275   0.16666   0.21383   0.00000  Uiso   1.00
Zn31   Zn    0.16667   0.16666   0.21771   0.00000  Uiso   1.00
Zn32   Zn    0.16667   0.16667   0.11563   0.00000  Uiso   1.00
C33    C     0.06947   0.04753   0.13763   0.00000  Uiso   1.00
H34    H     0.07487   0.06793   0.10823   0.00000  Uiso   1.00
H35    H     0.03370   0.02866   0.12690   0.00000  Uiso   1.00
H36    H     0.06145   0.06750   0.16633   0.00000  Uiso   1.00
C37    C     0.26386   0.28581   0.19570   0.00000  Uiso   1.00
H38    H     0.25846   0.26540   0.22510   0.00000  Uiso   1.00
H39    H     0.27189   0.26584   0.16700   0.00000  Uiso   1.00
H40    H     0.29964   0.30467   0.20643   0.00000  Uiso   1.00
C41    C     0.06755   0.28792   0.13711   0.00000  Uiso   1.00
H42    H     0.07127   0.25344   0.13886   0.00000  Uiso   1.00
H43    H     0.03834   0.29630   0.15951   0.00000  Uiso   1.00
H44    H     0.05208   0.29597   0.10121   0.00000  Uiso   1.00
C45    C     0.26578   0.04542   0.19622   0.00000  Uiso   1.00
H46    H     0.26207   0.07990   0.19447   0.00000  Uiso   1.00
H47    H     0.28125   0.03736   0.23213   0.00000  Uiso   1.00
H48    H     0.29500   0.03704   0.17383   0.00000  Uiso   1.00
Cl49   Cl    0.24131   0.22833   0.06033   0.00000  Uiso   1.00
Cl50   Cl    0.09203   0.10501   0.27301   0.00000  Uiso   1.00
C51    C     0.50026   0.08690   0.16679   0.00000  Uiso   1.00
C52    C     0.49974   0.24643   0.16655   0.00000  Uiso   1.00
C53    C     0.40044   0.16636   0.15476   0.00000  Uiso   1.00
C54    C     0.59956   0.16698   0.17857   0.00000  Uiso   1.00
C55    C     0.34540   0.16623   0.14836   0.00000  Uiso   1.00
C56    C     0.65460   0.16710   0.18497   0.00000  Uiso   1.00
C57    C     0.45245   0.02203   0.15224   0.00000  Uiso   1.00
C58    C     0.54755   0.31131   0.18109   0.00000  Uiso   1.00
C59    C     0.45195   0.31163   0.15199   0.00000  Uiso   1.00
C60    C     0.54805   0.02170   0.18135   0.00000  Uiso   1.00
C61    C     0.49961   0.29064   0.16637   0.00000  Uiso   1.00
C62    C     0.50039   0.04269   0.16696   0.00000  Uiso   1.00
C63    C     0.53222   0.19325   0.02752   0.00000  Uiso   1.00
C64    C     0.46778   0.14009   0.30581   0.00000  Uiso   1.00
C65    C     0.53209   0.19313   0.31308   0.00000  Uiso   1.00
C66    C     0.46791   0.14020   0.02026   0.00000  Uiso   1.00
H67    H     0.65822   0.16543   0.11360   0.00000  Uiso   1.00
H68    H     0.34178   0.16790   0.21974   0.00000  Uiso   1.00
H69    H     0.55772   0.21427   0.29790   0.00000  Uiso   1.00
H70    H     0.44228   0.11906   0.03543   0.00000  Uiso   1.00
N71    N     0.49999   0.16666   0.28573   0.00000  Uiso   1.00
N72    N     0.50001   0.16668   0.04760   0.00000  Uiso   1.00
O73    O     0.50000   0.10558   0.20487   0.00000  Uiso   1.00
O74    O     0.50000   0.22775   0.12846   0.00000  Uiso   1.00
O75    O     0.50000   0.10559   0.12843   0.00000  Uiso   1.00
O76    O     0.50000   0.22774   0.20490   0.00000  Uiso   1.00
O77    O     0.42392   0.16666   0.19595   0.00000  Uiso   1.00
O78    O     0.57608   0.16667   0.13739   0.00000  Uiso   1.00
O79    O     0.42392   0.16667   0.11950   0.00000  Uiso   1.00
O80    O     0.57608   0.16666   0.21383   0.00000  Uiso   1.00
Zn81   Zn    0.50000   0.16666   0.21771   0.00000  Uiso   1.00
Zn82   Zn    0.50000   0.16667   0.11563   0.00000  Uiso   1.00
C83    C     0.40281   0.04753   0.13763   0.00000  Uiso   1.00
H84    H     0.40821   0.06793   0.10823   0.00000  Uiso   1.00
H85    H     0.36703   0.02866   0.12690   0.00000  Uiso   1.00
H86    H     0.39478   0.06750   0.16633   0.00000  Uiso   1.00
C87    C     0.59719   0.28581   0.19570   0.00000  Uiso   1.00
H88    H     0.59180   0.26540   0.22510   0.00000  Uiso   1.00
H89    H     0.60522   0.26584   0.16700   0.00000  Uiso   1.00
H90    H     0.63297   0.30467   0.20643   0.00000  Uiso   1.00
C91    C     0.40089   0.28792   0.13711   0.00000  Uiso   1.00
H92    H     0.40460   0.25344   0.13886   0.00000  Uiso   1.00
H93    H     0.37167   0.29630   0.15951   0.00000  Uiso   1.00
H94    H     0.38542   0.29597   0.10121   0.00000  Uiso   1.00
C95    C     0.59911   0.04542   0.19622   0.00000  Uiso   1.00
H96    H     0.59540   0.07990   0.19447   0.00000  Uiso   1.00
H97    H     0.61458   0.03736   0.23213   0.00000  Uiso   1.00
H98    H     0.62833   0.03704   0.17383   0.00000  Uiso   1.00
Cl99   Cl    0.57464   0.22833   0.06033   0.00000  Uiso   1.00
Cl100  Cl    0.42536   0.10501   0.27301   0.00000  Uiso   1.00
C101   C     0.83360   0.08690   0.16679   0.00000  Uiso   1.00
C102   C     0.83307   0.24643   0.16655   0.00000  Uiso   1.00
C103   C     0.73377   0.16636   0.15476   0.00000  Uiso   1.00
C104   C     0.93290   0.16698   0.17857   0.00000  Uiso   1.00
C105   C     0.67873   0.16623   0.14836   0.00000  Uiso   1.00
C106   C     0.98794   0.16710   0.18497   0.00000  Uiso   1.00
C107   C     0.78578   0.02203   0.15224   0.00000  Uiso   1.00
C108   C     0.88089   0.31131   0.18109   0.00000  Uiso   1.00
C109   C     0.78528   0.31163   0.15199   0.00000  Uiso   1.00
C110   C     0.88139   0.02170   0.18135   0.00000  Uiso   1.00
C111   C     0.83295   0.29064   0.16637   0.00000  Uiso   1.00
C112   C     0.83372   0.04269   0.16696   0.00000  Uiso   1.00
C113   C     0.86555   0.19325   0.02752   0.00000  Uiso   1.00
C114   C     0.80112   0.14009   0.30581   0.00000  Uiso   1.00
C115   C     0.86542   0.19313   0.31308   0.00000  Uiso   1.00
C116   C     0.80125   0.14020   0.02026   0.00000  Uiso   1.00
H117   H     0.99155   0.16543   0.11360   0.00000  Uiso   1.00
H118   H     0.67511   0.16790   0.21974   0.00000  Uiso   1.00
H119   H     0.89105   0.21427   0.29790   0.00000  Uiso   1.00
H120   H     0.77562   0.11906   0.03543   0.00000  Uiso   1.00
N121   N     0.83332   0.16666   0.28573   0.00000  Uiso   1.00
N122   N     0.83335   0.16668   0.04760   0.00000  Uiso   1.00
O123   O     0.83333   0.10558   0.20487   0.00000  Uiso   1.00
O124   O     0.83334   0.22775   0.12846   0.00000  Uiso   1.00
O125   O     0.83333   0.10559   0.12843   0.00000  Uiso   1.00
O126   O     0.83334   0.22774   0.20490   0.00000  Uiso   1.00
O127   O     0.75725   0.16666   0.19595   0.00000  Uiso   1.00
O128   O     0.90942   0.16667   0.13739   0.00000  Uiso   1.00
O129   O     0.75725   0.16667   0.11950   0.00000  Uiso   1.00
O130   O     0.90942   0.16666   0.21383   0.00000  Uiso   1.00
Zn131  Zn    0.83333   0.16666   0.21771   0.00000  Uiso   1.00
Zn132  Zn    0.83333   0.16667   0.11563   0.00000  Uiso   1.00
C133   C     0.73614   0.04753   0.13763   0.00000  Uiso   1.00
H134   H     0.74154   0.06793   0.10823   0.00000  Uiso   1.00
H135   H     0.70037   0.02866   0.12690   0.00000  Uiso   1.00
H136   H     0.72811   0.06750   0.16633   0.00000  Uiso   1.00
C137   C     0.93053   0.28581   0.19570   0.00000  Uiso   1.00
H138   H     0.92513   0.26540   0.22510   0.00000  Uiso   1.00
H139   H     0.93855   0.26584   0.16700   0.00000  Uiso   1.00
H140   H     0.96630   0.30467   0.20643   0.00000  Uiso   1.00
C141   C     0.73422   0.28792   0.13711   0.00000  Uiso   1.00
H142   H     0.73793   0.25344   0.13886   0.00000  Uiso   1.00
H143   H     0.70500   0.29630   0.15951   0.00000  Uiso   1.00
H144   H     0.71875   0.29597   0.10121   0.00000  Uiso   1.00
C145   C     0.93245   0.04542   0.19622   0.00000  Uiso   1.00
H146   H     0.92873   0.07990   0.19447   0.00000  Uiso   1.00
H147   H     0.94792   0.03736   0.23213   0.00000  Uiso   1.00
H148   H     0.96166   0.03704   0.17383   0.00000  Uiso   1.00
Cl149  Cl    0.90798   0.22833   0.06033   0.00000  Uiso   1.00
Cl150  Cl    0.75869   0.10501   0.27301   0.00000  Uiso   1.00
C151   C     0.16693   0.42023   0.16679   0.00000  Uiso   1.00
C152   C     0.16640   0.57977   0.16655   0.00000  Uiso   1.00
C153   C     0.06711   0.49969   0.15476   0.00000  Uiso   1.00
C154   C     0.26623   0.50031   0.17857   0.00000  Uiso   1.00
C155   C     0.01206   0.49957   0.14836   0.00000  Uiso   1.00
C156   C     0.32127   0.50043   0.18497   0.00000  Uiso   1.00
C157   C     0.11911   0.35536   0.15224   0.00000  Uiso   1.00
C158   C     0.21422   0.64464   0.18109   0.00000  Uiso   1.00
C159   C     0.11861   0.64497   0.15199   0.00000  Uiso   1.00
C160   C     0.21472   0.35503   0.18135   0.00000  Uiso   1.00
C161   C     0.16628   0.62397   0.16637   0.00000  Uiso   1.00
C162   C     0.16705   0.37603   0.16696   0.00000  Uiso   1.00
C163   C     0.19888   0.52658   0.02752   0.00000  Uiso   1.00
C164   C     0.13445   0.47342   0.30581   0.00000  Uiso   1.00
C165   C     0.19875   0.52647   0.31308   0.00000  Uiso   1.00
C166   C     0.13458   0.47353   0.02026   0.00000  Uiso   1.00
H167   H     0.32489   0.49877   0.11360   0.00000  Uiso   1.00
H168   H     0.00845   0.50124   0.21974   0.00000  Uiso   1.00
H169   H     0.22438   0.54761   0.29790   0.00000  Uiso   1.00
H170   H     0.10895   0.45239   0.03543   0.00000  Uiso   1.00
N171   N     0.16665   0.49999   0.28573   0.00000  Uiso   1.00
N172   N     0.16668   0.50001   0.04760   0.00000  Uiso   1.00
O173   O     0.16666   0.43892   0.20487   0.00000  Uiso   1.00
O174   O     0.16667   0.56108   0.12846   0.00000  Uiso   1.00
O175   O     0.16666   0.43893   0.12843   0.00000  Uiso   1.00
O176   O     0.16667   0.56107   0.20490   0.00000  Uiso   1.00
O177   O     0.09058   0.50000   0.19595   0.00000  Uiso   1.00
O178   O     0.24275   0.50000   0.13739   0.00000  Uiso   1.00
O179   O     0.09058   0.50000   0.11950   0.00000  Uiso   1.00
O180   O     0.24275   0.50000   0.21383   0.00000  Uiso   1.00
Zn181  Zn    0.16667   0.49999   0.21771   0.00000  Uiso   1.00
Zn182  Zn    0.16667   0.50001   0.11563   0.00000  Uiso   1.00
C183   C     0.06947   0.38086   0.13763   0.00000  Uiso   1.00
H184   H     0.07487   0.40127   0.10823   0.00000  Uiso   1.00
H185   H     0.03370   0.36199   0.12690   0.00000  Uiso   1.00
H186   H     0.06145   0.40083   0.16633   0.00000  Uiso   1.00
C187   C     0.26386   0.61914   0.19570   0.00000  Uiso   1.00
H188   H     0.25846   0.59873   0.22510   0.00000  Uiso   1.00
H189   H     0.27189   0.59917   0.16700   0.00000  Uiso   1.00
H190   H     0.29964   0.63801   0.20643   0.00000  Uiso   1.00
C191   C     0.06755   0.62125   0.13711   0.00000  Uiso   1.00
H192   H     0.07127   0.58677   0.13886   0.00000  Uiso   1.00
H193   H     0.03834   0.62963   0.15951   0.00000  Uiso   1.00
H194   H     0.05208   0.62930   0.10121   0.00000  Uiso   1.00
C195   C     0.26578   0.37875   0.19622   0.00000  Uiso   1.00
H196   H     0.26207   0.41323   0.19447   0.00000  Uiso   1.00
H197   H     0.28125   0.37070   0.23213   0.00000  Uiso   1.00
H198   H     0.29500   0.37037   0.17383   0.00000  Uiso   1.00
Cl199  Cl    0.24131   0.56166   0.06033   0.00000  Uiso   1.00
Cl200  Cl    0.09203   0.43834   0.27301   0.00000  Uiso   1.00
C201   C     0.50026   0.42023   0.16679   0.00000  Uiso   1.00
C202   C     0.49974   0.57977   0.16655   0.00000  Uiso   1.00
C203   C     0.40044   0.49969   0.15476   0.00000  Uiso   1.00
C204   C     0.59956   0.50031   0.17857   0.00000  Uiso   1.00
C205   C     0.34540   0.49957   0.14836   0.00000  Uiso   1.00
C206   C     0.65460   0.50043   0.18497   0.00000  Uiso   1.00
C207   C     0.45245   0.35536   0.15224   0.00000  Uiso   1.00
C208   C     0.54755   0.64464   0.18109   0.00000  Uiso   1.00
C209   C     0.45195   0.64497   0.15199   0.00000  Uiso   1.00
C210   C     0.54805   0.35503   0.18135   0.00000  Uiso   1.00
C211   C     0.49961   0.62397   0.16637   0.00000  Uiso   1.00
C212   C     0.50039   0.37603   0.16696   0.00000  Uiso   1.00
C213   C     0.53222   0.52658   0.02752   0.00000  Uiso   1.00
C214   C     0.46778   0.47342   0.30581   0.00000  Uiso   1.00
C215   C     0.53209   0.52647   0.31308   0.00000  Uiso   1.00
C216   C     0.46791   0.47353   0.02026   0.00000  Uiso   1.00
H217   H     0.65822   0.49877   0.11360   0.00000  Uiso   1.00
H218   H     0.34178   0.50124   0.21974   0.00000  Uiso   1.00
H219   H     0.55772   0.54761   0.29790   0.00000  Uiso   1.00
H220   H     0.44228   0.45239   0.03543   0.00000  Uiso   1.00
N221   N     0.49999   0.49999   0.28573   0.00000  Uiso   1.00
N222   N     0.50001   0.50001   0.04760   0.00000  Uiso   1.00
O223   O     0.50000   0.43892   0.20487   0.00000  Uiso   1.00
O224   O     0.50000   0.56108   0.12846   0.00000  Uiso   1.00
O225   O     0.50000   0.43893   0.12843   0.00000  Uiso   1.00
O226   O     0.50000   0.56107   0.20490   0.00000  Uiso   1.00
O227   O     0.42392   0.50000   0.19595   0.00000  Uiso   1.00
O228   O     0.57608   0.50000   0.13739   0.00000  Uiso   1.00
O229   O     0.42392   0.50000   0.11950   0.00000  Uiso   1.00
O230   O     0.57608   0.50000   0.21383   0.00000  Uiso   1.00
Zn231  Zn    0.50000   0.49999   0.21771   0.00000  Uiso   1.00
Zn232  Zn    0.50000   0.50001   0.11563   0.00000  Uiso   1.00
C233   C     0.40281   0.38086   0.13763   0.00000  Uiso   1.00
H234   H     0.40821   0.40127   0.10823   0.00000  Uiso   1.00
H235   H     0.36703   0.36199   0.12690   0.00000  Uiso   1.00
H236   H     0.39478   0.40083   0.16633   0.00000  Uiso   1.00
C237   C     0.59719   0.61914   0.19570   0.00000  Uiso   1.00
H238   H     0.59180   0.59873   0.22510   0.00000  Uiso   1.00
H239   H     0.60522   0.59917   0.16700   0.00000  Uiso   1.00
H240   H     0.63297   0.63801   0.20643   0.00000  Uiso   1.00
C241   C     0.40089   0.62125   0.13711   0.00000  Uiso   1.00
H242   H     0.40460   0.58677   0.13886   0.00000  Uiso   1.00
H243   H     0.37167   0.62963   0.15951   0.00000  Uiso   1.00
H244   H     0.38542   0.62930   0.10121   0.00000  Uiso   1.00
C245   C     0.59911   0.37875   0.19622   0.00000  Uiso   1.00
H246   H     0.59540   0.41323   0.19447   0.00000  Uiso   1.00
H247   H     0.61458   0.37070   0.23213   0.00000  Uiso   1.00
H248   H     0.62833   0.37037   0.17383   0.00000  Uiso   1.00
Cl249  Cl    0.57464   0.56166   0.06033   0.00000  Uiso   1.00
Cl250  Cl    0.42536   0.43834   0.27301   0.00000  Uiso   1.00
C251   C     0.83360   0.42023   0.16679   0.00000  Uiso   1.00
C252   C     0.83307   0.57977   0.16655   0.00000  Uiso   1.00
C253   C     0.73377   0.49969   0.15476   0.00000  Uiso   1.00
C254   C     0.93290   0.50031   0.17857   0.00000  Uiso   1.00
C255   C     0.67873   0.49957   0.14836   0.00000  Uiso   1.00
C256   C     0.98794   0.50043   0.18497   0.00000  Uiso   1.00
C257   C     0.78578   0.35536   0.15224   0.00000  Uiso   1.00
C258   C     0.88089   0.64464   0.18109   0.00000  Uiso   1.00
C259   C     0.78528   0.64497   0.15199   0.00000  Uiso   1.00
C260   C     0.88139   0.35503   0.18135   0.00000  Uiso   1.00
C261   C     0.83295   0.62397   0.16637   0.00000  Uiso   1.00
C262   C     0.83372   0.37603   0.16696   0.00000  Uiso   1.00
C263   C     0.86555   0.52658   0.02752   0.00000  Uiso   1.00
C264   C     0.80112   0.47342   0.30581   0.00000  Uiso   1.00
C265   C     0.86542   0.52647   0.31308   0.00000  Uiso   1.00
C266   C     0.80125   0.47353   0.02026   0.00000  Uiso   1.00
H267   H     0.99155   0.49877   0.11360   0.00000  Uiso   1.00
H268   H     0.67511   0.50124   0.21974   0.00000  Uiso   1.00
H269   H     0.89105   0.54761   0.29790   0.00000  Uiso   1.00
H270   H     0.77562   0.45239   0.03543   0.00000  Uiso   1.00
N271   N     0.83332   0.49999   0.28573   0.00000  Uiso   1.00
N272   N     0.83335   0.50001   0.04760   0.00000  Uiso   1.00
O273   O     0.83333   0.43892   0.20487   0.00000  Uiso   1.00
O274   O     0.83334   0.56108   0.12846   0.00000  Uiso   1.00
O275   O     0.83333   0.43893   0.12843   0.00000  Uiso   1.00
O276   O     0.83334   0.56107   0.20490   0.00000  Uiso   1.00
O277   O     0.75725   0.50000   0.19595   0.00000  Uiso   1.00
O278   O     0.90942   0.50000   0.13739   0.00000  Uiso   1.00
O279   O     0.75725   0.50000   0.11950   0.00000  Uiso   1.00
O280   O     0.90942   0.50000   0.21383   0.00000  Uiso   1.00
Zn281  Zn    0.83333   0.49999   0.21771   0.00000  Uiso   1.00
Zn282  Zn    0.83333   0.50001   0.11563   0.00000  Uiso   1.00
C283   C     0.73614   0.38086   0.13763   0.00000  Uiso   1.00
H284   H     0.74154   0.40127   0.10823   0.00000  Uiso   1.00
H285   H     0.70037   0.36199   0.12690   0.00000  Uiso   1.00
H286   H     0.72811   0.40083   0.16633   0.00000  Uiso   1.00
C287   C     0.93053   0.61914   0.19570   0.00000  Uiso   1.00
H288   H     0.92513   0.59873   0.22510   0.00000  Uiso   1.00
H289   H     0.93855   0.59917   0.16700   0.00000  Uiso   1.00
H290   H     0.96630   0.63801   0.20643   0.00000  Uiso   1.00
C291   C     0.73422   0.62125   0.13711   0.00000  Uiso   1.00
H292   H     0.73793   0.58677   0.13886   0.00000  Uiso   1.00
H293   H     0.70500   0.62963   0.15951   0.00000  Uiso   1.00
H294   H     0.71875   0.62930   0.10121   0.00000  Uiso   1.00
C295   C     0.93245   0.37875   0.19622   0.00000  Uiso   1.00
H296   H     0.92873   0.41323   0.19447   0.00000  Uiso   1.00
H297   H     0.94792   0.37070   0.23213   0.00000  Uiso   1.00
H298   H     0.96166   0.37037   0.17383   0.00000  Uiso   1.00
Cl299  Cl    0.90798   0.56166   0.06033   0.00000  Uiso   1.00
Cl300  Cl    0.75869   0.43834   0.27301   0.00000  Uiso   1.00
C301   C     0.16693   0.75357   0.16679   0.00000  Uiso   1.00
C302   C     0.16640   0.91310   0.16655   0.00000  Uiso   1.00
C303   C     0.06711   0.83302   0.15476   0.00000  Uiso   1.00
C304   C     0.26623   0.83364   0.17857   0.00000  Uiso   1.00
C305   C     0.01206   0.83290   0.14836   0.00000  Uiso   1.00
C306   C     0.32127   0.83377   0.18497   0.00000  Uiso   1.00
C307   C     0.11911   0.68869   0.15224   0.00000  Uiso   1.00
C308   C     0.21422   0.97797   0.18109   0.00000  Uiso   1.00
C309   C     0.11861   0.97830   0.15199   0.00000  Uiso   1.00
C310   C     0.21472   0.68837   0.18135   0.00000  Uiso   1.00
C311   C     0.16628   0.95731   0.16637   0.00000  Uiso   1.00
C312   C     0.16705   0.70936   0.16696   0.00000  Uiso   1.00
C313   C     0.19888   0.85991   0.02752   0.00000  Uiso   1.00
C314   C     0.13445   0.80675   0.30581   0.00000  Uiso   1.00
C315   C     0.19875   0.85980   0.31308   0.00000  Uiso   1.00
C316   C     0.13458   0.80687   0.02026   0.00000  Uiso   1.00
H317   H     0.32489   0.83210   0.11360   0.00000  Uiso   1.00
H318   H     0.00845   0.83457   0.21974   0.00000  Uiso   1.00
H319   H     0.22438   0.88094   0.29790   0.00000  Uiso   1.00
H320   H     0.10895   0.78573   0.03543   0.00000  Uiso   1.00
N321   N     0.16665   0.83332   0.28573   0.00000  Uiso   1.00
N322   N     0.16668   0.83334   0.04760   0.00000  Uiso   1.00
O323   O     0.16666   0.77225   0.20487   0.00000  Uiso   1.00
O324   O     0.16667   0.89442   0.12846   0.00000  Uiso   1.00
O325   O     0.16666   0.77226   0.12843   0.00000  Uiso   1.00
O326   O     0.16667   0.89441   0.20490   0.00000  Uiso   1.00
O327   O     0.09058   0.83333   0.19595   0.00000  Uiso   1.00
O328   O     0.24275   0.83334   0.13739   0.00000  Uiso   1.00
O329   O     0.09058   0.83334   0.11950   0.00000  Uiso   1.00
O330   O     0.24275   0.83333   0.21383   0.00000  Uiso   1.00
Zn331  Zn    0.16667   0.83333   0.21771   0.00000  Uiso   1.00
Zn332  Zn    0.16667   0.83334   0.11563   0.00000  Uiso   1.00
C333   C     0.06947   0.71419   0.13763   0.00000  Uiso   1.00
H334   H     0.07487   0.73460   0.10823   0.00000  Uiso   1.00
H335   H     0.03370   0.69533   0.12690   0.00000  Uiso   1.00
H336   H     0.06145   0.73416   0.16633   0.00000  Uiso   1.00
C337   C     0.26386   0.95247   0.19570   0.00000  Uiso   1.00
H338   H     0.25846   0.93207   0.22510   0.00000  Uiso   1.00
H339   H     0.27189   0.93250   0.16700   0.00000  Uiso   1.00
H340   H     0.29964   0.97134   0.20643   0.00000  Uiso   1.00
C341   C     0.06755   0.95458   0.13711   0.00000  Uiso   1.00
H342   H     0.07127   0.92010   0.13886   0.00000  Uiso   1.00
H343   H     0.03834   0.96296   0.15951   0.00000  Uiso   1.00
H344   H     0.05208   0.96264   0.10121   0.00000  Uiso   1.00
C345   C     0.26578   0.71208   0.19622   0.00000  Uiso   1.00
H346   H     0.26207   0.74656   0.19447   0.00000  Uiso   1.00
H347   H     0.28125   0.70403   0.23213   0.00000  Uiso   1.00
H348   H     0.29500   0.70370   0.17383   0.00000  Uiso   1.00
Cl349  Cl    0.24131   0.89499   0.06033   0.00000  Uiso   1.00
Cl350  Cl    0.09203   0.77167   0.27301   0.00000  Uiso   1.00
C351   C     0.50026   0.75357   0.16679   0.00000  Uiso   1.00
C352   C     0.49974   0.91310   0.16655   0.00000  Uiso   1.00
C353   C     0.40044   0.83302   0.15476   0.00000  Uiso   1.00
C354   C     0.59956   0.83364   0.17857   0.00000  Uiso   1.00
C355   C     0.34540   0.83290   0.14836   0.00000  Uiso   1.00
C356   C     0.65460   0.83377   0.18497   0.00000  Uiso   1.00
C357   C     0.45245   0.68869   0.15224   0.00000  Uiso   1.00
C358   C     0.54755   0.97797   0.18109   0.00000  Uiso   1.00
C359   C     0.45195   0.97830   0.15199   0.00000  Uiso   1.00
C360   C     0.54805   0.68837   0.18135   0.00000  Uiso   1.00
C361   C     0.49961   0.95731   0.16637   0.00000  Uiso   1.00
C362   C     0.50039   0.70936   0.16696   0.00000  Uiso   1.00
C363   C     0.53222   0.85991   0.02752   0.00000  Uiso   1.00
C364   C     0.46778   0.80675   0.30581   0.00000  Uiso   1.00
C365   C     0.53209   0.85980   0.31308   0.00000  Uiso   1.00
C366   C     0.46791   0.80687   0.02026   0.00000  Uiso   1.00
H367   H     0.65822   0.83210   0.11360   0.00000  Uiso   1.00
H368   H     0.34178   0.83457   0.21974   0.00000  Uiso   1.00
H369   H     0.55772   0.88094   0.29790   0.00000  Uiso   1.00
H370   H     0.44228   0.78573   0.03543   0.00000  Uiso   1.00
N371   N     0.49999   0.83332   0.28573   0.00000  Uiso   1.00
N372   N     0.50001   0.83334   0.04760   0.00000  Uiso   1.00
O373   O     0.50000   0.77225   0.20487   0.00000  Uiso   1.00
O374   O     0.50000   0.89442   0.12846   0.00000  Uiso   1.00
O375   O     0.50000   0.77226   0.12843   0.00000  Uiso   1.00
O376   O     0.50000   0.89441   0.20490   0.00000  Uiso   1.00
O377   O     0.42392   0.83333   0.19595   0.00000  Uiso   1.00
O378   O     0.57608   0.83334   0.13739   0.00000  Uiso   1.00
O379   O     0.42392   0.83334   0.11950   0.00000  Uiso   1.00
O380   O     0.57608   0.83333   0.21383   0.00000  Uiso   1.00
Zn381  Zn    0.50000   0.83333   0.21771   0.00000  Uiso   1.00
Zn382  Zn    0.50000   0.83334   0.11563   0.00000  Uiso   1.00
C383   C     0.40281   0.71419   0.13763   0.00000  Uiso   1.00
H384   H     0.40821   0.73460   0.10823   0.00000  Uiso   1.00
H385   H     0.36703   0.69533   0.12690   0.00000  Uiso   1.00
H386   H     0.39478   0.73416   0.16633   0.00000  Uiso   1.00
C387   C     0.59719   0.95247   0.19570   0.00000  Uiso   1.00
H388   H     0.59180   0.93207   0.22510   0.00000  Uiso   1.00
H389   H     0.60522   0.93250   0.16700   0.00000  Uiso   1.00
H390   H     0.63297   0.97134   0.20643   0.00000  Uiso   1.00
C391   C     0.40089   0.95458   0.13711   0.00000  Uiso   1.00
H392   H     0.40460   0.92010   0.13886   0.00000  Uiso   1.00
H393   H     0.37167   0.96296   0.15951   0.00000  Uiso   1.00
H394   H     0.38542   0.96264   0.10121   0.00000  Uiso   1.00
C395   C     0.59911   0.71208   0.19622   0.00000  Uiso   1.00
H396   H     0.59540   0.74656   0.19447   0.00000  Uiso   1.00
H397   H     0.61458   0.70403   0.23213   0.00000  Uiso   1.00
H398   H     0.62833   0.70370   0.17383   0.00000  Uiso   1.00
Cl399  Cl    0.57464   0.89499   0.06033   0.00000  Uiso   1.00
Cl400  Cl    0.42536   0.77167   0.27301   0.00000  Uiso   1.00
C401   C     0.83360   0.75357   0.16679   0.00000  Uiso   1.00
C402   C     0.83307   0.91310   0.16655   0.00000  Uiso   1.00
C403   C     0.73377   0.83302   0.15476   0.00000  Uiso   1.00
C404   C     0.93290   0.83364   0.17857   0.00000  Uiso   1.00
C405   C     0.67873   0.83290   0.14836   0.00000  Uiso   1.00
C406   C     0.98794   0.83377   0.18497   0.00000  Uiso   1.00
C407   C     0.78578   0.68869   0.15224   0.00000  Uiso   1.00
C408   C     0.88089   0.97797   0.18109   0.00000  Uiso   1.00
C409   C     0.78528   0.97830   0.15199   0.00000  Uiso   1.00
C410   C     0.88139   0.68837   0.18135   0.00000  Uiso   1.00
C411   C     0.83295   0.95731   0.16637   0.00000  Uiso   1.00
C412   C     0.83372   0.70936   0.16696   0.00000  Uiso   1.00
C413   C     0.86555   0.85991   0.02752   0.00000  Uiso   1.00
C414   C     0.80112   0.80675   0.30581   0.00000  Uiso   1.00
C415   C     0.86542   0.85980   0.31308   0.00000  Uiso   1.00
C416   C     0.80125   0.80687   0.02026   0.00000  Uiso   1.00
H417   H     0.99155   0.83210   0.11360   0.00000  Uiso   1.00
H418   H     0.67511   0.83457   0.21974   0.00000  Uiso   1.00
H419   H     0.89105   0.88094   0.29790   0.00000  Uiso   1.00
H420   H     0.77562   0.78573   0.03543   0.00000  Uiso   1.00
N421   N     0.83332   0.83332   0.28573   0.00000  Uiso   1.00
N422   N     0.83335   0.83334   0.04760   0.00000  Uiso   1.00
O423   O     0.83333   0.77225   0.20487   0.00000  Uiso   1.00
O424   O     0.83334   0.89442   0.12846   0.00000  Uiso   1.00
O425   O     0.83333   0.77226   0.12843   0.00000  Uiso   1.00
O426   O     0.83334   0.89441   0.20490   0.00000  Uiso   1.00
O427   O     0.75725   0.83333   0.19595   0.00000  Uiso   1.00
O428   O     0.90942   0.83334   0.13739   0.00000  Uiso   1.00
O429   O     0.75725   0.83334   0.11950   0.00000  Uiso   1.00
O430   O     0.90942   0.83333   0.21383   0.00000  Uiso   1.00
Zn431  Zn    0.83333   0.83333   0.21771   0.00000  Uiso   1.00
Zn432  Zn    0.83333   0.83334   0.11563   0.00000  Uiso   1.00
C433   C     0.73614   0.71419   0.13763   0.00000  Uiso   1.00
H434   H     0.74154   0.73460   0.10823   0.00000  Uiso   1.00
H435   H     0.70037   0.69533   0.12690   0.00000  Uiso   1.00
H436   H     0.72811   0.73416   0.16633   0.00000  Uiso   1.00
C437   C     0.93053   0.95247   0.19570   0.00000  Uiso   1.00
H438   H     0.92513   0.93207   0.22510   0.00000  Uiso   1.00
H439   H     0.93855   0.93250   0.16700   0.00000  Uiso   1.00
H440   H     0.96630   0.97134   0.20643   0.00000  Uiso   1.00
C441   C     0.73422   0.95458   0.13711   0.00000  Uiso   1.00
H442   H     0.73793   0.92010   0.13886   0.00000  Uiso   1.00
H443   H     0.70500   0.96296   0.15951   0.00000  Uiso   1.00
H444   H     0.71875   0.96264   0.10121   0.00000  Uiso   1.00
C445   C     0.93245   0.71208   0.19622   0.00000  Uiso   1.00
H446   H     0.92873   0.74656   0.19447   0.00000  Uiso   1.00
H447   H     0.94792   0.70403   0.23213   0.00000  Uiso   1.00
H448   H     0.96166   0.70370   0.17383   0.00000  Uiso   1.00
Cl449  Cl    0.90798   0.89499   0.06033   0.00000  Uiso   1.00
Cl450  Cl    0.75869   0.77167   0.27301   0.00000  Uiso   1.00
C451   C     0.16693   0.08690   0.50012   0.00000  Uiso   1.00
C452   C     0.16640   0.24643   0.49988   0.00000  Uiso   1.00
C453   C     0.06711   0.16636   0.48809   0.00000  Uiso   1.00
C454   C     0.26623   0.16698   0.51191   0.00000  Uiso   1.00
C455   C     0.01206   0.16623   0.48169   0.00000  Uiso   1.00
C456   C     0.32127   0.16710   0.51831   0.00000  Uiso   1.00
C457   C     0.11911   0.02203   0.48557   0.00000  Uiso   1.00
C458   C     0.21422   0.31131   0.51443   0.00000  Uiso   1.00
C459   C     0.11861   0.31163   0.48532   0.00000  Uiso   1.00
C460   C     0.21472   0.02170   0.51468   0.00000  Uiso   1.00
C461   C     0.16628   0.29064   0.49971   0.00000  Uiso   1.00
C462   C     0.16705   0.04269   0.50029   0.00000  Uiso   1.00
C463   C     0.19888   0.19325   0.36086   0.00000  Uiso   1.00
C464   C     0.13445   0.14009   0.63914   0.00000  Uiso   1.00
C465   C     0.19875   0.19313   0.64641   0.00000  Uiso   1.00
C466   C     0.13458   0.14020   0.35359   0.00000  Uiso   1.00
H467   H     0.32489   0.16543   0.44693   0.00000  Uiso   1.00
H468   H     0.00845   0.16790   0.55307   0.00000  Uiso   1.00
H469   H     0.22438   0.21427   0.63123   0.00000  Uiso   1.00
H470   H     0.10895   0.11906   0.36877   0.00000  Uiso   1.00
N471   N     0.16665   0.16666   0.61907   0.00000  Uiso   1.00
N472   N     0.16668   0.16668   0.38093   0.00000  Uiso   1.00
O473   O     0.16666   0.10558   0.53821   0.00000  Uiso   1.00
O474   O     0.16667   0.22775   0.46179   0.00000  Uiso   1.00
O475   O     0.16666   0.10559   0.46176   0.00000  Uiso   1.00
O476   O     0.16667   0.22774   0.53824   0.00000  Uiso   1.00
O477   O     0.09058   0.16666   0.52928   0.00000  Uiso   1.00
O478   O     0.24275   0.16667   0.47072   0.00000  Uiso   1.00
O479   O     0.09058   0.16667   0.45284   0.00000  Uiso   1.00
O480   O     0.24275   0.16666   0.54716   0.00000  Uiso   1.00
Zn481  Zn    0.16667   0.16666   0.55104   0.00000  Uiso   1.00
Zn482  Zn    0.16667   0.16667   0.44896   0.00000  Uiso   1.00
C483   C     0.06947   0.04753   0.47096   0.00000  Uiso   1.00
H484   H     0.07487   0.06793   0.44156   0.00000  Uiso   1.00
H485   H     0.03370   0.02866   0.46024   0.00000  Uiso   1.00
H486   H     0.06145   0.06750   0.49967   0.00000  Uiso   1.00
C487   C     0.26386   0.28581   0.52904   0.00000  Uiso   1.00
H488   H     0.25846   0.26540   0.55844   0.00000  Uiso   1.00
H489   H     0.27189   0.26584   0.50033   0.00000  Uiso   1.00
H490   H     0.29964   0.30467   0.53976   0.00000  Uiso   1.00
C491   C     0.06755   0.28792   0.47045   0.00000  Uiso   1.00
H492   H     0.07127   0.25344   0.47220   0.00000  Uiso   1.00
H493   H     0.03834   0.29630   0.49284   0.00000  Uiso   1.00
H494   H     0.05208   0.29597   0.43454   0.00000  Uiso   1.00
C495   C     0.26578   0.04542   0.52955   0.00000  Uiso   1.00
H496   H     0.26207   0.07990   0.52780   0.00000  Uiso   1.00
H497   H     0.28125   0.03736   0.56546   0.00000  Uiso   1.00
H498   H     0.29500   0.03704   0.50716   0.00000  Uiso   1.00
Cl499  Cl    0.24131   0.22833   0.39366   0.00000  Uiso   1.00
Cl500  Cl    0.09203   0.10501   0.60634   0.00000  Uiso   1.00
C501   C     0.50026   0.08690   0.50012   0.00000  Uiso   1.00
C502   C     0.49974   0.24643   0.49988   0.00000  Uiso   1.00
C503   C     0.40044   0.16636   0.48809   0.00000  Uiso   1.00
C504   C     0.59956   0.16698   0.51191   0.00000  Uiso   1.00
C505   C     0.34540   0.16623   0.48169   0.00000  Uiso   1.00
C506   C     0.65460   0.16710   0.51831   0.00000  Uiso   1.00
C507   C     0.45245   0.02203   0.48557   0.00000  Uiso   1.00
C508   C     0.54755   0.31131   0.51443   0.00000  Uiso   1.00
C509   C     0.45195   0.31163   0.48532   0.00000  Uiso   1.00
C510   C     0.54805   0.02170   0.51468   0.00000  Uiso   1.00
C511   C     0.49961   0.29064   0.49971   0.00000  Uiso   1.00
C512   C     0.50039   0.04269   0.50029   0.00000  Uiso   1.00
C513   C     0.53222   0.19325   0.36086   0.00000  Uiso   1.00
C514   C     0.46778   0.14009   0.63914   0.00000  Uiso   1.00
C515   C     0.53209   0.19313   0.64641   0.00000  Uiso   1.00
C516   C     0.46791   0.14020   0.35359   0.00000  Uiso   1.00
H517   H     0.65822   0.16543   0.44693   0.00000  Uiso   1.00
H518   H     0.34178   0.16790   0.55307   0.00000  Uiso   1.00
H519   H     0.55772   0.21427   0.63123   0.00000  Uiso   1.00
H520   H     0.44228   0.11906   0.36877   0.00000  Uiso   1.00
N521   N     0.49999   0.16666   0.61907   0.00000  Uiso   1.00
N522   N     0.50001   0.16668   0.38093   0.00000  Uiso   1.00
O523   O     0.50000   0.10558   0.53821   0.00000  Uiso   1.00
O524   O     0.50000   0.22775   0.46179   0.00000  Uiso   1.00
O525   O     0.50000   0.10559   0.46176   0.00000  Uiso   1.00
O526   O     0.50000   0.22774   0.53824   0.00000  Uiso   1.00
O527   O     0.42392   0.16666   0.52928   0.00000  Uiso   1.00
O528   O     0.57608   0.16667   0.47072   0.00000  Uiso   1.00
O529   O     0.42392   0.16667   0.45284   0.00000  Uiso   1.00
O530   O     0.57608   0.16666   0.54716   0.00000  Uiso   1.00
Zn531  Zn    0.50000   0.16666   0.55104   0.00000  Uiso   1.00
Zn532  Zn    0.50000   0.16667   0.44896   0.00000  Uiso   1.00
C533   C     0.40281   0.04753   0.47096   0.00000  Uiso   1.00
H534   H     0.40821   0.06793   0.44156   0.00000  Uiso   1.00
H535   H     0.36703   0.02866   0.46024   0.00000  Uiso   1.00
H536   H     0.39478   0.06750   0.49967   0.00000  Uiso   1.00
C537   C     0.59719   0.28581   0.52904   0.00000  Uiso   1.00
H538   H     0.59180   0.26540   0.55844   0.00000  Uiso   1.00
H539   H     0.60522   0.26584   0.50033   0.00000  Uiso   1.00
H540   H     0.63297   0.30467   0.53976   0.00000  Uiso   1.00
C541   C     0.40089   0.28792   0.47045   0.00000  Uiso   1.00
H542   H     0.40460   0.25344   0.47220   0.00000  Uiso   1.00
H543   H     0.37167   0.29630   0.49284   0.00000  Uiso   1.00
H544   H     0.38542   0.29597   0.43454   0.00000  Uiso   1.00
C545   C     0.59911   0.04542   0.52955   0.00000  Uiso   1.00
H546   H     0.59540   0.07990   0.52780   0.00000  Uiso   1.00
H547   H     0.61458   0.03736   0.56546   0.00000  Uiso   1.00
H548   H     0.62833   0.03704   0.50716   0.00000  Uiso   1.00
Cl549  Cl    0.57464   0.22833   0.39366   0.00000  Uiso   1.00
Cl550  Cl    0.42536   0.10501   0.60634   0.00000  Uiso   1.00
C551   C     0.83360   0.08690   0.50012   0.00000  Uiso   1.00
C552   C     0.83307   0.24643   0.49988   0.00000  Uiso   1.00
C553   C     0.73377   0.16636   0.48809   0.00000  Uiso   1.00
C554   C     0.93290   0.16698   0.51191   0.00000  Uiso   1.00
C555   C     0.67873   0.16623   0.48169   0.00000  Uiso   1.00
C556   C     0.98794   0.16710   0.51831   0.00000  Uiso   1.00
C557   C     0.78578   0.02203   0.48557   0.00000  Uiso   1.00
C558   C     0.88089   0.31131   0.51443   0.00000  Uiso   1.00
C559   C     0.78528   0.31163   0.48532   0.00000  Uiso   1.00
C560   C     0.88139   0.02170   0.51468   0.00000  Uiso   1.00
C561   C     0.83295   0.29064   0.49971   0.00000  Uiso   1.00
C562   C     0.83372   0.04269   0.50029   0.00000  Uiso   1.00
C563   C     0.86555   0.19325   0.36086   0.00000  Uiso   1.00
C564   C     0.80112   0.14009   0.63914   0.00000  Uiso   1.00
C565   C     0.86542   0.19313   0.64641   0.00000  Uiso   1.00
C566   C     0.80125   0.14020   0.35359   0.00000  Uiso   1.00
H567   H     0.99155   0.16543   0.44693   0.00000  Uiso   1.00
H568   H     0.67511   0.16790   0.55307   0.00000  Uiso   1.00
H569   H     0.89105   0.21427   0.63123   0.00000  Uiso   1.00
H570   H     0.77562   0.11906   0.36877   0.00000  Uiso   1.00
N571   N     0.83332   0.16666   0.61907   0.00000  Uiso   1.00
N572   N     0.83335   0.16668   0.38093   0.00000  Uiso   1.00
O573   O     0.83333   0.10558   0.53821   0.00000  Uiso   1.00
O574   O     0.83334   0.22775   0.46179   0.00000  Uiso   1.00
O575   O     0.83333   0.10559   0.46176   0.00000  Uiso   1.00
O576   O     0.83334   0.22774   0.53824   0.00000  Uiso   1.00
O577   O     0.75725   0.16666   0.52928   0.00000  Uiso   1.00
O578   O     0.90942   0.16667   0.47072   0.00000  Uiso   1.00
O579   O     0.75725   0.16667   0.45284   0.00000  Uiso   1.00
O580   O     0.90942   0.16666   0.54716   0.00000  Uiso   1.00
Zn581  Zn    0.83333   0.16666   0.55104   0.00000  Uiso   1.00
Zn582  Zn    0.83333   0.16667   0.44896   0.00000  Uiso   1.00
C583   C     0.73614   0.04753   0.47096   0.00000  Uiso   1.00
H584   H     0.74154   0.06793   0.44156   0.00000  Uiso   1.00
H585   H     0.70037   0.02866   0.46024   0.00000  Uiso   1.00
H586   H     0.72811   0.06750   0.49967   0.00000  Uiso   1.00
C587   C     0.93053   0.28581   0.52904   0.00000  Uiso   1.00
H588   H     0.92513   0.26540   0.55844   0.00000  Uiso   1.00
H589   H     0.93855   0.26584   0.50033   0.00000  Uiso   1.00
H590   H     0.96630   0.30467   0.53976   0.00000  Uiso   1.00
C591   C     0.73422   0.28792   0.47045   0.00000  Uiso   1.00
H592   H     0.73793   0.25344   0.47220   0.00000  Uiso   1.00
H593   H     0.70500   0.29630   0.49284   0.00000  Uiso   1.00
H594   H     0.71875   0.29597   0.43454   0.00000  Uiso   1.00
C595   C     0.93245   0.04542   0.52955   0.00000  Uiso   1.00
H596   H     0.92873   0.07990   0.52780   0.00000  Uiso   1.00
H597   H     0.94792   0.03736   0.56546   0.00000  Uiso   1.00
H598   H     0.96166   0.03704   0.50716   0.00000  Uiso   1.00
Cl599  Cl    0.90798   0.22833   0.39366   0.00000  Uiso   1.00
Cl600  Cl    0.75869   0.10501   0.60634   0.00000  Uiso   1.00
C601   C     0.16693   0.42023   0.50012   0.00000  Uiso   1.00
C602   C     0.16640   0.57977   0.49988   0.00000  Uiso   1.00
C603   C     0.06711   0.49969   0.48809   0.00000  Uiso   1.00
C604   C     0.26623   0.50031   0.51191   0.00000  Uiso   1.00
C605   C     0.01206   0.49957   0.48169   0.00000  Uiso   1.00
C606   C     0.32127   0.50043   0.51831   0.00000  Uiso   1.00
C607   C     0.11911   0.35536   0.48557   0.00000  Uiso   1.00
C608   C     0.21422   0.64464   0.51443   0.00000  Uiso   1.00
C609   C     0.11861   0.64497   0.48532   0.00000  Uiso   1.00
C610   C     0.21472   0.35503   0.51468   0.00000  Uiso   1.00
C611   C     0.16628   0.62397   0.49971   0.00000  Uiso   1.00
C612   C     0.16705   0.37603   0.50029   0.00000  Uiso   1.00
C613   C     0.19888   0.52658   0.36086   0.00000  Uiso   1.00
C614   C     0.13445   0.47342   0.63914   0.00000  Uiso   1.00
C615   C     0.19875   0.52647   0.64641   0.00000  Uiso   1.00
C616   C     0.13458   0.47353   0.35359   0.00000  Uiso   1.00
H617   H     0.32489   0.49877   0.44693   0.00000  Uiso   1.00
H618   H     0.00845   0.50124   0.55307   0.00000  Uiso   1.00
H619   H     0.22438   0.54761   0.63123   0.00000  Uiso   1.00
H620   H     0.10895   0.45239   0.36877   0.00000  Uiso   1.00
N621   N     0.16665   0.49999   0.61907   0.00000  Uiso   1.00
N622   N     0.16668   0.50001   0.38093   0.00000  Uiso   1.00
O623   O     0.16666   0.43892   0.53821   0.00000  Uiso   1.00
O624   O     0.16667   0.56108   0.46179   0.00000  Uiso   1.00
O625   O     0.16666   0.43893   0.46176   0.00000  Uiso   1.00
O626   O     0.16667   0.56107   0.53824   0.00000  Uiso   1.00
O627   O     0.09058   0.50000   0.52928   0.00000  Uiso   1.00
O628   O     0.24275   0.50000   0.47072   0.00000  Uiso   1.00
O629   O     0.09058   0.50000   0.45284   0.00000  Uiso   1.00
O630   O     0.24275   0.50000   0.54716   0.00000  Uiso   1.00
Zn631  Zn    0.16667   0.49999   0.55104   0.00000  Uiso   1.00
Zn632  Zn    0.16667   0.50001   0.44896   0.00000  Uiso   1.00
C633   C     0.06947   0.38086   0.47096   0.00000  Uiso   1.00
H634   H     0.07487   0.40127   0.44156   0.00000  Uiso   1.00
H635   H     0.03370   0.36199   0.46024   0.00000  Uiso   1.00
H636   H     0.06145   0.40083   0.49967   0.00000  Uiso   1.00
C637   C     0.26386   0.61914   0.52904   0.00000  Uiso   1.00
H638   H     0.25846   0.59873   0.55844   0.00000  Uiso   1.00
H639   H     0.27189   0.59917   0.50033   0.00000  Uiso   1.00
H640   H     0.29964   0.63801   0.53976   0.00000  Uiso   1.00
C641   C     0.06755   0.62125   0.47045   0.00000  Uiso   1.00
H642   H     0.07127   0.58677   0.47220   0.00000  Uiso   1.00
H643   H     0.03834   0.62963   0.49284   0.00000  Uiso   1.00
H644   H     0.05208   0.62930   0.43454   0.00000  Uiso   1.00
C645   C     0.26578   0.37875   0.52955   0.00000  Uiso   1.00
H646   H     0.26207   0.41323   0.52780   0.00000  Uiso   1.00
H647   H     0.28125   0.37070   0.56546   0.00000  Uiso   1.00
H648   H     0.29500   0.37037   0.50716   0.00000  Uiso   1.00
Cl649  Cl    0.24131   0.56166   0.39366   0.00000  Uiso   1.00
Cl650  Cl    0.09203   0.43834   0.60634   0.00000  Uiso   1.00
C651   C     0.50026   0.42023   0.50012   0.00000  Uiso   1.00
C652   C     0.49974   0.57977   0.49988   0.00000  Uiso   1.00
C653   C     0.40044   0.49969   0.48809   0.00000  Uiso   1.00
C654   C     0.59956   0.50031   0.51191   0.00000  Uiso   1.00
C655   C     0.34540   0.49957   0.48169   0.00000  Uiso   1.00
C656   C     0.65460   0.50043   0.51831   0.00000  Uiso   1.00
C657   C     0.45245   0.35536   0.48557   0.00000  Uiso   1.00
C658   C     0.54755   0.64464   0.51443   0.00000  Uiso   1.00
C659   C     0.45195   0.64497   0.48532   0.00000  Uiso   1.00
C660   C     0.54805   0.35503   0.51468   0.00000  Uiso   1.00
C661   C     0.49961   0.62397   0.49971   0.00000  Uiso   1.00
C662   C     0.50039   0.37603   0.50029   0.00000  Uiso   1.00
C663   C     0.53222   0.52658   0.36086   0.00000  Uiso   1.00
C664   C     0.46778   0.47342   0.63914   0.00000  Uiso   1.00
C665   C     0.53209   0.52647   0.64641   0.00000  Uiso   1.00
C666   C     0.46791   0.47353   0.35359   0.00000  Uiso   1.00
H667   H     0.65822   0.49877   0.44693   0.00000  Uiso   1.00
H668   H     0.34178   0.50124   0.55307   0.00000  Uiso   1.00
H669   H     0.55772   0.54761   0.63123   0.00000  Uiso   1.00
H670   H     0.44228   0.45239   0.36877   0.00000  Uiso   1.00
N671   N     0.49999   0.49999   0.61907   0.00000  Uiso   1.00
N672   N     0.50001   0.50001   0.38093   0.00000  Uiso   1.00
O673   O     0.50000   0.43892   0.53821   0.00000  Uiso   1.00
O674   O     0.50000   0.56108   0.46179   0.00000  Uiso   1.00
O675   O     0.50000   0.43893   0.46176   0.00000  Uiso   1.00
O676   O     0.50000   0.56107   0.53824   0.00000  Uiso   1.00
O677   O     0.42392   0.50000   0.52928   0.00000  Uiso   1.00
O678   O     0.57608   0.50000   0.47072   0.00000  Uiso   1.00
O679   O     0.42392   0.50000   0.45284   0.00000  Uiso   1.00
O680   O     0.57608   0.50000   0.54716   0.00000  Uiso   1.00
Zn681  Zn    0.50000   0.49999   0.55104   0.00000  Uiso   1.00
Zn682  Zn    0.50000   0.50001   0.44896   0.00000  Uiso   1.00
C683   C     0.40281   0.38086   0.47096   0.00000  Uiso   1.00
H684   H     0.40821   0.40127   0.44156   0.00000  Uiso   1.00
H685   H     0.36703   0.36199   0.46024   0.00000  Uiso   1.00
H686   H     0.39478   0.40083   0.49967   0.00000  Uiso   1.00
C687   C     0.59719   0.61914   0.52904   0.00000  Uiso   1.00
H688   H     0.59180   0.59873   0.55844   0.00000  Uiso   1.00
H689   H     0.60522   0.59917   0.50033   0.00000  Uiso   1.00
H690   H     0.63297   0.63801   0.53976   0.00000  Uiso   1.00
C691   C     0.40089   0.62125   0.47045   0.00000  Uiso   1.00
H692   H     0.40460   0.58677   0.47220   0.00000  Uiso   1.00
H693   H     0.37167   0.62963   0.49284   0.00000  Uiso   1.00
H694   H     0.38542   0.62930   0.43454   0.00000  Uiso   1.00
C695   C     0.59911   0.37875   0.52955   0.00000  Uiso   1.00
H696   H     0.59540   0.41323   0.52780   0.00000  Uiso   1.00
H697   H     0.61458   0.37070   0.56546   0.00000  Uiso   1.00
H698   H     0.62833   0.37037   0.50716   0.00000  Uiso   1.00
Cl699  Cl    0.57464   0.56166   0.39366   0.00000  Uiso   1.00
Cl700  Cl    0.42536   0.43834   0.60634   0.00000  Uiso   1.00
C701   C     0.83360   0.42023   0.50012   0.00000  Uiso   1.00
C702   C     0.83307   0.57977   0.49988   0.00000  Uiso   1.00
C703   C     0.73377   0.49969   0.48809   0.00000  Uiso   1.00
C704   C     0.93290   0.50031   0.51191   0.00000  Uiso   1.00
C705   C     0.67873   0.49957   0.48169   0.00000  Uiso   1.00
C706   C     0.98794   0.50043   0.51831   0.00000  Uiso   1.00
C707   C     0.78578   0.35536   0.48557   0.00000  Uiso   1.00
C708   C     0.88089   0.64464   0.51443   0.00000  Uiso   1.00
C709   C     0.78528   0.64497   0.48532   0.00000  Uiso   1.00
C710   C     0.88139   0.35503   0.51468   0.00000  Uiso   1.00
C711   C     0.83295   0.62397   0.49971   0.00000  Uiso   1.00
C712   C     0.83372   0.37603   0.50029   0.00000  Uiso   1.00
C713   C     0.86555   0.52658   0.36086   0.00000  Uiso   1.00
C714   C     0.80112   0.47342   0.63914   0.00000  Uiso   1.00
C715   C     0.86542   0.52647   0.64641   0.00000  Uiso   1.00
C716   C     0.80125   0.47353   0.35359   0.00000  Uiso   1.00
H717   H     0.99155   0.49877   0.44693   0.00000  Uiso   1.00
H718   H     0.67511   0.50124   0.55307   0.00000  Uiso   1.00
H719   H     0.89105   0.54761   0.63123   0.00000  Uiso   1.00
H720   H     0.77562   0.45239   0.36877   0.00000  Uiso   1.00
N721   N     0.83332   0.49999   0.61907   0.00000  Uiso   1.00
N722   N     0.83335   0.50001   0.38093   0.00000  Uiso   1.00
O723   O     0.83333   0.43892   0.53821   0.00000  Uiso   1.00
O724   O     0.83334   0.56108   0.46179   0.00000  Uiso   1.00
O725   O     0.83333   0.43893   0.46176   0.00000  Uiso   1.00
O726   O     0.83334   0.56107   0.53824   0.00000  Uiso   1.00
O727   O     0.75725   0.50000   0.52928   0.00000  Uiso   1.00
O728   O     0.90942   0.50000   0.47072   0.00000  Uiso   1.00
O729   O     0.75725   0.50000   0.45284   0.00000  Uiso   1.00
O730   O     0.90942   0.50000   0.54716   0.00000  Uiso   1.00
Zn731  Zn    0.83333   0.49999   0.55104   0.00000  Uiso   1.00
Zn732  Zn    0.83333   0.50001   0.44896   0.00000  Uiso   1.00
C733   C     0.73614   0.38086   0.47096   0.00000  Uiso   1.00
H734   H     0.74154   0.40127   0.44156   0.00000  Uiso   1.00
H735   H     0.70037   0.36199   0.46024   0.00000  Uiso   1.00
H736   H     0.72811   0.40083   0.49967   0.00000  Uiso   1.00
C737   C     0.93053   0.61914   0.52904   0.00000  Uiso   1.00
H738   H     0.92513   0.59873   0.55844   0.00000  Uiso   1.00
H739   H     0.93855   0.59917   0.50033   0.00000  Uiso   1.00
H740   H     0.96630   0.63801   0.53976   0.00000  Uiso   1.00
C741   C     0.73422   0.62125   0.47045   0.00000  Uiso   1.00
H742   H     0.73793   0.58677   0.47220   0.00000  Uiso   1.00
H743   H     0.70500   0.62963   0.49284   0.00000  Uiso   1.00
H744   H     0.71875   0.62930   0.43454   0.00000  Uiso   1.00
C745   C     0.93245   0.37875   0.52955   0.00000  Uiso   1.00
H746   H     0.92873   0.41323   0.52780   0.00000  Uiso   1.00
H747   H     0.94792   0.37070   0.56546   0.00000  Uiso   1.00
H748   H     0.96166   0.37037   0.50716   0.00000  Uiso   1.00
Cl749  Cl    0.90798   0.56166   0.39366   0.00000  Uiso   1.00
Cl750  Cl    0.75869   0.43834   0.60634   0.00000  Uiso   1.00
C751   C     0.16693   0.75357   0.50012   0.00000  Uiso   1.00
C752   C     0.16640   0.91310   0.49988   0.00000  Uiso   1.00
C753   C     0.06711   0.83302   0.48809   0.00000  Uiso   1.00
C754   C     0.26623   0.83364   0.51191   0.00000  Uiso   1.00
C755   C     0.01206   0.83290   0.48169   0.00000  Uiso   1.00
C756   C     0.32127   0.83377   0.51831   0.00000  Uiso   1.00
C757   C     0.11911   0.68869   0.48557   0.00000  Uiso   1.00
C758   C     0.21422   0.97797   0.51443   0.00000  Uiso   1.00
C759   C     0.11861   0.97830   0.48532   0.00000  Uiso   1.00
C760   C     0.21472   0.68837   0.51468   0.00000  Uiso   1.00
C761   C     0.16628   0.95731   0.49971   0.00000  Uiso   1.00
C762   C     0.16705   0.70936   0.50029   0.00000  Uiso   1.00
C763   C     0.19888   0.85991   0.36086   0.00000  Uiso   1.00
C764   C     0.13445   0.80675   0.63914   0.00000  Uiso   1.00
C765   C     0.19875   0.85980   0.64641   0.00000  Uiso   1.00
C766   C     0.13458   0.80687   0.35359   0.00000  Uiso   1.00
H767   H     0.32489   0.83210   0.44693   0.00000  Uiso   1.00
H768   H     0.00845   0.83457   0.55307   0.00000  Uiso   1.00
H769   H     0.22438   0.88094   0.63123   0.00000  Uiso   1.00
H770   H     0.10895   0.78573   0.36877   0.00000  Uiso   1.00
N771   N     0.16665   0.83332   0.61907   0.00000  Uiso   1.00
N772   N     0.16668   0.83334   0.38093   0.00000  Uiso   1.00
O773   O     0.16666   0.77225   0.53821   0.00000  Uiso   1.00
O774   O     0.16667   0.89442   0.46179   0.00000  Uiso   1.00
O775   O     0.16666   0.77226   0.46176   0.00000  Uiso   1.00
O776   O     0.16667   0.89441   0.53824   0.00000  Uiso   1.00
O777   O     0.09058   0.83333   0.52928   0.00000  Uiso   1.00
O778   O     0.24275   0.83334   0.47072   0.00000  Uiso   1.00
O779   O     0.09058   0.83334   0.45284   0.00000  Uiso   1.00
O780   O     0.24275   0.83333   0.54716   0.00000  Uiso   1.00
Zn781  Zn    0.16667   0.83333   0.55104   0.00000  Uiso   1.00
Zn782  Zn    0.16667   0.83334   0.44896   0.00000  Uiso   1.00
C783   C     0.06947   0.71419   0.47096   0.00000  Uiso   1.00
H784   H     0.07487   0.73460   0.44156   0.00000  Uiso   1.00
H785   H     0.03370   0.69533   0.46024   0.00000  Uiso   1.00
H786   H     0.06145   0.73416   0.49967   0.00000  Uiso   1.00
C787   C     0.26386   0.95247   0.52904   0.00000  Uiso   1.00
H788   H     0.25846   0.93207   0.55844   0.00000  Uiso   1.00
H789   H     0.27189   0.93250   0.50033   0.00000  Uiso   1.00
H790   H     0.29964   0.97134   0.53976   0.00000  Uiso   1.00
C791   C     0.06755   0.95458   0.47045   0.00000  Uiso   1.00
H792   H     0.07127   0.92010   0.47220   0.00000  Uiso   1.00
H793   H     0.03834   0.96296   0.49284   0.00000  Uiso   1.00
H794   H     0.05208   0.96264   0.43454   0.00000  Uiso   1.00
C795   C     0.26578   0.71208   0.52955   0.00000  Uiso   1.00
H796   H     0.26207   0.74656   0.52780   0.00000  Uiso   1.00
H797   H     0.28125   0.70403   0.56546   0.00000  Uiso   1.00
H798   H     0.29500   0.70370   0.50716   0.00000  Uiso   1.00
Cl799  Cl    0.24131   0.89499   0.39366   0.00000  Uiso   1.00
Cl800  Cl    0.09203   0.77167   0.60634   0.00000  Uiso   1.00
C801   C     0.50026   0.75357   0.50012   0.00000  Uiso   1.00
C802   C     0.49974   0.91310   0.49988   0.00000  Uiso   1.00
C803   C     0.40044   0.83302   0.48809   0.00000  Uiso   1.00
C804   C     0.59956   0.83364   0.51191   0.00000  Uiso   1.00
C805   C     0.34540   0.83290   0.48169   0.00000  Uiso   1.00
C806   C     0.65460   0.83377   0.51831   0.00000  Uiso   1.00
C807   C     0.45245   0.68869   0.48557   0.00000  Uiso   1.00
C808   C     0.54755   0.97797   0.51443   0.00000  Uiso   1.00
C809   C     0.45195   0.97830   0.48532   0.00000  Uiso   1.00
C810   C     0.54805   0.68837   0.51468   0.00000  Uiso   1.00
C811   C     0.49961   0.95731   0.49971   0.00000  Uiso   1.00
C812   C     0.50039   0.70936   0.50029   0.00000  Uiso   1.00
C813   C     0.53222   0.85991   0.36086   0.00000  Uiso   1.00
C814   C     0.46778   0.80675   0.63914   0.00000  Uiso   1.00
C815   C     0.53209   0.85980   0.64641   0.00000  Uiso   1.00
C816   C     0.46791   0.80687   0.35359   0.00000  Uiso   1.00
H817   H     0.65822   0.83210   0.44693   0.00000  Uiso   1.00
H818   H     0.34178   0.83457   0.55307   0.00000  Uiso   1.00
H819   H     0.55772   0.88094   0.63123   0.00000  Uiso   1.00
H820   H     0.44228   0.78573   0.36877   0.00000  Uiso   1.00
N821   N     0.49999   0.83332   0.61907   0.00000  Uiso   1.00
N822   N     0.50001   0.83334   0.38093   0.00000  Uiso   1.00
O823   O     0.50000   0.77225   0.53821   0.00000  Uiso   1.00
O824   O     0.50000   0.89442   0.46179   0.00000  Uiso   1.00
O825   O     0.50000   0.77226   0.46176   0.00000  Uiso   1.00
O826   O     0.50000   0.89441   0.53824   0.00000  Uiso   1.00
O827   O     0.42392   0.83333   0.52928   0.00000  Uiso   1.00
O828   O     0.57608   0.83334   0.47072   0.00000  Uiso   1.00
O829   O     0.42392   0.83334   0.45284   0.00000  Uiso   1.00
O830   O     0.57608   0.83333   0.54716   0.00000  Uiso   1.00
Zn831  Zn    0.50000   0.83333   0.55104   0.00000  Uiso   1.00
Zn832  Zn    0.50000   0.83334   0.44896   0.00000  Uiso   1.00
C833   C     0.40281   0.71419   0.47096   0.00000  Uiso   1.00
H834   H     0.40821   0.73460   0.44156   0.00000  Uiso   1.00
H835   H     0.36703   0.69533   0.46024   0.00000  Uiso   1.00
H836   H     0.39478   0.73416   0.49967   0.00000  Uiso   1.00
C837   C     0.59719   0.95247   0.52904   0.00000  Uiso   1.00
H838   H     0.59180   0.93207   0.55844   0.00000  Uiso   1.00
H839   H     0.60522   0.93250   0.50033   0.00000  Uiso   1.00
H840   H     0.63297   0.97134   0.53976   0.00000  Uiso   1.00
C841   C     0.40089   0.95458   0.47045   0.00000  Uiso   1.00
H842   H     0.40460   0.92010   0.47220   0.00000  Uiso   1.00
H843   H     0.37167   0.96296   0.49284   0.00000  Uiso   1.00
H844   H     0.38542   0.96264   0.43454   0.00000  Uiso   1.00
C845   C     0.59911   0.71208   0.52955   0.00000  Uiso   1.00
H846   H     0.59540   0.74656   0.52780   0.00000  Uiso   1.00
H847   H     0.61458   0.70403   0.56546   0.00000  Uiso   1.00
H848   H     0.62833   0.70370   0.50716   0.00000  Uiso   1.00
Cl849  Cl    0.57464   0.89499   0.39366   0.00000  Uiso   1.00
Cl850  Cl    0.42536   0.77167   0.60634   0.00000  Uiso   1.00
C851   C     0.83360   0.75357   0.50012   0.00000  Uiso   1.00
C852   C     0.83307   0.91310   0.49988   0.00000  Uiso   1.00
C853   C     0.73377   0.83302   0.48809   0.00000  Uiso   1.00
C854   C     0.93290   0.83364   0.51191   0.00000  Uiso   1.00
C855   C     0.67873   0.83290   0.48169   0.00000  Uiso   1.00
C856   C     0.98794   0.83377   0.51831   0.00000  Uiso   1.00
C857   C     0.78578   0.68869   0.48557   0.00000  Uiso   1.00
C858   C     0.88089   0.97797   0.51443   0.00000  Uiso   1.00
C859   C     0.78528   0.97830   0.48532   0.00000  Uiso   1.00
C860   C     0.88139   0.68837   0.51468   0.00000  Uiso   1.00
C861   C     0.83295   0.95731   0.49971   0.00000  Uiso   1.00
C862   C     0.83372   0.70936   0.50029   0.00000  Uiso   1.00
C863   C     0.86555   0.85991   0.36086   0.00000  Uiso   1.00
C864   C     0.80112   0.80675   0.63914   0.00000  Uiso   1.00
C865   C     0.86542   0.85980   0.64641   0.00000  Uiso   1.00
C866   C     0.80125   0.80687   0.35359   0.00000  Uiso   1.00
H867   H     0.99155   0.83210   0.44693   0.00000  Uiso   1.00
H868   H     0.67511   0.83457   0.55307   0.00000  Uiso   1.00
H869   H     0.89105   0.88094   0.63123   0.00000  Uiso   1.00
H870   H     0.77562   0.78573   0.36877   0.00000  Uiso   1.00
N871   N     0.83332   0.83332   0.61907   0.00000  Uiso   1.00
N872   N     0.83335   0.83334   0.38093   0.00000  Uiso   1.00
O873   O     0.83333   0.77225   0.53821   0.00000  Uiso   1.00
O874   O     0.83334   0.89442   0.46179   0.00000  Uiso   1.00
O875   O     0.83333   0.77226   0.46176   0.00000  Uiso   1.00
O876   O     0.83334   0.89441   0.53824   0.00000  Uiso   1.00
O877   O     0.75725   0.83333   0.52928   0.00000  Uiso   1.00
O878   O     0.90942   0.83334   0.47072   0.00000  Uiso   1.00
O879   O     0.75725   0.83334   0.45284   0.00000  Uiso   1.00
O880   O     0.90942   0.83333   0.54716   0.00000  Uiso   1.00
Zn881  Zn    0.83333   0.83333   0.55104   0.00000  Uiso   1.00
Zn882  Zn    0.83333   0.83334   0.44896   0.00000  Uiso   1.00
C883   C     0.73614   0.71419   0.47096   0.00000  Uiso   1.00
H884   H     0.74154   0.73460   0.44156   0.00000  Uiso   1.00
H885   H     0.70037   0.69533   0.46024   0.00000  Uiso   1.00
H886   H     0.72811   0.73416   0.49967   0.00000  Uiso   1.00
C887   C     0.93053   0.95247   0.52904   0.00000  Uiso   1.00
H888   H     0.92513   0.93207   0.55844   0.00000  Uiso   1.00
H889   H     0.93855   0.93250   0.50033   0.00000  Uiso   1.00
H890   H     0.96630   0.97134   0.53976   0.00000  Uiso   1.00
C891   C     0.73422   0.95458   0.47045   0.00000  Uiso   1.00
H892   H     0.73793   0.92010   0.47220   0.00000  Uiso   1.00
H893   H     0.70500   0.96296   0.49284   0.00000  Uiso   1.00
H894   H     0.71875   0.96264   0.43454   0.00000  Uiso   1.00
C895   C     0.93245   0.71208   0.52955   0.00000  Uiso   1.00
H896   H     0.92873   0.74656   0.52780   0.00000  Uiso   1.00
H897   H     0.94792   0.70403   0.56546   0.00000  Uiso   1.00
H898   H     0.96166   0.70370   0.50716   0.00000  Uiso   1.00
Cl899  Cl    0.90798   0.89499   0.39366   0.00000  Uiso   1.00
Cl900  Cl    0.75869   0.77167   0.60634   0.00000  Uiso   1.00
C901   C     0.16693   0.08690   0.83345   0.00000  Uiso   1.00
C902   C     0.16640   0.24643   0.83321   0.00000  Uiso   1.00
C903   C     0.06711   0.16636   0.82143   0.00000  Uiso   1.00
C904   C     0.26623   0.16698   0.84524   0.00000  Uiso   1.00
C905   C     0.01206   0.16623   0.81503   0.00000  Uiso   1.00
C906   C     0.32127   0.16710   0.85164   0.00000  Uiso   1.00
C907   C     0.11911   0.02203   0.81891   0.00000  Uiso   1.00
C908   C     0.21422   0.31131   0.84776   0.00000  Uiso   1.00
C909   C     0.11861   0.31163   0.81865   0.00000  Uiso   1.00
C910   C     0.21472   0.02170   0.84801   0.00000  Uiso   1.00
C911   C     0.16628   0.29064   0.83304   0.00000  Uiso   1.00
C912   C     0.16705   0.04269   0.83363   0.00000  Uiso   1.00
C913   C     0.19888   0.19325   0.69419   0.00000  Uiso   1.00
C914   C     0.13445   0.14009   0.97248   0.00000  Uiso   1.00
C915   C     0.19875   0.19313   0.97974   0.00000  Uiso   1.00
C916   C     0.13458   0.14020   0.68692   0.00000  Uiso   1.00
H917   H     0.32489   0.16543   0.78026   0.00000  Uiso   1.00
H918   H     0.00845   0.16790   0.88640   0.00000  Uiso   1.00
H919   H     0.22438   0.21427   0.96457   0.00000  Uiso   1.00
H920   H     0.10895   0.11906   0.70210   0.00000  Uiso   1.00
N921   N     0.16665   0.16666   0.95240   0.00000  Uiso   1.00
N922   N     0.16668   0.16668   0.71427   0.00000  Uiso   1.00
O923   O     0.16666   0.10558   0.87154   0.00000  Uiso   1.00
O924   O     0.16667   0.22775   0.79513   0.00000  Uiso   1.00
O925   O     0.16666   0.10559   0.79510   0.00000  Uiso   1.00
O926   O     0.16667   0.22774   0.87157   0.00000  Uiso   1.00
O927   O     0.09058   0.16666   0.86261   0.00000  Uiso   1.00
O928   O     0.24275   0.16667   0.80405   0.00000  Uiso   1.00
O929   O     0.09058   0.16667   0.78617   0.00000  Uiso   1.00
O930   O     0.24275   0.16666   0.88050   0.00000  Uiso   1.00
Zn931  Zn    0.16667   0.16666   0.88437   0.00000  Uiso   1.00
Zn932  Zn    0.16667   0.16667   0.78229   0.00000  Uiso   1.00
C933   C     0.06947   0.04753   0.80430   0.00000  Uiso   1.00
H934   H     0.07487   0.06793   0.77490   0.00000  Uiso   1.00
H935   H     0.03370   0.02866   0.79357   0.00000  Uiso   1.00
H936   H     0.06145   0.06750   0.83300   0.00000  Uiso   1.00
C937   C     0.26386   0.28581   0.86237   0.00000  Uiso   1.00
H938   H     0.25846   0.26540   0.89177   0.00000  Uiso   1.00
H939   H     0.27189   0.26584   0.83367   0.00000  Uiso   1.00
H940   H     0.29964   0.30467   0.87310   0.00000  Uiso   1.00
C941   C     0.06755   0.28792   0.80378   0.00000  Uiso   1.00
H942   H     0.07127   0.25344   0.80553   0.00000  Uiso   1.00
H943   H     0.03834   0.29630   0.82617   0.00000  Uiso   1.00
H944   H     0.05208   0.29597   0.76787   0.00000  Uiso   1.00
C945   C     0.26578   0.04542   0.86289   0.00000  Uiso   1.00
H946   H     0.26207   0.07990   0.86114   0.00000  Uiso   1.00
H947   H     0.28125   0.03736   0.89879   0.00000  Uiso   1.00
H948   H     0.29500   0.03704   0.84049   0.00000  Uiso   1.00
Cl949  Cl    0.24131   0.22833   0.72699   0.00000  Uiso   1.00
Cl950  Cl    0.09203   0.10501   0.93967   0.00000  Uiso   1.00
C951   C     0.50026   0.08690   0.83345   0.00000  Uiso   1.00
C952   C     0.49974   0.24643   0.83321   0.00000  Uiso   1.00
C953   C     0.40044   0.16636   0.82143   0.00000  Uiso   1.00
C954   C     0.59956   0.16698   0.84524   0.00000  Uiso   1.00
C955   C     0.34540   0.16623   0.81503   0.00000  Uiso   1.00
C956   C     0.65460   0.16710   0.85164   0.00000  Uiso   1.00
C957   C     0.45245   0.02203   0.81891   0.00000  Uiso   1.00
C958   C     0.54755   0.31131   0.84776   0.00000  Uiso   1.00
C959   C     0.45195   0.31163   0.81865   0.00000  Uiso   1.00
C960   C     0.54805   0.02170   0.84801   0.00000  Uiso   1.00
C961   C     0.49961   0.29064   0.83304   0.00000  Uiso   1.00
C962   C     0.50039   0.04269   0.83363   0.00000  Uiso   1.00
C963   C     0.53222   0.19325   0.69419   0.00000  Uiso   1.00
C964   C     0.46778   0.14009   0.97248   0.00000  Uiso   1.00
C965   C     0.53209   0.19313   0.97974   0.00000  Uiso   1.00
C966   C     0.46791   0.14020   0.68692   0.00000  Uiso   1.00
H967   H     0.65822   0.16543   0.78026   0.00000  Uiso   1.00
H968   H     0.34178   0.16790   0.88640   0.00000  Uiso   1.00
H969   H     0.55772   0.21427   0.96457   0.00000  Uiso   1.00
H970   H     0.44228   0.11906   0.70210   0.00000  Uiso   1.00
N971   N     0.49999   0.16666   0.95240   0.00000  Uiso   1.00
N972   N     0.50001   0.16668   0.71427   0.00000  Uiso   1.00
O973   O     0.50000   0.10558   0.87154   0.00000  Uiso   1.00
O974   O     0.50000   0.22775   0.79513   0.00000  Uiso   1.00
O975   O     0.50000   0.10559   0.79510   0.00000  Uiso   1.00
O976   O     0.50000   0.22774   0.87157   0.00000  Uiso   1.00
O977   O     0.42392   0.16666   0.86261   0.00000  Uiso   1.00
O978   O     0.57608   0.16667   0.80405   0.00000  Uiso   1.00
O979   O     0.42392   0.16667   0.78617   0.00000  Uiso   1.00
O980   O     0.57608   0.16666   0.88050   0.00000  Uiso   1.00
Zn981  Zn    0.50000   0.16666   0.88437   0.00000  Uiso   1.00
Zn982  Zn    0.50000   0.16667   0.78229   0.00000  Uiso   1.00
C983   C     0.40281   0.04753   0.80430   0.00000  Uiso   1.00
H984   H     0.40821   0.06793   0.77490   0.00000  Uiso   1.00
H985   H     0.36703   0.02866   0.79357   0.00000  Uiso   1.00
H986   H     0.39478   0.06750   0.83300   0.00000  Uiso   1.00
C987   C     0.59719   0.28581   0.86237   0.00000  Uiso   1.00
H988   H     0.59180   0.26540   0.89177   0.00000  Uiso   1.00
H989   H     0.60522   0.26584   0.83367   0.00000  Uiso   1.00
H990   H     0.63297   0.30467   0.87310   0.00000  Uiso   1.00
C991   C     0.40089   0.28792   0.80378   0.00000  Uiso   1.00
H992   H     0.40460   0.25344   0.80553   0.00000  Uiso   1.00
H993   H     0.37167   0.29630   0.82617   0.00000  Uiso   1.00
H994   H     0.38542   0.29597   0.76787   0.00000  Uiso   1.00
C995   C     0.59911   0.04542   0.86289   0.00000  Uiso   1.00
H996   H     0.59540   0.07990   0.86114   0.00000  Uiso   1.00
H997   H     0.61458   0.03736   0.89879   0.00000  Uiso   1.00
H998   H     0.62833   0.03704   0.84049   0.00000  Uiso   1.00
Cl999  Cl    0.57464   0.22833   0.72699   0.00000  Uiso   1.00
Cl1000 Cl    0.42536   0.10501   0.93967   0.00000  Uiso   1.00
C1001  C     0.83360   0.08690   0.83345   0.00000  Uiso   1.00
C1002  C     0.83307   0.24643   0.83321   0.00000  Uiso   1.00
C1003  C     0.73377   0.16636   0.82143   0.00000  Uiso   1.00
C1004  C     0.93290   0.16698   0.84524   0.00000  Uiso   1.00
C1005  C     0.67873   0.16623   0.81503   0.00000  Uiso   1.00
C1006  C     0.98794   0.16710   0.85164   0.00000  Uiso   1.00
C1007  C     0.78578   0.02203   0.81891   0.00000  Uiso   1.00
C1008  C     0.88089   0.31131   0.84776   0.00000  Uiso   1.00
C1009  C     0.78528   0.31163   0.81865   0.00000  Uiso   1.00
C1010  C     0.88139   0.02170   0.84801   0.00000  Uiso   1.00
C1011  C     0.83295   0.29064   0.83304   0.00000  Uiso   1.00
C1012  C     0.83372   0.04269   0.83363   0.00000  Uiso   1.00
C1013  C     0.86555   0.19325   0.69419   0.00000  Uiso   1.00
C1014  C     0.80112   0.14009   0.97248   0.00000  Uiso   1.00
C1015  C     0.86542   0.19313   0.97974   0.00000  Uiso   1.00
C1016  C     0.80125   0.14020   0.68692   0.00000  Uiso   1.00
H1017  H     0.99155   0.16543   0.78026   0.00000  Uiso   1.00
H1018  H     0.67511   0.16790   0.88640   0.00000  Uiso   1.00
H1019  H     0.89105   0.21427   0.96457   0.00000  Uiso   1.00
H1020  H     0.77562   0.11906   0.70210   0.00000  Uiso   1.00
N1021  N     0.83332   0.16666   0.95240   0.00000  Uiso   1.00
N1022  N     0.83335   0.16668   0.71427   0.00000  Uiso   1.00
O1023  O     0.83333   0.10558   0.87154   0.00000  Uiso   1.00
O1024  O     0.83334   0.22775   0.79513   0.00000  Uiso   1.00
O1025  O     0.83333   0.10559   0.79510   0.00000  Uiso   1.00
O1026  O     0.83334   0.22774   0.87157   0.00000  Uiso   1.00
O1027  O     0.75725   0.16666   0.86261   0.00000  Uiso   1.00
O1028  O     0.90942   0.16667   0.80405   0.00000  Uiso   1.00
O1029  O     0.75725   0.16667   0.78617   0.00000  Uiso   1.00
O1030  O     0.90942   0.16666   0.88050   0.00000  Uiso   1.00
Zn1031 Zn    0.83333   0.16666   0.88437   0.00000  Uiso   1.00
Zn1032 Zn    0.83333   0.16667   0.78229   0.00000  Uiso   1.00
C1033  C     0.73614   0.04753   0.80430   0.00000  Uiso   1.00
H1034  H     0.74154   0.06793   0.77490   0.00000  Uiso   1.00
H1035  H     0.70037   0.02866   0.79357   0.00000  Uiso   1.00
H1036  H     0.72811   0.06750   0.83300   0.00000  Uiso   1.00
C1037  C     0.93053   0.28581   0.86237   0.00000  Uiso   1.00
H1038  H     0.92513   0.26540   0.89177   0.00000  Uiso   1.00
H1039  H     0.93855   0.26584   0.83367   0.00000  Uiso   1.00
H1040  H     0.96630   0.30467   0.87310   0.00000  Uiso   1.00
C1041  C     0.73422   0.28792   0.80378   0.00000  Uiso   1.00
H1042  H     0.73793   0.25344   0.80553   0.00000  Uiso   1.00
H1043  H     0.70500   0.29630   0.82617   0.00000  Uiso   1.00
H1044  H     0.71875   0.29597   0.76787   0.00000  Uiso   1.00
C1045  C     0.93245   0.04542   0.86289   0.00000  Uiso   1.00
H1046  H     0.92873   0.07990   0.86114   0.00000  Uiso   1.00
H1047  H     0.94792   0.03736   0.89879   0.00000  Uiso   1.00
H1048  H     0.96166   0.03704   0.84049   0.00000  Uiso   1.00
Cl1049 Cl    0.90798   0.22833   0.72699   0.00000  Uiso   1.00
Cl1050 Cl    0.75869   0.10501   0.93967   0.00000  Uiso   1.00
C1051  C     0.16693   0.42023   0.83345   0.00000  Uiso   1.00
C1052  C     0.16640   0.57977   0.83321   0.00000  Uiso   1.00
C1053  C     0.06711   0.49969   0.82143   0.00000  Uiso   1.00
C1054  C     0.26623   0.50031   0.84524   0.00000  Uiso   1.00
C1055  C     0.01206   0.49957   0.81503   0.00000  Uiso   1.00
C1056  C     0.32127   0.50043   0.85164   0.00000  Uiso   1.00
C1057  C     0.11911   0.35536   0.81891   0.00000  Uiso   1.00
C1058  C     0.21422   0.64464   0.84776   0.00000  Uiso   1.00
C1059  C     0.11861   0.64497   0.81865   0.00000  Uiso   1.00
C1060  C     0.21472   0.35503   0.84801   0.00000  Uiso   1.00
C1061  C     0.16628   0.62397   0.83304   0.00000  Uiso   1.00
C1062  C     0.16705   0.37603   0.83363   0.00000  Uiso   1.00
C1063  C     0.19888   0.52658   0.69419   0.00000  Uiso   1.00
C1064  C     0.13445   0.47342   0.97248   0.00000  Uiso   1.00
C1065  C     0.19875   0.52647   0.97974   0.00000  Uiso   1.00
C1066  C     0.13458   0.47353   0.68692   0.00000  Uiso   1.00
H1067  H     0.32489   0.49877   0.78026   0.00000  Uiso   1.00
H1068  H     0.00845   0.50124   0.88640   0.00000  Uiso   1.00
H1069  H     0.22438   0.54761   0.96457   0.00000  Uiso   1.00
H1070  H     0.10895   0.45239   0.70210   0.00000  Uiso   1.00
N1071  N     0.16665   0.49999   0.95240   0.00000  Uiso   1.00
N1072  N     0.16668   0.50001   0.71427   0.00000  Uiso   1.00
O1073  O     0.16666   0.43892   0.87154   0.00000  Uiso   1.00
O1074  O     0.16667   0.56108   0.79513   0.00000  Uiso   1.00
O1075  O     0.16666   0.43893   0.79510   0.00000  Uiso   1.00
O1076  O     0.16667   0.56107   0.87157   0.00000  Uiso   1.00
O1077  O     0.09058   0.50000   0.86261   0.00000  Uiso   1.00
O1078  O     0.24275   0.50000   0.80405   0.00000  Uiso   1.00
O1079  O     0.09058   0.50000   0.78617   0.00000  Uiso   1.00
O1080  O     0.24275   0.50000   0.88050   0.00000  Uiso   1.00
Zn1081 Zn    0.16667   0.49999   0.88437   0.00000  Uiso   1.00
Zn1082 Zn    0.16667   0.50001   0.78229   0.00000  Uiso   1.00
C1083  C     0.06947   0.38086   0.80430   0.00000  Uiso   1.00
H1084  H     0.07487   0.40127   0.77490   0.00000  Uiso   1.00
H1085  H     0.03370   0.36199   0.79357   0.00000  Uiso   1.00
H1086  H     0.06145   0.40083   0.83300   0.00000  Uiso   1.00
C1087  C     0.26386   0.61914   0.86237   0.00000  Uiso   1.00
H1088  H     0.25846   0.59873   0.89177   0.00000  Uiso   1.00
H1089  H     0.27189   0.59917   0.83367   0.00000  Uiso   1.00
H1090  H     0.29964   0.63801   0.87310   0.00000  Uiso   1.00
C1091  C     0.06755   0.62125   0.80378   0.00000  Uiso   1.00
H1092  H     0.07127   0.58677   0.80553   0.00000  Uiso   1.00
H1093  H     0.03834   0.62963   0.82617   0.00000  Uiso   1.00
H1094  H     0.05208   0.62930   0.76787   0.00000  Uiso   1.00
C1095  C     0.26578   0.37875   0.86289   0.00000  Uiso   1.00
H1096  H     0.26207   0.41323   0.86114   0.00000  Uiso   1.00
H1097  H     0.28125   0.37070   0.89879   0.00000  Uiso   1.00
H1098  H     0.29500   0.37037   0.84049   0.00000  Uiso   1.00
Cl1099 Cl    0.24131   0.56166   0.72699   0.00000  Uiso   1.00
Cl1100 Cl    0.09203   0.43834   0.93967   0.00000  Uiso   1.00
C1101  C     0.50026   0.42023   0.83345   0.00000  Uiso   1.00
C1102  C     0.49974   0.57977   0.83321   0.00000  Uiso   1.00
C1103  C     0.40044   0.49969   0.82143   0.00000  Uiso   1.00
C1104  C     0.59956   0.50031   0.84524   0.00000  Uiso   1.00
C1105  C     0.34540   0.49957   0.81503   0.00000  Uiso   1.00
C1106  C     0.65460   0.50043   0.85164   0.00000  Uiso   1.00
C1107  C     0.45245   0.35536   0.81891   0.00000  Uiso   1.00
C1108  C     0.54755   0.64464   0.84776   0.00000  Uiso   1.00
C1109  C     0.45195   0.64497   0.81865   0.00000  Uiso   1.00
C1110  C     0.54805   0.35503   0.84801   0.00000  Uiso   1.00
C1111  C     0.49961   0.62397   0.83304   0.00000  Uiso   1.00
C1112  C     0.50039   0.37603   0.83363   0.00000  Uiso   1.00
C1113  C     0.53222   0.52658   0.69419   0.00000  Uiso   1.00
C1114  C     0.46778   0.47342   0.97248   0.00000  Uiso   1.00
C1115  C     0.53209   0.52647   0.97974   0.00000  Uiso   1.00
C1116  C     0.46791   0.47353   0.68692   0.00000  Uiso   1.00
H1117  H     0.65822   0.49877   0.78026   0.00000  Uiso   1.00
H1118  H     0.34178   0.50124   0.88640   0.00000  Uiso   1.00
H1119  H     0.55772   0.54761   0.96457   0.00000  Uiso   1.00
H1120  H     0.44228   0.45239   0.70210   0.00000  Uiso   1.00
N1121  N     0.49999   0.49999   0.95240   0.00000  Uiso   1.00
N1122  N     0.50001   0.50001   0.71427   0.00000  Uiso   1.00
O1123  O     0.50000   0.43892   0.87154   0.00000  Uiso   1.00
O1124  O     0.50000   0.56108   0.79513   0.00000  Uiso   1.00
O1125  O     0.50000   0.43893   0.79510   0.00000  Uiso   1.00
O1126  O     0.50000   0.56107   0.87157   0.00000  Uiso   1.00
O1127  O     0.42392   0.50000   0.86261   0.00000  Uiso   1.00
O1128  O     0.57608   0.50000   0.80405   0.00000  Uiso   1.00
O1129  O     0.42392   0.50000   0.78617   0.00000  Uiso   1.00
O1130  O     0.57608   0.50000   0.88050   0.00000  Uiso   1.00
Zn1131 Zn    0.50000   0.49999   0.88437   0.00000  Uiso   1.00
Zn1132 Zn    0.50000   0.50001   0.78229   0.00000  Uiso   1.00
C1133  C     0.40281   0.38086   0.80430   0.00000  Uiso   1.00
H1134  H     0.40821   0.40127   0.77490   0.00000  Uiso   1.00
H1135  H     0.36703   0.36199   0.79357   0.00000  Uiso   1.00
H1136  H     0.39478   0.40083   0.83300   0.00000  Uiso   1.00
C1137  C     0.59719   0.61914   0.86237   0.00000  Uiso   1.00
H1138  H     0.59180   0.59873   0.89177   0.00000  Uiso   1.00
H1139  H     0.60522   0.59917   0.83367   0.00000  Uiso   1.00
H1140  H     0.63297   0.63801   0.87310   0.00000  Uiso   1.00
C1141  C     0.40089   0.62125   0.80378   0.00000  Uiso   1.00
H1142  H     0.40460   0.58677   0.80553   0.00000  Uiso   1.00
H1143  H     0.37167   0.62963   0.82617   0.00000  Uiso   1.00
H1144  H     0.38542   0.62930   0.76787   0.00000  Uiso   1.00
C1145  C     0.59911   0.37875   0.86289   0.00000  Uiso   1.00
H1146  H     0.59540   0.41323   0.86114   0.00000  Uiso   1.00
H1147  H     0.61458   0.37070   0.89879   0.00000  Uiso   1.00
H1148  H     0.62833   0.37037   0.84049   0.00000  Uiso   1.00
Cl1149 Cl    0.57464   0.56166   0.72699   0.00000  Uiso   1.00
Cl1150 Cl    0.42536   0.43834   0.93967   0.00000  Uiso   1.00
C1151  C     0.83360   0.42023   0.83345   0.00000  Uiso   1.00
C1152  C     0.83307   0.57977   0.83321   0.00000  Uiso   1.00
C1153  C     0.73377   0.49969   0.82143   0.00000  Uiso   1.00
C1154  C     0.93290   0.50031   0.84524   0.00000  Uiso   1.00
C1155  C     0.67873   0.49957   0.81503   0.00000  Uiso   1.00
C1156  C     0.98794   0.50043   0.85164   0.00000  Uiso   1.00
C1157  C     0.78578   0.35536   0.81891   0.00000  Uiso   1.00
C1158  C     0.88089   0.64464   0.84776   0.00000  Uiso   1.00
C1159  C     0.78528   0.64497   0.81865   0.00000  Uiso   1.00
C1160  C     0.88139   0.35503   0.84801   0.00000  Uiso   1.00
C1161  C     0.83295   0.62397   0.83304   0.00000  Uiso   1.00
C1162  C     0.83372   0.37603   0.83363   0.00000  Uiso   1.00
C1163  C     0.86555   0.52658   0.69419   0.00000  Uiso   1.00
C1164  C     0.80112   0.47342   0.97248   0.00000  Uiso   1.00
C1165  C     0.86542   0.52647   0.97974   0.00000  Uiso   1.00
C1166  C     0.80125   0.47353   0.68692   0.00000  Uiso   1.00
H1167  H     0.99155   0.49877   0.78026   0.00000  Uiso   1.00
H1168  H     0.67511   0.50124   0.88640   0.00000  Uiso   1.00
H1169  H     0.89105   0.54761   0.96457   0.00000  Uiso   1.00
H1170  H     0.77562   0.45239   0.70210   0.00000  Uiso   1.00
N1171  N     0.83332   0.49999   0.95240   0.00000  Uiso   1.00
N1172  N     0.83335   0.50001   0.71427   0.00000  Uiso   1.00
O1173  O     0.83333   0.43892   0.87154   0.00000  Uiso   1.00
O1174  O     0.83334   0.56108   0.79513   0.00000  Uiso   1.00
O1175  O     0.83333   0.43893   0.79510   0.00000  Uiso   1.00
O1176  O     0.83334   0.56107   0.87157   0.00000  Uiso   1.00
O1177  O     0.75725   0.50000   0.86261   0.00000  Uiso   1.00
O1178  O     0.90942   0.50000   0.80405   0.00000  Uiso   1.00
O1179  O     0.75725   0.50000   0.78617   0.00000  Uiso   1.00
O1180  O     0.90942   0.50000   0.88050   0.00000  Uiso   1.00
Zn1181 Zn    0.83333   0.49999   0.88437   0.00000  Uiso   1.00
Zn1182 Zn    0.83333   0.50001   0.78229   0.00000  Uiso   1.00
C1183  C     0.73614   0.38086   0.80430   0.00000  Uiso   1.00
H1184  H     0.74154   0.40127   0.77490   0.00000  Uiso   1.00
H1185  H     0.70037   0.36199   0.79357   0.00000  Uiso   1.00
H1186  H     0.72811   0.40083   0.83300   0.00000  Uiso   1.00
C1187  C     0.93053   0.61914   0.86237   0.00000  Uiso   1.00
H1188  H     0.92513   0.59873   0.89177   0.00000  Uiso   1.00
H1189  H     0.93855   0.59917   0.83367   0.00000  Uiso   1.00
H1190  H     0.96630   0.63801   0.87310   0.00000  Uiso   1.00
C1191  C     0.73422   0.62125   0.80378   0.00000  Uiso   1.00
H1192  H     0.73793   0.58677   0.80553   0.00000  Uiso   1.00
H1193  H     0.70500   0.62963   0.82617   0.00000  Uiso   1.00
H1194  H     0.71875   0.62930   0.76787   0.00000  Uiso   1.00
C1195  C     0.93245   0.37875   0.86289   0.00000  Uiso   1.00
H1196  H     0.92873   0.41323   0.86114   0.00000  Uiso   1.00
H1197  H     0.94792   0.37070   0.89879   0.00000  Uiso   1.00
H1198  H     0.96166   0.37037   0.84049   0.00000  Uiso   1.00
Cl1199 Cl    0.90798   0.56166   0.72699   0.00000  Uiso   1.00
Cl1200 Cl    0.75869   0.43834   0.93967   0.00000  Uiso   1.00
C1201  C     0.16693   0.75357   0.83345   0.00000  Uiso   1.00
C1202  C     0.16640   0.91310   0.83321   0.00000  Uiso   1.00
C1203  C     0.06711   0.83302   0.82143   0.00000  Uiso   1.00
C1204  C     0.26623   0.83364   0.84524   0.00000  Uiso   1.00
C1205  C     0.01206   0.83290   0.81503   0.00000  Uiso   1.00
C1206  C     0.32127   0.83377   0.85164   0.00000  Uiso   1.00
C1207  C     0.11911   0.68869   0.81891   0.00000  Uiso   1.00
C1208  C     0.21422   0.97797   0.84776   0.00000  Uiso   1.00
C1209  C     0.11861   0.97830   0.81865   0.00000  Uiso   1.00
C1210  C     0.21472   0.68837   0.84801   0.00000  Uiso   1.00
C1211  C     0.16628   0.95731   0.83304   0.00000  Uiso   1.00
C1212  C     0.16705   0.70936   0.83363   0.00000  Uiso   1.00
C1213  C     0.19888   0.85991   0.69419   0.00000  Uiso   1.00
C1214  C     0.13445   0.80675   0.97248   0.00000  Uiso   1.00
C1215  C     0.19875   0.85980   0.97974   0.00000  Uiso   1.00
C1216  C     0.13458   0.80687   0.68692   0.00000  Uiso   1.00
H1217  H     0.32489   0.83210   0.78026   0.00000  Uiso   1.00
H1218  H     0.00845   0.83457   0.88640   0.00000  Uiso   1.00
H1219  H     0.22438   0.88094   0.96457   0.00000  Uiso   1.00
H1220  H     0.10895   0.78573   0.70210   0.00000  Uiso   1.00
N1221  N     0.16665   0.83332   0.95240   0.00000  Uiso   1.00
N1222  N     0.16668   0.83334   0.71427   0.00000  Uiso   1.00
O1223  O     0.16666   0.77225   0.87154   0.00000  Uiso   1.00
O1224  O     0.16667   0.89442   0.79513   0.00000  Uiso   1.00
O1225  O     0.16666   0.77226   0.79510   0.00000  Uiso   1.00
O1226  O     0.16667   0.89441   0.87157   0.00000  Uiso   1.00
O1227  O     0.09058   0.83333   0.86261   0.00000  Uiso   1.00
O1228  O     0.24275   0.83334   0.80405   0.00000  Uiso   1.00
O1229  O     0.09058   0.83334   0.78617   0.00000  Uiso   1.00
O1230  O     0.24275   0.83333   0.88050   0.00000  Uiso   1.00
Zn1231 Zn    0.16667   0.83333   0.88437   0.00000  Uiso   1.00
Zn1232 Zn    0.16667   0.83334   0.78229   0.00000  Uiso   1.00
C1233  C     0.06947   0.71419   0.80430   0.00000  Uiso   1.00
H1234  H     0.07487   0.73460   0.77490   0.00000  Uiso   1.00
H1235  H     0.03370   0.69533   0.79357   0.00000  Uiso   1.00
H1236  H     0.06145   0.73416   0.83300   0.00000  Uiso   1.00
C1237  C     0.26386   0.95247   0.86237   0.00000  Uiso   1.00
H1238  H     0.25846   0.93207   0.89177   0.00000  Uiso   1.00
H1239  H     0.27189   0.93250   0.83367   0.00000  Uiso   1.00
H1240  H     0.29964   0.97134   0.87310   0.00000  Uiso   1.00
C1241  C     0.06755   0.95458   0.80378   0.00000  Uiso   1.00
H1242  H     0.07127   0.92010   0.80553   0.00000  Uiso   1.00
H1243  H     0.03834   0.96296   0.82617   0.00000  Uiso   1.00
H1244  H     0.05208   0.96264   0.76787   0.00000  Uiso   1.00
C1245  C     0.26578   0.71208   0.86289   0.00000  Uiso   1.00
H1246  H     0.26207   0.74656   0.86114   0.00000  Uiso   1.00
H1247  H     0.28125   0.70403   0.89879   0.00000  Uiso   1.00
H1248  H     0.29500   0.70370   0.84049   0.00000  Uiso   1.00
Cl1249 Cl    0.24131   0.89499   0.72699   0.00000  Uiso   1.00
Cl1250 Cl    0.09203   0.77167   0.93967   0.00000  Uiso   1.00
C1251  C     0.50026   0.75357   0.83345   0.00000  Uiso   1.00
C1252  C     0.49974   0.91310   0.83321   0.00000  Uiso   1.00
C1253  C     0.40044   0.83302   0.82143   0.00000  Uiso   1.00
C1254  C     0.59956   0.83364   0.84524   0.00000  Uiso   1.00
C1255  C     0.34540   0.83290   0.81503   0.00000  Uiso   1.00
C1256  C     0.65460   0.83377   0.85164   0.00000  Uiso   1.00
C1257  C     0.45245   0.68869   0.81891   0.00000  Uiso   1.00
C1258  C     0.54755   0.97797   0.84776   0.00000  Uiso   1.00
C1259  C     0.45195   0.97830   0.81865   0.00000  Uiso   1.00
C1260  C     0.54805   0.68837   0.84801   0.00000  Uiso   1.00
C1261  C     0.49961   0.95731   0.83304   0.00000  Uiso   1.00
C1262  C     0.50039   0.70936   0.83363   0.00000  Uiso   1.00
C1263  C     0.53222   0.85991   0.69419   0.00000  Uiso   1.00
C1264  C     0.46778   0.80675   0.97248   0.00000  Uiso   1.00
C1265  C     0.53209   0.85980   0.97974   0.00000  Uiso   1.00
C1266  C     0.46791   0.80687   0.68692   0.00000  Uiso   1.00
H1267  H     0.65822   0.83210   0.78026   0.00000  Uiso   1.00
H1268  H     0.34178   0.83457   0.88640   0.00000  Uiso   1.00
H1269  H     0.55772   0.88094   0.96457   0.00000  Uiso   1.00
H1270  H     0.44228   0.78573   0.70210   0.00000  Uiso   1.00
N1271  N     0.49999   0.83332   0.95240   0.00000  Uiso   1.00
N1272  N     0.50001   0.83334   0.71427   0.00000  Uiso   1.00
O1273  O     0.50000   0.77225   0.87154   0.00000  Uiso   1.00
O1274  O     0.50000   0.89442   0.79513   0.00000  Uiso   1.00
O1275  O     0.50000   0.77226   0.79510   0.00000  Uiso   1.00
O1276  O     0.50000   0.89441   0.87157   0.00000  Uiso   1.00
O1277  O     0.42392   0.83333   0.86261   0.00000  Uiso   1.00
O1278  O     0.57608   0.83334   0.80405   0.00000  Uiso   1.00
O1279  O     0.42392   0.83334   0.78617   0.00000  Uiso   1.00
O1280  O     0.57608   0.83333   0.88050   0.00000  Uiso   1.00
Zn1281 Zn    0.50000   0.83333   0.88437   0.00000  Uiso   1.00
Zn1282 Zn    0.50000   0.83334   0.78229   0.00000  Uiso   1.00
C1283  C     0.40281   0.71419   0.80430   0.00000  Uiso   1.00
H1284  H     0.40821   0.73460   0.77490   0.00000  Uiso   1.00
H1285  H     0.36703   0.69533   0.79357   0.00000  Uiso   1.00
H1286  H     0.39478   0.73416   0.83300   0.00000  Uiso   1.00
C1287  C     0.59719   0.95247   0.86237   0.00000  Uiso   1.00
H1288  H     0.59180   0.93207   0.89177   0.00000  Uiso   1.00
H1289  H     0.60522   0.93250   0.83367   0.00000  Uiso   1.00
H1290  H     0.63297   0.97134   0.87310   0.00000  Uiso   1.00
C1291  C     0.40089   0.95458   0.80378   0.00000  Uiso   1.00
H1292  H     0.40460   0.92010   0.80553   0.00000  Uiso   1.00
H1293  H     0.37167   0.96296   0.82617   0.00000  Uiso   1.00
H1294  H     0.38542   0.96264   0.76787   0.00000  Uiso   1.00
C1295  C     0.59911   0.71208   0.86289   0.00000  Uiso   1.00
H1296  H     0.59540   0.74656   0.86114   0.00000  Uiso   1.00
H1297  H     0.61458   0.70403   0.89879   0.00000  Uiso   1.00
H1298  H     0.62833   0.70370   0.84049   0.00000  Uiso   1.00
Cl1299 Cl    0.57464   0.89499   0.72699   0.00000  Uiso   1.00
Cl1300 Cl    0.42536   0.77167   0.93967   0.00000  Uiso   1.00
C1301  C     0.83360   0.75357   0.83345   0.00000  Uiso   1.00
C1302  C     0.83307   0.91310   0.83321   0.00000  Uiso   1.00
C1303  C     0.73377   0.83302   0.82143   0.00000  Uiso   1.00
C1304  C     0.93290   0.83364   0.84524   0.00000  Uiso   1.00
C1305  C     0.67873   0.83290   0.81503   0.00000  Uiso   1.00
C1306  C     0.98794   0.83377   0.85164   0.00000  Uiso   1.00
C1307  C     0.78578   0.68869   0.81891   0.00000  Uiso   1.00
C1308  C     0.88089   0.97797   0.84776   0.00000  Uiso   1.00
C1309  C     0.78528   0.97830   0.81865   0.00000  Uiso   1.00
C1310  C     0.88139   0.68837   0.84801   0.00000  Uiso   1.00
C1311  C     0.83295   0.95731   0.83304   0.00000  Uiso   1.00
C1312  C     0.83372   0.70936   0.83363   0.00000  Uiso   1.00
C1313  C     0.86555   0.85991   0.69419   0.00000  Uiso   1.00
C1314  C     0.80112   0.80675   0.97248   0.00000  Uiso   1.00
C1315  C     0.86542   0.85980   0.97974   0.00000  Uiso   1.00
C1316  C     0.80125   0.80687   0.68692   0.00000  Uiso   1.00
H1317  H     0.99155   0.83210   0.78026   0.00000  Uiso   1.00
H1318  H     0.67511   0.83457   0.88640   0.00000  Uiso   1.00
H1319  H     0.89105   0.88094   0.96457   0.00000  Uiso   1.00
H1320  H     0.77562   0.78573   0.70210   0.00000  Uiso   1.00
N1321  N     0.83332   0.83332   0.95240   0.00000  Uiso   1.00
N1322  N     0.83335   0.83334   0.71427   0.00000  Uiso   1.00
O1323  O     0.83333   0.77225   0.87154   0.00000  Uiso   1.00
O1324  O     0.83334   0.89442   0.79513   0.00000  Uiso   1.00
O1325  O     0.83333   0.77226   0.79510   0.00000  Uiso   1.00
O1326  O     0.83334   0.89441   0.87157   0.00000  Uiso   1.00
O1327  O     0.75725   0.83333   0.86261   0.00000  Uiso   1.00
O1328  O     0.90942   0.83334   0.80405   0.00000  Uiso   1.00
O1329  O     0.75725   0.83334   0.78617   0.00000  Uiso   1.00
O1330  O     0.90942   0.83333   0.88050   0.00000  Uiso   1.00
Zn1331 Zn    0.83333   0.83333   0.88437   0.00000  Uiso   1.00
Zn1332 Zn    0.83333   0.83334   0.78229   0.00000  Uiso   1.00
C1333  C     0.73614   0.71419   0.80430   0.00000  Uiso   1.00
H1334  H     0.74154   0.73460   0.77490   0.00000  Uiso   1.00
H1335  H     0.70037   0.69533   0.79357   0.00000  Uiso   1.00
H1336  H     0.72811   0.73416   0.83300   0.00000  Uiso   1.00
C1337  C     0.93053   0.95247   0.86237   0.00000  Uiso   1.00
H1338  H     0.92513   0.93207   0.89177   0.00000  Uiso   1.00
H1339  H     0.93855   0.93250   0.83367   0.00000  Uiso   1.00
H1340  H     0.96630   0.97134   0.87310   0.00000  Uiso   1.00
C1341  C     0.73422   0.95458   0.80378   0.00000  Uiso   1.00
H1342  H     0.73793   0.92010   0.80553   0.00000  Uiso   1.00
H1343  H     0.70500   0.96296   0.82617   0.00000  Uiso   1.00
H1344  H     0.71875   0.96264   0.76787   0.00000  Uiso   1.00
C1345  C     0.93245   0.71208   0.86289   0.00000  Uiso   1.00
H1346  H     0.92873   0.74656   0.86114   0.00000  Uiso   1.00
H1347  H     0.94792   0.70403   0.89879   0.00000  Uiso   1.00
H1348  H     0.96166   0.70370   0.84049   0.00000  Uiso   1.00
Cl1349 Cl    0.90798   0.89499   0.72699   0.00000  Uiso   1.00
Cl1350 Cl    0.75869   0.77167   0.93967   0.00000  Uiso   1.00
loop_
_geom_bond_atom_site_label_1
_geom_bond_atom_site_label_2
_geom_bond_distance
_geom_bond_site_symmetry_2
_ccdc_geom_bond_type
C1     O25     1.281   .     A
C1     C12     1.410   .     S
C1     O23     1.282   .     A
C2     O26     1.281   .     A
C2     C11     1.410   .     S
C2     O24     1.282   .     A
C3     O27     1.281   .     A
C3     O29     1.283   .     A
C3     C5      1.402   .     S
C4     C6      1.402   .     S
C4     O28     1.281   .     A
C4     O30     1.283   .     A
C5     C106    1.329   1_455 S
C5     H117    1.088   1_455 S
C6     C55     1.329   .     S
C6     H68     1.088   .     S
C7     C12     1.408   .     A
C7     C33     1.525   .     S
C7     C309    1.394   1_545 S
C8     C11     1.408   .     A
C8     C37     1.525   .     S
C8     C160    1.394   .     S
C9     C41     1.522   .     S
C9     C11     1.410   .     A
C9     C157    1.394   .     S
C10    C45     1.522   .     S
C10    C12     1.410   .     A
C10    C308    1.394   1_545 S
C13    Cl49    1.754   .     S
C13    N22     1.375   .     A
C13    C915    1.417   1_554 S
C14    Cl50    1.754   .     S
C14    N21     1.375   .     A
C14    C466    1.417   .     S
C15    N21     1.362   .     A
C15    H19     1.082   .     S
C15    C463    1.417   .     S
C16    H20     1.082   .     S
C16    N22     1.362   .     A
C16    C914    1.417   1_554 S
H17    C55     1.088   .     S
H18    C106    1.088   1_455 S
N21    Zn31    2.019   .     S
N22    Zn32    2.019   .     S
O23    Zn31    1.987   .     S
O24    Zn32    1.987   .     S
O25    Zn32    1.982   .     S
O26    Zn31    1.982   .     S
O27    Zn31    1.970   .     S
O28    Zn32    1.970   .     S
O29    Zn32    1.979   .     S
O30    Zn31    1.979   .     S
C33    H34     1.110   .     S
C33    H36     1.111   .     S
C33    H35     1.105   .     S
C37    H38     1.110   .     S
C37    H40     1.105   .     S
C37    H39     1.111   .     S
C41    H43     1.109   .     S
C41    H42     1.105   .     S
C41    H44     1.110   .     S
C45    H46     1.105   .     S
C45    H48     1.109   .     S
C45    H47     1.110   .     S
C51    O75     1.281   .     A
C51    C62     1.410   .     S
C51    O73     1.282   .     A
C52    O76     1.281   .     A
C52    C61     1.410   .     S
C52    O74     1.282   .     A
C53    O77     1.281   .     A
C53    O79     1.283   .     A
C53    C55     1.402   .     S
C54    C56     1.402   .     S
C54    O78     1.281   .     A
C54    O80     1.283   .     A
C56    C105    1.329   .     S
C56    H118    1.088   .     S
C57    C62     1.408   .     A
C57    C83     1.525   .     S
C57    C359    1.394   1_545 S
C58    C61     1.408   .     A
C58    C87     1.525   .     S
C58    C210    1.394   .     S
C59    C91     1.522   .     S
C59    C61     1.410   .     A
C59    C207    1.394   .     S
C60    C95     1.522   .     S
C60    C62     1.410   .     A
C60    C358    1.394   1_545 S
C63    Cl99    1.754   .     S
C63    N72     1.375   .     A
C63    C965    1.417   1_554 S
C64    Cl100   1.754   .     S
C64    N71     1.375   .     A
C64    C516    1.417   .     S
C65    N71     1.362   .     A
C65    H69     1.082   .     S
C65    C513    1.417   .     S
C66    H70     1.082   .     S
C66    N72     1.362   .     A
C66    C964    1.417   1_554 S
H67    C105    1.088   .     S
N71    Zn81    2.019   .     S
N72    Zn82    2.019   .     S
O73    Zn81    1.987   .     S
O74    Zn82    1.987   .     S
O75    Zn82    1.982   .     S
O76    Zn81    1.982   .     S
O77    Zn81    1.970   .     S
O78    Zn82    1.970   .     S
O79    Zn82    1.979   .     S
O80    Zn81    1.979   .     S
C83    H84     1.110   .     S
C83    H86     1.111   .     S
C83    H85     1.105   .     S
C87    H88     1.110   .     S
C87    H90     1.105   .     S
C87    H89     1.111   .     S
C91    H93     1.109   .     S
C91    H92     1.105   .     S
C91    H94     1.110   .     S
C95    H96     1.105   .     S
C95    H98     1.109   .     S
C95    H97     1.110   .     S
C101   O125    1.281   .     A
C101   C112    1.410   .     S
C101   O123    1.282   .     A
C102   O126    1.281   .     A
C102   C111    1.410   .     S
C102   O124    1.282   .     A
C103   O127    1.281   .     A
C103   O129    1.283   .     A
C103   C105    1.402   .     S
C104   C106    1.402   .     S
C104   O128    1.281   .     A
C104   O130    1.283   .     A
C106   C5      1.329   1_655 S
C106   H18     1.088   1_655 S
C107   C112    1.408   .     A
C107   C133    1.525   .     S
C107   C409    1.394   1_545 S
C108   C111    1.408   .     A
C108   C137    1.525   .     S
C108   C260    1.394   .     S
C109   C141    1.522   .     S
C109   C111    1.410   .     A
C109   C257    1.394   .     S
C110   C145    1.522   .     S
C110   C112    1.410   .     A
C110   C408    1.394   1_545 S
C113   Cl149   1.754   .     S
C113   N122    1.375   .     A
C113   C1015   1.417   1_554 S
C114   Cl150   1.754   .     S
C114   N121    1.375   .     A
C114   C566    1.417   .     S
C115   N121    1.362   .     A
C115   H119    1.082   .     S
C115   C563    1.417   .     S
C116   H120    1.082   .     S
C116   N122    1.362   .     A
C116   C1014   1.417   1_554 S
H117   C5      1.088   1_655 S
N121   Zn131   2.019   .     S
N122   Zn132   2.019   .     S
O123   Zn131   1.987   .     S
O124   Zn132   1.987   .     S
O125   Zn132   1.982   .     S
O126   Zn131   1.982   .     S
O127   Zn131   1.970   .     S
O128   Zn132   1.970   .     S
O129   Zn132   1.979   .     S
O130   Zn131   1.979   .     S
C133   H134    1.110   .     S
C133   H136    1.111   .     S
C133   H135    1.105   .     S
C137   H138    1.110   .     S
C137   H140    1.105   .     S
C137   H139    1.111   .     S
C141   H143    1.109   .     S
C141   H142    1.105   .     S
C141   H144    1.110   .     S
C145   H146    1.105   .     S
C145   H148    1.109   .     S
C145   H147    1.110   .     S
C151   O175    1.281   .     A
C151   C162    1.410   .     S
C151   O173    1.282   .     A
C152   O176    1.281   .     A
C152   C161    1.410   .     S
C152   O174    1.282   .     A
C153   O177    1.281   .     A
C153   O179    1.283   .     A
C153   C155    1.402   .     S
C154   C156    1.402   .     S
C154   O178    1.281   .     A
C154   O180    1.283   .     A
C155   C256    1.329   1_455 S
C155   H267    1.088   1_455 S
C156   C205    1.329   .     S
C156   H218    1.088   .     S
C157   C162    1.408   .     A
C157   C183    1.525   .     S
C158   C161    1.408   .     A
C158   C187    1.525   .     S
C158   C310    1.394   .     S
C159   C191    1.522   .     S
C159   C161    1.410   .     A
C159   C307    1.394   .     S
C160   C195    1.522   .     S
C160   C162    1.410   .     A
C163   Cl199   1.754   .     S
C163   N172    1.375   .     A
C163   C1065   1.417   1_554 S
C164   Cl200   1.754   .     S
C164   N171    1.375   .     A
C164   C616    1.417   .     S
C165   N171    1.362   .     A
C165   H169    1.082   .     S
C165   C613    1.417   .     S
C166   H170    1.082   .     S
C166   N172    1.362   .     A
C166   C1064   1.417   1_554 S
H167   C205    1.088   .     S
H168   C256    1.088   1_455 S
N171   Zn181   2.019   .     S
N172   Zn182   2.019   .     S
O173   Zn181   1.987   .     S
O174   Zn182   1.987   .     S
O175   Zn182   1.982   .     S
O176   Zn181   1.982   .     S
O177   Zn181   1.970   .     S
O178   Zn182   1.970   .     S
O179   Zn182   1.979   .     S
O180   Zn181   1.979   .     S
C183   H184    1.110   .     S
C183   H186    1.111   .     S
C183   H185    1.105   .     S
C187   H188    1.110   .     S
C187   H190    1.105   .     S
C187   H189    1.111   .     S
C191   H193    1.109   .     S
C191   H192    1.105   .     S
C191   H194    1.110   .     S
C195   H196    1.105   .     S
C195   H198    1.109   .     S
C195   H197    1.110   .     S
C201   O225    1.281   .     A
C201   C212    1.410   .     S
C201   O223    1.282   .     A
C202   O226    1.281   .     A
C202   C211    1.410   .     S
C202   O224    1.282   .     A
C203   O227    1.281   .     A
C203   O229    1.283   .     A
C203   C205    1.402   .     S
C204   C206    1.402   .     S
C204   O228    1.281   .     A
C204   O230    1.283   .     A
C206   C255    1.329   .     S
C206   H268    1.088   .     S
C207   C212    1.408   .     A
C207   C233    1.525   .     S
C208   C211    1.408   .     A
C208   C237    1.525   .     S
C208   C360    1.394   .     S
C209   C241    1.522   .     S
C209   C211    1.410   .     A
C209   C357    1.394   .     S
C210   C245    1.522   .     S
C210   C212    1.410   .     A
C213   Cl249   1.754   .     S
C213   N222    1.375   .     A
C213   C1115   1.417   1_554 S
C214   Cl250   1.754   .     S
C214   N221    1.375   .     A
C214   C666    1.417   .     S
C215   N221    1.362   .     A
C215   H219    1.082   .     S
C215   C663    1.417   .     S
C216   H220    1.082   .     S
C216   N222    1.362   .     A
C216   C1114   1.417   1_554 S
H217   C255    1.088   .     S
N221   Zn231   2.019   .     S
N222   Zn232   2.019   .     S
O223   Zn231   1.987   .     S
O224   Zn232   1.987   .     S
O225   Zn232   1.982   .     S
O226   Zn231   1.982   .     S
O227   Zn231   1.970   .     S
O228   Zn232   1.970   .     S
O229   Zn232   1.979   .     S
O230   Zn231   1.979   .     S
C233   H234    1.110   .     S
C233   H236    1.111   .     S
C233   H235    1.105   .     S
C237   H238    1.110   .     S
C237   H240    1.105   .     S
C237   H239    1.111   .     S
C241   H243    1.109   .     S
C241   H242    1.105   .     S
C241   H244    1.110   .     S
C245   H246    1.105   .     S
C245   H248    1.109   .     S
C245   H247    1.110   .     S
C251   O275    1.281   .     A
C251   C262    1.410   .     S
C251   O273    1.282   .     A
C252   O276    1.281   .     A
C252   C261    1.410   .     S
C252   O274    1.282   .     A
C253   O277    1.281   .     A
C253   O279    1.283   .     A
C253   C255    1.402   .     S
C254   C256    1.402   .     S
C254   O278    1.281   .     A
C254   O280    1.283   .     A
C256   C155    1.329   1_655 S
C256   H168    1.088   1_655 S
C257   C262    1.408   .     A
C257   C283    1.525   .     S
C258   C261    1.408   .     A
C258   C287    1.525   .     S
C258   C410    1.394   .     S
C259   C291    1.522   .     S
C259   C261    1.410   .     A
C259   C407    1.394   .     S
C260   C295    1.522   .     S
C260   C262    1.410   .     A
C263   Cl299   1.754   .     S
C263   N272    1.375   .     A
C263   C1165   1.417   1_554 S
C264   Cl300   1.754   .     S
C264   N271    1.375   .     A
C264   C716    1.417   .     S
C265   N271    1.362   .     A
C265   H269    1.082   .     S
C265   C713    1.417   .     S
C266   H270    1.082   .     S
C266   N272    1.362   .     A
C266   C1164   1.417   1_554 S
H267   C155    1.088   1_655 S
N271   Zn281   2.019   .     S
N272   Zn282   2.019   .     S
O273   Zn281   1.987   .     S
O274   Zn282   1.987   .     S
O275   Zn282   1.982   .     S
O276   Zn281   1.982   .     S
O277   Zn281   1.970   .     S
O278   Zn282   1.970   .     S
O279   Zn282   1.979   .     S
O280   Zn281   1.979   .     S
C283   H284    1.110   .     S
C283   H286    1.111   .     S
C283   H285    1.105   .     S
C287   H288    1.110   .     S
C287   H290    1.105   .     S
C287   H289    1.111   .     S
C291   H293    1.109   .     S
C291   H292    1.105   .     S
C291   H294    1.110   .     S
C295   H296    1.105   .     S
C295   H298    1.109   .     S
C295   H297    1.110   .     S
C301   O325    1.281   .     A
C301   C312    1.410   .     S
C301   O323    1.282   .     A
C302   O326    1.281   .     A
C302   C311    1.410   .     S
C302   O324    1.282   .     A
C303   O327    1.281   .     A
C303   O329    1.283   .     A
C303   C305    1.402   .     S
C304   C306    1.402   .     S
C304   O328    1.281   .     A
C304   O330    1.283   .     A
C305   C406    1.329   1_455 S
C305   H417    1.088   1_455 S
C306   C355    1.329   .     S
C306   H368    1.088   .     S
C307   C312    1.408   .     A
C307   C333    1.525   .     S
C308   C311    1.408   .     A
C308   C337    1.525   .     S
C308   C10     1.394   1_565 S
C309   C341    1.522   .     S
C309   C311    1.410   .     A
C309   C7      1.394   1_565 S
C310   C345    1.522   .     S
C310   C312    1.410   .     A
C313   Cl349   1.754   .     S
C313   N322    1.375   .     A
C313   C1215   1.417   1_554 S
C314   Cl350   1.754   .     S
C314   N321    1.375   .     A
C314   C766    1.417   .     S
C315   N321    1.362   .     A
C315   H319    1.082   .     S
C315   C763    1.417   .     S
C316   H320    1.082   .     S
C316   N322    1.362   .     A
C316   C1214   1.417   1_554 S
H317   C355    1.088   .     S
H318   C406    1.088   1_455 S
N321   Zn331   2.019   .     S
N322   Zn332   2.019   .     S
O323   Zn331   1.987   .     S
O324   Zn332   1.987   .     S
O325   Zn332   1.982   .     S
O326   Zn331   1.982   .     S
O327   Zn331   1.970   .     S
O328   Zn332   1.970   .     S
O329   Zn332   1.979   .     S
O330   Zn331   1.979   .     S
C333   H334    1.110   .     S
C333   H336    1.111   .     S
C333   H335    1.105   .     S
C337   H338    1.110   .     S
C337   H340    1.105   .     S
C337   H339    1.111   .     S
C341   H343    1.109   .     S
C341   H342    1.105   .     S
C341   H344    1.110   .     S
C345   H346    1.105   .     S
C345   H348    1.109   .     S
C345   H347    1.110   .     S
C351   O375    1.281   .     A
C351   C362    1.410   .     S
C351   O373    1.282   .     A
C352   O376    1.281   .     A
C352   C361    1.410   .     S
C352   O374    1.282   .     A
C353   O377    1.281   .     A
C353   O379    1.283   .     A
C353   C355    1.402   .     S
C354   C356    1.402   .     S
C354   O378    1.281   .     A
C354   O380    1.283   .     A
C356   C405    1.329   .     S
C356   H418    1.088   .     S
C357   C362    1.408   .     A
C357   C383    1.525   .     S
C358   C361    1.408   .     A
C358   C387    1.525   .     S
C358   C60     1.394   1_565 S
C359   C391    1.522   .     S
C359   C361    1.410   .     A
C359   C57     1.394   1_565 S
C360   C395    1.522   .     S
C360   C362    1.410   .     A
C363   Cl399   1.754   .     S
C363   N372    1.375   .     A
C363   C1265   1.417   1_554 S
C364   Cl400   1.754   .     S
C364   N371    1.375   .     A
C364   C816    1.417   .     S
C365   N371    1.362   .     A
C365   H369    1.082   .     S
C365   C813    1.417   .     S
C366   H370    1.082   .     S
C366   N372    1.362   .     A
C366   C1264   1.417   1_554 S
H367   C405    1.088   .     S
N371   Zn381   2.019   .     S
N372   Zn382   2.019   .     S
O373   Zn381   1.987   .     S
O374   Zn382   1.987   .     S
O375   Zn382   1.982   .     S
O376   Zn381   1.982   .     S
O377   Zn381   1.970   .     S
O378   Zn382   1.970   .     S
O379   Zn382   1.979   .     S
O380   Zn381   1.979   .     S
C383   H384    1.110   .     S
C383   H386    1.111   .     S
C383   H385    1.105   .     S
C387   H388    1.110   .     S
C387   H390    1.105   .     S
C387   H389    1.111   .     S
C391   H393    1.109   .     S
C391   H392    1.105   .     S
C391   H394    1.110   .     S
C395   H396    1.105   .     S
C395   H398    1.109   .     S
C395   H397    1.110   .     S
C401   O425    1.281   .     A
C401   C412    1.410   .     S
C401   O423    1.282   .     A
C402   O426    1.281   .     A
C402   C411    1.410   .     S
C402   O424    1.282   .     A
C403   O427    1.281   .     A
C403   O429    1.283   .     A
C403   C405    1.402   .     S
C404   C406    1.402   .     S
C404   O428    1.281   .     A
C404   O430    1.283   .     A
C406   C305    1.329   1_655 S
C406   H318    1.088   1_655 S
C407   C412    1.408   .     A
C407   C433    1.525   .     S
C408   C411    1.408   .     A
C408   C437    1.525   .     S
C408   C110    1.394   1_565 S
C409   C441    1.522   .     S
C409   C411    1.410   .     A
C409   C107    1.394   1_565 S
C410   C445    1.522   .     S
C410   C412    1.410   .     A
C413   Cl449   1.754   .     S
C413   N422    1.375   .     A
C413   C1315   1.417   1_554 S
C414   Cl450   1.754   .     S
C414   N421    1.375   .     A
C414   C866    1.417   .     S
C415   N421    1.362   .     A
C415   H419    1.082   .     S
C415   C863    1.417   .     S
C416   H420    1.082   .     S
C416   N422    1.362   .     A
C416   C1314   1.417   1_554 S
H417   C305    1.088   1_655 S
N421   Zn431   2.019   .     S
N422   Zn432   2.019   .     S
O423   Zn431   1.987   .     S
O424   Zn432   1.987   .     S
O425   Zn432   1.982   .     S
O426   Zn431   1.982   .     S
O427   Zn431   1.970   .     S
O428   Zn432   1.970   .     S
O429   Zn432   1.979   .     S
O430   Zn431   1.979   .     S
C433   H434    1.110   .     S
C433   H436    1.111   .     S
C433   H435    1.105   .     S
C437   H438    1.110   .     S
C437   H440    1.105   .     S
C437   H439    1.111   .     S
C441   H443    1.109   .     S
C441   H442    1.105   .     S
C441   H444    1.110   .     S
C445   H446    1.105   .     S
C445   H448    1.109   .     S
C445   H447    1.110   .     S
C451   O475    1.281   .     A
C451   C462    1.410   .     S
C451   O473    1.282   .     A
C452   O476    1.281   .     A
C452   C461    1.410   .     S
C452   O474    1.282   .     A
C453   O477    1.281   .     A
C453   O479    1.283   .     A
C453   C455    1.402   .     S
C454   C456    1.402   .     S
C454   O478    1.281   .     A
C454   O480    1.283   .     A
C455   C556    1.329   1_455 S
C455   H567    1.088   1_455 S
C456   C505    1.329   .     S
C456   H518    1.088   .     S
C457   C462    1.408   .     A
C457   C483    1.525   .     S
C457   C759    1.394   1_545 S
C458   C461    1.408   .     A
C458   C487    1.525   .     S
C458   C610    1.394   .     S
C459   C491    1.522   .     S
C459   C461    1.410   .     A
C459   C607    1.394   .     S
C460   C495    1.522   .     S
C460   C462    1.410   .     A
C460   C758    1.394   1_545 S
C463   Cl499   1.754   .     S
C463   N472    1.375   .     A
C464   Cl500   1.754   .     S
C464   N471    1.375   .     A
C464   C916    1.417   .     S
C465   N471    1.362   .     A
C465   H469    1.082   .     S
C465   C913    1.417   .     S
C466   H470    1.082   .     S
C466   N472    1.362   .     A
H467   C505    1.088   .     S
H468   C556    1.088   1_455 S
N471   Zn481   2.019   .     S
N472   Zn482   2.019   .     S
O473   Zn481   1.987   .     S
O474   Zn482   1.987   .     S
O475   Zn482   1.982   .     S
O476   Zn481   1.982   .     S
O477   Zn481   1.970   .     S
O478   Zn482   1.970   .     S
O479   Zn482   1.979   .     S
O480   Zn481   1.979   .     S
C483   H484    1.110   .     S
C483   H486    1.111   .     S
C483   H485    1.105   .     S
C487   H488    1.110   .     S
C487   H490    1.105   .     S
C487   H489    1.111   .     S
C491   H493    1.109   .     S
C491   H492    1.105   .     S
C491   H494    1.110   .     S
C495   H496    1.105   .     S
C495   H498    1.109   .     S
C495   H497    1.110   .     S
C501   O525    1.281   .     A
C501   C512    1.410   .     S
C501   O523    1.282   .     A
C502   O526    1.281   .     A
C502   C511    1.410   .     S
C502   O524    1.282   .     A
C503   O527    1.281   .     A
C503   O529    1.283   .     A
C503   C505    1.402   .     S
C504   C506    1.402   .     S
C504   O528    1.281   .     A
C504   O530    1.283   .     A
C506   C555    1.329   .     S
C506   H568    1.088   .     S
C507   C512    1.408   .     A
C507   C533    1.525   .     S
C507   C809    1.394   1_545 S
C508   C511    1.408   .     A
C508   C537    1.525   .     S
C508   C660    1.394   .     S
C509   C541    1.522   .     S
C509   C511    1.410   .     A
C509   C657    1.394   .     S
C510   C545    1.522   .     S
C510   C512    1.410   .     A
C510   C808    1.394   1_545 S
C513   Cl549   1.754   .     S
C513   N522    1.375   .     A
C514   Cl550   1.754   .     S
C514   N521    1.375   .     A
C514   C966    1.417   .     S
C515   N521    1.362   .     A
C515   H519    1.082   .     S
C515   C963    1.417   .     S
C516   H520    1.082   .     S
C516   N522    1.362   .     A
H517   C555    1.088   .     S
N521   Zn531   2.019   .     S
N522   Zn532   2.019   .     S
O523   Zn531   1.987   .     S
O524   Zn532   1.987   .     S
O525   Zn532   1.982   .     S
O526   Zn531   1.982   .     S
O527   Zn531   1.970   .     S
O528   Zn532   1.970   .     S
O529   Zn532   1.979   .     S
O530   Zn531   1.979   .     S
C533   H534    1.110   .     S
C533   H536    1.111   .     S
C533   H535    1.105   .     S
C537   H538    1.110   .     S
C537   H540    1.105   .     S
C537   H539    1.111   .     S
C541   H543    1.109   .     S
C541   H542    1.105   .     S
C541   H544    1.110   .     S
C545   H546    1.105   .     S
C545   H548    1.109   .     S
C545   H547    1.110   .     S
C551   O575    1.281   .     A
C551   C562    1.410   .     S
C551   O573    1.282   .     A
C552   O576    1.281   .     A
C552   C561    1.410   .     S
C552   O574    1.282   .     A
C553   O577    1.281   .     A
C553   O579    1.283   .     A
C553   C555    1.402   .     S
C554   C556    1.402   .     S
C554   O578    1.281   .     A
C554   O580    1.283   .     A
C556   C455    1.329   1_655 S
C556   H468    1.088   1_655 S
C557   C562    1.408   .     A
C557   C583    1.525   .     S
C557   C859    1.394   1_545 S
C558   C561    1.408   .     A
C558   C587    1.525   .     S
C558   C710    1.394   .     S
C559   C591    1.522   .     S
C559   C561    1.410   .     A
C559   C707    1.394   .     S
C560   C595    1.522   .     S
C560   C562    1.410   .     A
C560   C858    1.394   1_545 S
C563   Cl599   1.754   .     S
C563   N572    1.375   .     A
C564   Cl600   1.754   .     S
C564   N571    1.375   .     A
C564   C1016   1.417   .     S
C565   N571    1.362   .     A
C565   H569    1.082   .     S
C565   C1013   1.417   .     S
C566   H570    1.082   .     S
C566   N572    1.362   .     A
H567   C455    1.088   1_655 S
N571   Zn581   2.019   .     S
N572   Zn582   2.019   .     S
O573   Zn581   1.987   .     S
O574   Zn582   1.987   .     S
O575   Zn582   1.982   .     S
O576   Zn581   1.982   .     S
O577   Zn581   1.970   .     S
O578   Zn582   1.970   .     S
O579   Zn582   1.979   .     S
O580   Zn581   1.979   .     S
C583   H584    1.110   .     S
C583   H586    1.111   .     S
C583   H585    1.105   .     S
C587   H588    1.110   .     S
C587   H590    1.105   .     S
C587   H589    1.111   .     S
C591   H593    1.109   .     S
C591   H592    1.105   .     S
C591   H594    1.110   .     S
C595   H596    1.105   .     S
C595   H598    1.109   .     S
C595   H597    1.110   .     S
C601   O625    1.281   .     A
C601   C612    1.410   .     S
C601   O623    1.282   .     A
C602   O626    1.281   .     A
C602   C611    1.410   .     S
C602   O624    1.282   .     A
C603   O627    1.281   .     A
C603   O629    1.283   .     A
C603   C605    1.402   .     S
C604   C606    1.402   .     S
C604   O628    1.281   .     A
C604   O630    1.283   .     A
C605   C706    1.329   1_455 S
C605   H717    1.088   1_455 S
C606   C655    1.329   .     S
C606   H668    1.088   .     S
C607   C612    1.408   .     A
C607   C633    1.525   .     S
C608   C611    1.408   .     A
C608   C637    1.525   .     S
C608   C760    1.394   .     S
C609   C641    1.522   .     S
C609   C611    1.410   .     A
C609   C757    1.394   .     S
C610   C645    1.522   .     S
C610   C612    1.410   .     A
C613   Cl649   1.754   .     S
C613   N622    1.375   .     A
C614   Cl650   1.754   .     S
C614   N621    1.375   .     A
C614   C1066   1.417   .     S
C615   N621    1.362   .     A
C615   H619    1.082   .     S
C615   C1063   1.417   .     S
C616   H620    1.082   .     S
C616   N622    1.362   .     A
H617   C655    1.088   .     S
H618   C706    1.088   1_455 S
N621   Zn631   2.019   .     S
N622   Zn632   2.019   .     S
O623   Zn631   1.987   .     S
O624   Zn632   1.987   .     S
O625   Zn632   1.982   .     S
O626   Zn631   1.982   .     S
O627   Zn631   1.970   .     S
O628   Zn632   1.970   .     S
O629   Zn632   1.979   .     S
O630   Zn631   1.979   .     S
C633   H634    1.110   .     S
C633   H636    1.111   .     S
C633   H635    1.105   .     S
C637   H638    1.110   .     S
C637   H640    1.105   .     S
C637   H639    1.111   .     S
C641   H643    1.109   .     S
C641   H642    1.105   .     S
C641   H644    1.110   .     S
C645   H646    1.105   .     S
C645   H648    1.109   .     S
C645   H647    1.110   .     S
C651   O675    1.281   .     A
C651   C662    1.410   .     S
C651   O673    1.282   .     A
C652   O676    1.281   .     A
C652   C661    1.410   .     S
C652   O674    1.282   .     A
C653   O677    1.281   .     A
C653   O679    1.283   .     A
C653   C655    1.402   .     S
C654   C656    1.402   .     S
C654   O678    1.281   .     A
C654   O680    1.283   .     A
C656   C705    1.329   .     S
C656   H718    1.088   .     S
C657   C662    1.408   .     A
C657   C683    1.525   .     S
C658   C661    1.408   .     A
C658   C687    1.525   .     S
C658   C810    1.394   .     S
C659   C691    1.522   .     S
C659   C661    1.410   .     A
C659   C807    1.394   .     S
C660   C695    1.522   .     S
C660   C662    1.410   .     A
C663   Cl699   1.754   .     S
C663   N672    1.375   .     A
C664   Cl700   1.754   .     S
C664   N671    1.375   .     A
C664   C1116   1.417   .     S
C665   N671    1.362   .     A
C665   H669    1.082   .     S
C665   C1113   1.417   .     S
C666   H670    1.082   .     S
C666   N672    1.362   .     A
H667   C705    1.088   .     S
N671   Zn681   2.019   .     S
N672   Zn682   2.019   .     S
O673   Zn681   1.987   .     S
O674   Zn682   1.987   .     S
O675   Zn682   1.982   .     S
O676   Zn681   1.982   .     S
O677   Zn681   1.970   .     S
O678   Zn682   1.970   .     S
O679   Zn682   1.979   .     S
O680   Zn681   1.979   .     S
C683   H684    1.110   .     S
C683   H686    1.111   .     S
C683   H685    1.105   .     S
C687   H688    1.110   .     S
C687   H690    1.105   .     S
C687   H689    1.111   .     S
C691   H693    1.109   .     S
C691   H692    1.105   .     S
C691   H694    1.110   .     S
C695   H696    1.105   .     S
C695   H698    1.109   .     S
C695   H697    1.110   .     S
C701   O725    1.281   .     A
C701   C712    1.410   .     S
C701   O723    1.282   .     A
C702   O726    1.281   .     A
C702   C711    1.410   .     S
C702   O724    1.282   .     A
C703   O727    1.281   .     A
C703   O729    1.283   .     A
C703   C705    1.402   .     S
C704   C706    1.402   .     S
C704   O728    1.281   .     A
C704   O730    1.283   .     A
C706   C605    1.329   1_655 S
C706   H618    1.088   1_655 S
C707   C712    1.408   .     A
C707   C733    1.525   .     S
C708   C711    1.408   .     A
C708   C737    1.525   .     S
C708   C860    1.394   .     S
C709   C741    1.522   .     S
C709   C711    1.410   .     A
C709   C857    1.394   .     S
C710   C745    1.522   .     S
C710   C712    1.410   .     A
C713   Cl749   1.754   .     S
C713   N722    1.375   .     A
C714   Cl750   1.754   .     S
C714   N721    1.375   .     A
C714   C1166   1.417   .     S
C715   N721    1.362   .     A
C715   H719    1.082   .     S
C715   C1163   1.417   .     S
C716   H720    1.082   .     S
C716   N722    1.362   .     A
H717   C605    1.088   1_655 S
N721   Zn731   2.019   .     S
N722   Zn732   2.019   .     S
O723   Zn731   1.987   .     S
O724   Zn732   1.987   .     S
O725   Zn732   1.982   .     S
O726   Zn731   1.982   .     S
O727   Zn731   1.970   .     S
O728   Zn732   1.970   .     S
O729   Zn732   1.979   .     S
O730   Zn731   1.979   .     S
C733   H734    1.110   .     S
C733   H736    1.111   .     S
C733   H735    1.105   .     S
C737   H738    1.110   .     S
C737   H740    1.105   .     S
C737   H739    1.111   .     S
C741   H743    1.109   .     S
C741   H742    1.105   .     S
C741   H744    1.110   .     S
C745   H746    1.105   .     S
C745   H748    1.109   .     S
C745   H747    1.110   .     S
C751   O775    1.281   .     A
C751   C762    1.410   .     S
C751   O773    1.282   .     A
C752   O776    1.281   .     A
C752   C761    1.410   .     S
C752   O774    1.282   .     A
C753   O777    1.281   .     A
C753   O779    1.283   .     A
C753   C755    1.402   .     S
C754   C756    1.402   .     S
C754   O778    1.281   .     A
C754   O780    1.283   .     A
C755   C856    1.329   1_455 S
C755   H867    1.088   1_455 S
C756   C805    1.329   .     S
C756   H818    1.088   .     S
C757   C762    1.408   .     A
C757   C783    1.525   .     S
C758   C761    1.408   .     A
C758   C787    1.525   .     S
C758   C460    1.394   1_565 S
C759   C791    1.522   .     S
C759   C761    1.410   .     A
C759   C457    1.394   1_565 S
C760   C795    1.522   .     S
C760   C762    1.410   .     A
C763   Cl799   1.754   .     S
C763   N772    1.375   .     A
C764   Cl800   1.754   .     S
C764   N771    1.375   .     A
C764   C1216   1.417   .     S
C765   N771    1.362   .     A
C765   H769    1.082   .     S
C765   C1213   1.417   .     S
C766   H770    1.082   .     S
C766   N772    1.362   .     A
H767   C805    1.088   .     S
H768   C856    1.088   1_455 S
N771   Zn781   2.019   .     S
N772   Zn782   2.019   .     S
O773   Zn781   1.987   .     S
O774   Zn782   1.987   .     S
O775   Zn782   1.982   .     S
O776   Zn781   1.982   .     S
O777   Zn781   1.970   .     S
O778   Zn782   1.970   .     S
O779   Zn782   1.979   .     S
O780   Zn781   1.979   .     S
C783   H784    1.110   .     S
C783   H786    1.111   .     S
C783   H785    1.105   .     S
C787   H788    1.110   .     S
C787   H790    1.105   .     S
C787   H789    1.111   .     S
C791   H793    1.109   .     S
C791   H792    1.105   .     S
C791   H794    1.110   .     S
C795   H796    1.105   .     S
C795   H798    1.109   .     S
C795   H797    1.110   .     S
C801   O825    1.281   .     A
C801   C812    1.410   .     S
C801   O823    1.282   .     A
C802   O826    1.281   .     A
C802   C811    1.410   .     S
C802   O824    1.282   .     A
C803   O827    1.281   .     A
C803   O829    1.283   .     A
C803   C805    1.402   .     S
C804   C806    1.402   .     S
C804   O828    1.281   .     A
C804   O830    1.283   .     A
C806   C855    1.329   .     S
C806   H868    1.088   .     S
C807   C812    1.408   .     A
C807   C833    1.525   .     S
C808   C811    1.408   .     A
C808   C837    1.525   .     S
C808   C510    1.394   1_565 S
C809   C841    1.522   .     S
C809   C811    1.410   .     A
C809   C507    1.394   1_565 S
C810   C845    1.522   .     S
C810   C812    1.410   .     A
C813   Cl849   1.754   .     S
C813   N822    1.375   .     A
C814   Cl850   1.754   .     S
C814   N821    1.375   .     A
C814   C1266   1.417   .     S
C815   N821    1.362   .     A
C815   H819    1.082   .     S
C815   C1263   1.417   .     S
C816   H820    1.082   .     S
C816   N822    1.362   .     A
H817   C855    1.088   .     S
N821   Zn831   2.019   .     S
N822   Zn832   2.019   .     S
O823   Zn831   1.987   .     S
O824   Zn832   1.987   .     S
O825   Zn832   1.982   .     S
O826   Zn831   1.982   .     S
O827   Zn831   1.970   .     S
O828   Zn832   1.970   .     S
O829   Zn832   1.979   .     S
O830   Zn831   1.979   .     S
C833   H834    1.110   .     S
C833   H836    1.111   .     S
C833   H835    1.105   .     S
C837   H838    1.110   .     S
C837   H840    1.105   .     S
C837   H839    1.111   .     S
C841   H843    1.109   .     S
C841   H842    1.105   .     S
C841   H844    1.110   .     S
C845   H846    1.105   .     S
C845   H848    1.109   .     S
C845   H847    1.110   .     S
C851   O875    1.281   .     A
C851   C862    1.410   .     S
C851   O873    1.282   .     A
C852   O876    1.281   .     A
C852   C861    1.410   .     S
C852   O874    1.282   .     A
C853   O877    1.281   .     A
C853   O879    1.283   .     A
C853   C855    1.402   .     S
C854   C856    1.402   .     S
C854   O878    1.281   .     A
C854   O880    1.283   .     A
C856   C755    1.329   1_655 S
C856   H768    1.088   1_655 S
C857   C862    1.408   .     A
C857   C883    1.525   .     S
C858   C861    1.408   .     A
C858   C887    1.525   .     S
C858   C560    1.394   1_565 S
C859   C891    1.522   .     S
C859   C861    1.410   .     A
C859   C557    1.394   1_565 S
C860   C895    1.522   .     S
C860   C862    1.410   .     A
C863   Cl899   1.754   .     S
C863   N872    1.375   .     A
C864   Cl900   1.754   .     S
C864   N871    1.375   .     A
C864   C1316   1.417   .     S
C865   N871    1.362   .     A
C865   H869    1.082   .     S
C865   C1313   1.417   .     S
C866   H870    1.082   .     S
C866   N872    1.362   .     A
H867   C755    1.088   1_655 S
N871   Zn881   2.019   .     S
N872   Zn882   2.019   .     S
O873   Zn881   1.987   .     S
O874   Zn882   1.987   .     S
O875   Zn882   1.982   .     S
O876   Zn881   1.982   .     S
O877   Zn881   1.970   .     S
O878   Zn882   1.970   .     S
O879   Zn882   1.979   .     S
O880   Zn881   1.979   .     S
C883   H884    1.110   .     S
C883   H886    1.111   .     S
C883   H885    1.105   .     S
C887   H888    1.110   .     S
C887   H890    1.105   .     S
C887   H889    1.111   .     S
C891   H893    1.109   .     S
C891   H892    1.105   .     S
C891   H894    1.110   .     S
C895   H896    1.105   .     S
C895   H898    1.109   .     S
C895   H897    1.110   .     S
C901   O925    1.281   .     A
C901   C912    1.410   .     S
C901   O923    1.282   .     A
C902   O926    1.281   .     A
C902   C911    1.410   .     S
C902   O924    1.282   .     A
C903   O927    1.281   .     A
C903   O929    1.283   .     A
C903   C905    1.402   .     S
C904   C906    1.402   .     S
C904   O928    1.281   .     A
C904   O930    1.283   .     A
C905   C1006   1.329   1_455 S
C905   H1017   1.088   1_455 S
C906   C955    1.329   .     S
C906   H968    1.088   .     S
C907   C912    1.408   .     A
C907   C933    1.525   .     S
C907   C1209   1.394   1_545 S
C908   C911    1.408   .     A
C908   C937    1.525   .     S
C908   C1060   1.394   .     S
C909   C941    1.522   .     S
C909   C911    1.410   .     A
C909   C1057   1.394   .     S
C910   C945    1.522   .     S
C910   C912    1.410   .     A
C910   C1208   1.394   1_545 S
C913   Cl949   1.754   .     S
C913   N922    1.375   .     A
C914   Cl950   1.754   .     S
C914   N921    1.375   .     A
C914   C16     1.417   1_556 S
C915   N921    1.362   .     A
C915   H919    1.082   .     S
C915   C13     1.417   1_556 S
C916   H920    1.082   .     S
C916   N922    1.362   .     A
H917   C955    1.088   .     S
H918   C1006   1.088   1_455 S
N921   Zn931   2.019   .     S
N922   Zn932   2.019   .     S
O923   Zn931   1.987   .     S
O924   Zn932   1.987   .     S
O925   Zn932   1.982   .     S
O926   Zn931   1.982   .     S
O927   Zn931   1.970   .     S
O928   Zn932   1.970   .     S
O929   Zn932   1.979   .     S
O930   Zn931   1.979   .     S
C933   H934    1.110   .     S
C933   H936    1.111   .     S
C933   H935    1.105   .     S
C937   H938    1.110   .     S
C937   H940    1.105   .     S
C937   H939    1.111   .     S
C941   H943    1.109   .     S
C941   H942    1.105   .     S
C941   H944    1.110   .     S
C945   H946    1.105   .     S
C945   H948    1.109   .     S
C945   H947    1.110   .     S
C951   O975    1.281   .     A
C951   C962    1.410   .     S
C951   O973    1.282   .     A
C952   O976    1.281   .     A
C952   C961    1.410   .     S
C952   O974    1.282   .     A
C953   O977    1.281   .     A
C953   O979    1.283   .     A
C953   C955    1.402   .     S
C954   C956    1.402   .     S
C954   O978    1.281   .     A
C954   O980    1.283   .     A
C956   C1005   1.329   .     S
C956   H1018   1.088   .     S
C957   C962    1.408   .     A
C957   C983    1.525   .     S
C957   C1259   1.394   1_545 S
C958   C961    1.408   .     A
C958   C987    1.525   .     S
C958   C1110   1.394   .     S
C959   C991    1.522   .     S
C959   C961    1.410   .     A
C959   C1107   1.394   .     S
C960   C995    1.522   .     S
C960   C962    1.410   .     A
C960   C1258   1.394   1_545 S
C963   Cl999   1.754   .     S
C963   N972    1.375   .     A
C964   Cl1000  1.754   .     S
C964   N971    1.375   .     A
C964   C66     1.417   1_556 S
C965   N971    1.362   .     A
C965   H969    1.082   .     S
C965   C63     1.417   1_556 S
C966   H970    1.082   .     S
C966   N972    1.362   .     A
H967   C1005   1.088   .     S
N971   Zn981   2.019   .     S
N972   Zn982   2.019   .     S
O973   Zn981   1.987   .     S
O974   Zn982   1.987   .     S
O975   Zn982   1.982   .     S
O976   Zn981   1.982   .     S
O977   Zn981   1.970   .     S
O978   Zn982   1.970   .     S
O979   Zn982   1.979   .     S
O980   Zn981   1.979   .     S
C983   H984    1.110   .     S
C983   H986    1.111   .     S
C983   H985    1.105   .     S
C987   H988    1.110   .     S
C987   H990    1.105   .     S
C987   H989    1.111   .     S
C991   H993    1.109   .     S
C991   H992    1.105   .     S
C991   H994    1.110   .     S
C995   H996    1.105   .     S
C995   H998    1.109   .     S
C995   H997    1.110   .     S
C1001  O1025   1.281   .     A
C1001  C1012   1.410   .     S
C1001  O1023   1.282   .     A
C1002  O1026   1.281   .     A
C1002  C1011   1.410   .     S
C1002  O1024   1.282   .     A
C1003  O1027   1.281   .     A
C1003  O1029   1.283   .     A
C1003  C1005   1.402   .     S
C1004  C1006   1.402   .     S
C1004  O1028   1.281   .     A
C1004  O1030   1.283   .     A
C1006  C905    1.329   1_655 S
C1006  H918    1.088   1_655 S
C1007  C1012   1.408   .     A
C1007  C1033   1.525   .     S
C1007  C1309   1.394   1_545 S
C1008  C1011   1.408   .     A
C1008  C1037   1.525   .     S
C1008  C1160   1.394   .     S
C1009  C1041   1.522   .     S
C1009  C1011   1.410   .     A
C1009  C1157   1.394   .     S
C1010  C1045   1.522   .     S
C1010  C1012   1.410   .     A
C1010  C1308   1.394   1_545 S
C1013  Cl1049  1.754   .     S
C1013  N1022   1.375   .     A
C1014  Cl1050  1.754   .     S
C1014  N1021   1.375   .     A
C1014  C116    1.417   1_556 S
C1015  N1021   1.362   .     A
C1015  H1019   1.082   .     S
C1015  C113    1.417   1_556 S
C1016  H1020   1.082   .     S
C1016  N1022   1.362   .     A
H1017  C905    1.088   1_655 S
N1021  Zn1031  2.019   .     S
N1022  Zn1032  2.019   .     S
O1023  Zn1031  1.987   .     S
O1024  Zn1032  1.987   .     S
O1025  Zn1032  1.982   .     S
O1026  Zn1031  1.982   .     S
O1027  Zn1031  1.970   .     S
O1028  Zn1032  1.970   .     S
O1029  Zn1032  1.979   .     S
O1030  Zn1031  1.979   .     S
C1033  H1034   1.110   .     S
C1033  H1036   1.111   .     S
C1033  H1035   1.105   .     S
C1037  H1038   1.110   .     S
C1037  H1040   1.105   .     S
C1037  H1039   1.111   .     S
C1041  H1043   1.109   .     S
C1041  H1042   1.105   .     S
C1041  H1044   1.110   .     S
C1045  H1046   1.105   .     S
C1045  H1048   1.109   .     S
C1045  H1047   1.110   .     S
C1051  O1075   1.281   .     A
C1051  C1062   1.410   .     S
C1051  O1073   1.282   .     A
C1052  O1076   1.281   .     A
C1052  C1061   1.410   .     S
C1052  O1074   1.282   .     A
C1053  O1077   1.281   .     A
C1053  O1079   1.283   .     A
C1053  C1055   1.402   .     S
C1054  C1056   1.402   .     S
C1054  O1078   1.281   .     A
C1054  O1080   1.283   .     A
C1055  C1156   1.329   1_455 S
C1055  H1167   1.088   1_455 S
C1056  C1105   1.329   .     S
C1056  H1118   1.088   .     S
C1057  C1062   1.408   .     A
C1057  C1083   1.525   .     S
C1058  C1061   1.408   .     A
C1058  C1087   1.525   .     S
C1058  C1210   1.394   .     S
C1059  C1091   1.522   .     S
C1059  C1061   1.410   .     A
C1059  C1207   1.394   .     S
C1060  C1095   1.522   .     S
C1060  C1062   1.410   .     A
C1063  Cl1099  1.754   .     S
C1063  N1072   1.375   .     A
C1064  Cl1100  1.754   .     S
C1064  N1071   1.375   .     A
C1064  C166    1.417   1_556 S
C1065  N1071   1.362   .     A
C1065  H1069   1.082   .     S
C1065  C163    1.417   1_556 S
C1066  H1070   1.082   .     S
C1066  N1072   1.362   .     A
H1067  C1105   1.088   .     S
H1068  C1156   1.088   1_455 S
N1071  Zn1081  2.019   .     S
N1072  Zn1082  2.019   .     S
O1073  Zn1081  1.987   .     S
O1074  Zn1082  1.987   .     S
O1075  Zn1082  1.982   .     S
O1076  Zn1081  1.982   .     S
O1077  Zn1081  1.970   .     S
O1078  Zn1082  1.970   .     S
O1079  Zn1082  1.979   .     S
O1080  Zn1081  1.979   .     S
C1083  H1084   1.110   .     S
C1083  H1086   1.111   .     S
C1083  H1085   1.105   .     S
C1087  H1088   1.110   .     S
C1087  H1090   1.105   .     S
C1087  H1089   1.111   .     S
C1091  H1093   1.109   .     S
C1091  H1092   1.105   .     S
C1091  H1094   1.110   .     S
C1095  H1096   1.105   .     S
C1095  H1098   1.109   .     S
C1095  H1097   1.110   .     S
C1101  O1125   1.281   .     A
C1101  C1112   1.410   .     S
C1101  O1123   1.282   .     A
C1102  O1126   1.281   .     A
C1102  C1111   1.410   .     S
C1102  O1124   1.282   .     A
C1103  O1127   1.281   .     A
C1103  O1129   1.283   .     A
C1103  C1105   1.402   .     S
C1104  C1106   1.402   .     S
C1104  O1128   1.281   .     A
C1104  O1130   1.283   .     A
C1106  C1155   1.329   .     S
C1106  H1168   1.088   .     S
C1107  C1112   1.408   .     A
C1107  C1133   1.525   .     S
C1108  C1111   1.408   .     A
C1108  C1137   1.525   .     S
C1108  C1260   1.394   .     S
C1109  C1141   1.522   .     S
C1109  C1111   1.410   .     A
C1109  C1257   1.394   .     S
C1110  C1145   1.522   .     S
C1110  C1112   1.410   .     A
C1113  Cl1149  1.754   .     S
C1113  N1122   1.375   .     A
C1114  Cl1150  1.754   .     S
C1114  N1121   1.375   .     A
C1114  C216    1.417   1_556 S
C1115  N1121   1.362   .     A
C1115  H1119   1.082   .     S
C1115  C213    1.417   1_556 S
C1116  H1120   1.082   .     S
C1116  N1122   1.362   .     A
H1117  C1155   1.088   .     S
N1121  Zn1131  2.019   .     S
N1122  Zn1132  2.019   .     S
O1123  Zn1131  1.987   .     S
O1124  Zn1132  1.987   .     S
O1125  Zn1132  1.982   .     S
O1126  Zn1131  1.982   .     S
O1127  Zn1131  1.970   .     S
O1128  Zn1132  1.970   .     S
O1129  Zn1132  1.979   .     S
O1130  Zn1131  1.979   .     S
C1133  H1134   1.110   .     S
C1133  H1136   1.111   .     S
C1133  H1135   1.105   .     S
C1137  H1138   1.110   .     S
C1137  H1140   1.105   .     S
C1137  H1139   1.111   .     S
C1141  H1143   1.109   .     S
C1141  H1142   1.105   .     S
C1141  H1144   1.110   .     S
C1145  H1146   1.105   .     S
C1145  H1148   1.109   .     S
C1145  H1147   1.110   .     S
C1151  O1175   1.281   .     A
C1151  C1162   1.410   .     S
C1151  O1173   1.282   .     A
C1152  O1176   1.281   .     A
C1152  C1161   1.410   .     S
C1152  O1174   1.282   .     A
C1153  O1177   1.281   .     A
C1153  O1179   1.283   .     A
C1153  C1155   1.402   .     S
C1154  C1156   1.402   .     S
C1154  O1178   1.281   .     A
C1154  O1180   1.283   .     A
C1156  C1055   1.329   1_655 S
C1156  H1068   1.088   1_655 S
C1157  C1162   1.408   .     A
C1157  C1183   1.525   .     S
C1158  C1161   1.408   .     A
C1158  C1187   1.525   .     S
C1158  C1310   1.394   .     S
C1159  C1191   1.522   .     S
C1159  C1161   1.410   .     A
C1159  C1307   1.394   .     S
C1160  C1195   1.522   .     S
C1160  C1162   1.410   .     A
C1163  Cl1199  1.754   .     S
C1163  N1172   1.375   .     A
C1164  Cl1200  1.754   .     S
C1164  N1171   1.375   .     A
C1164  C266    1.417   1_556 S
C1165  N1171   1.362   .     A
C1165  H1169   1.082   .     S
C1165  C263    1.417   1_556 S
C1166  H1170   1.082   .     S
C1166  N1172   1.362   .     A
H1167  C1055   1.088   1_655 S
N1171  Zn1181  2.019   .     S
N1172  Zn1182  2.019   .     S
O1173  Zn1181  1.987   .     S
O1174  Zn1182  1.987   .     S
O1175  Zn1182  1.982   .     S
O1176  Zn1181  1.982   .     S
O1177  Zn1181  1.970   .     S
O1178  Zn1182  1.970   .     S
O1179  Zn1182  1.979   .     S
O1180  Zn1181  1.979   .     S
C1183  H1184   1.110   .     S
C1183  H1186   1.111   .     S
C1183  H1185   1.105   .     S
C1187  H1188   1.110   .     S
C1187  H1190   1.105   .     S
C1187  H1189   1.111   .     S
C1191  H1193   1.109   .     S
C1191  H1192   1.105   .     S
C1191  H1194   1.110   .     S
C1195  H1196   1.105   .     S
C1195  H1198   1.109   .     S
C1195  H1197   1.110   .     S
C1201  O1225   1.281   .     A
C1201  C1212   1.410   .     S
C1201  O1223   1.282   .     A
C1202  O1226   1.281   .     A
C1202  C1211   1.410   .     S
C1202  O1224   1.282   .     A
C1203  O1227   1.281   .     A
C1203  O1229   1.283   .     A
C1203  C1205   1.402   .     S
C1204  C1206   1.402   .     S
C1204  O1228   1.281   .     A
C1204  O1230   1.283   .     A
C1205  C1306   1.329   1_455 S
C1205  H1317   1.088   1_455 S
C1206  C1255   1.329   .     S
C1206  H1268   1.088   .     S
C1207  C1212   1.408   .     A
C1207  C1233   1.525   .     S
C1208  C1211   1.408   .     A
C1208  C1237   1.525   .     S
C1208  C910    1.394   1_565 S
C1209  C1241   1.522   .     S
C1209  C1211   1.410   .     A
C1209  C907    1.394   1_565 S
C1210  C1245   1.522   .     S
C1210  C1212   1.410   .     A
C1213  Cl1249  1.754   .     S
C1213  N1222   1.375   .     A
C1214  Cl1250  1.754   .     S
C1214  N1221   1.375   .     A
C1214  C316    1.417   1_556 S
C1215  N1221   1.362   .     A
C1215  H1219   1.082   .     S
C1215  C313    1.417   1_556 S
C1216  H1220   1.082   .     S
C1216  N1222   1.362   .     A
H1217  C1255   1.088   .     S
H1218  C1306   1.088   1_455 S
N1221  Zn1231  2.019   .     S
N1222  Zn1232  2.019   .     S
O1223  Zn1231  1.987   .     S
O1224  Zn1232  1.987   .     S
O1225  Zn1232  1.982   .     S
O1226  Zn1231  1.982   .     S
O1227  Zn1231  1.970   .     S
O1228  Zn1232  1.970   .     S
O1229  Zn1232  1.979   .     S
O1230  Zn1231  1.979   .     S
C1233  H1234   1.110   .     S
C1233  H1236   1.111   .     S
C1233  H1235   1.105   .     S
C1237  H1238   1.110   .     S
C1237  H1240   1.105   .     S
C1237  H1239   1.111   .     S
C1241  H1243   1.109   .     S
C1241  H1242   1.105   .     S
C1241  H1244   1.110   .     S
C1245  H1246   1.105   .     S
C1245  H1248   1.109   .     S
C1245  H1247   1.110   .     S
C1251  O1275   1.281   .     A
C1251  C1262   1.410   .     S
C1251  O1273   1.282   .     A
C1252  O1276   1.281   .     A
C1252  C1261   1.410   .     S
C1252  O1274   1.282   .     A
C1253  O1277   1.281   .     A
C1253  O1279   1.283   .     A
C1253  C1255   1.402   .     S
C1254  C1256   1.402   .     S
C1254  O1278   1.281   .     A
C1254  O1280   1.283   .     A
C1256  C1305   1.329   .     S
C1256  H1318   1.088   .     S
C1257  C1262   1.408   .     A
C1257  C1283   1.525   .     S
C1258  C1261   1.408   .     A
C1258  C1287   1.525   .     S
C1258  C960    1.394   1_565 S
C1259  C1291   1.522   .     S
C1259  C1261   1.410   .     A
C1259  C957    1.394   1_565 S
C1260  C1295   1.522   .     S
C1260  C1262   1.410   .     A
C1263  Cl1299  1.754   .     S
C1263  N1272   1.375   .     A
C1264  Cl1300  1.754   .     S
C1264  N1271   1.375   .     A
C1264  C366    1.417   1_556 S
C1265  N1271   1.362   .     A
C1265  H1269   1.082   .     S
C1265  C363    1.417   1_556 S
C1266  H1270   1.082   .     S
C1266  N1272   1.362   .     A
H1267  C1305   1.088   .     S
N1271  Zn1281  2.019   .     S
N1272  Zn1282  2.019   .     S
O1273  Zn1281  1.987   .     S
O1274  Zn1282  1.987   .     S
O1275  Zn1282  1.982   .     S
O1276  Zn1281  1.982   .     S
O1277  Zn1281  1.970   .     S
O1278  Zn1282  1.970   .     S
O1279  Zn1282  1.979   .     S
O1280  Zn1281  1.979   .     S
C1283  H1284   1.110   .     S
C1283  H1286   1.111   .     S
C1283  H1285   1.105   .     S
C1287  H1288   1.110   .     S
C1287  H1290   1.105   .     S
C1287  H1289   1.111   .     S
C1291  H1293   1.109   .     S
C1291  H1292   1.105   .     S
C1291  H1294   1.110   .     S
C1295  H1296   1.105   .     S
C1295  H1298   1.109   .     S
C1295  H1297   1.110   .     S
C1301  O1325   1.281   .     A
C1301  C1312   1.410   .     S
C1301  O1323   1.282   .     A
C1302  O1326   1.281   .     A
C1302  C1311   1.410   .     S
C1302  O1324   1.282   .     A
C1303  O1327   1.281   .     A
C1303  O1329   1.283   .     A
C1303  C1305   1.402   .     S
C1304  C1306   1.402   .     S
C1304  O1328   1.281   .     A
C1304  O1330   1.283   .     A
C1306  C1205   1.329   1_655 S
C1306  H1218   1.088   1_655 S
C1307  C1312   1.408   .     A
C1307  C1333   1.525   .     S
C1308  C1311   1.408   .     A
C1308  C1337   1.525   .     S
C1308  C1010   1.394   1_565 S
C1309  C1341   1.522   .     S
C1309  C1311   1.410   .     A
C1309  C1007   1.394   1_565 S
C1310  C1345   1.522   .     S
C1310  C1312   1.410   .     A
C1313  Cl1349  1.754   .     S
C1313  N1322   1.375   .     A
C1314  Cl1350  1.754   .     S
C1314  N1321   1.375   .     A
C1314  C416    1.417   1_556 S
C1315  N1321   1.362   .     A
C1315  H1319   1.082   .     S
C1315  C413    1.417   1_556 S
C1316  H1320   1.082   .     S
C1316  N1322   1.362   .     A
H1317  C1205   1.088   1_655 S
N1321  Zn1331  2.019   .     S
N1322  Zn1332  2.019   .     S
O1323  Zn1331  1.987   .     S
O1324  Zn1332  1.987   .     S
O1325  Zn1332  1.982   .     S
O1326  Zn1331  1.982   .     S
O1327  Zn1331  1.970   .     S
O1328  Zn1332  1.970   .     S
O1329  Zn1332  1.979   .     S
O1330  Zn1331  1.979   .     S
C1333  H1334   1.110   .     S
C1333  H1336   1.111   .     S
C1333  H1335   1.105   .     S
C1337  H1338   1.110   .     S
C1337  H1340   1.105   .     S
C1337  H1339   1.111   .     S
C1341  H1343   1.109   .     S
C1341  H1342   1.105   .     S
C1341  H1344   1.110   .     S
C1345  H1346   1.105   .     S
C1345  H1348   1.109   .     S
C1345  H1347   1.110   .     S
