data_str_m2_o1_o16_pcu_sym.161
_audit_creation_date              2020-01-03
_audit_creation_method            'Materials Studio'
_symmetry_space_group_name_H-M    'P1'
_symmetry_Int_Tables_number       1
_symmetry_cell_setting            triclinic
loop_
_symmetry_equiv_pos_as_xyz
  x,y,z
_cell_length_a                    28.6861
_cell_length_b                    32.4058
_cell_length_c                    26.8310
_cell_angle_alpha                 90.5828
_cell_angle_beta                  73.3532
_cell_angle_gamma                 89.3692
loop_
_atom_site_label
_atom_site_type_symbol
_atom_site_fract_x
_atom_site_fract_y
_atom_site_fract_z
_atom_site_U_iso_or_equiv
_atom_site_adp_type
_atom_site_occupancy
C1     C     0.16605   0.24585   0.25157   0.00000  Uiso   1.00
C2     C     0.14964   0.14390   0.48672   0.00000  Uiso   1.00
C3     C     0.16480   0.14388   0.43163   0.00000  Uiso   1.00
C4     C     0.18484   0.15149   0.01370   0.00000  Uiso   1.00
C5     C     0.23114   0.16603   0.48513   0.00000  Uiso   1.00
C6     C     0.24796   0.15779   0.43160   0.00000  Uiso   1.00
C7     C     0.21540   0.14106   0.40669   0.00000  Uiso   1.00
C8     C     0.17638   0.14565   0.06752   0.00000  Uiso   1.00
C9     C     0.24767   0.18641   0.06530   0.00000  Uiso   1.00
C10    C     0.12901   0.14738   0.40411   0.00000  Uiso   1.00
C11    C     0.20570   0.31041   0.22043   0.00000  Uiso   1.00
C12    C     0.14154   0.16053   0.34901   0.00000  Uiso   1.00
C13    C     0.20675   0.02004   0.21828   0.00000  Uiso   1.00
C14    C     0.16705   0.04279   0.24956   0.00000  Uiso   1.00
C15    C     0.12663   0.02295   0.28171   0.00000  Uiso   1.00
C16    C     0.12572   0.31357   0.28470   0.00000  Uiso   1.00
C17    C     0.16553   0.29049   0.25291   0.00000  Uiso   1.00
C18    C     0.30113   0.19661   0.27620   0.00000  Uiso   1.00
C19    C     0.01736   0.19668   0.27602   0.00000  Uiso   1.00
C20    C     0.03255   0.13668   0.22431   0.00000  Uiso   1.00
C21    C     0.31701   0.13673   0.22335   0.00000  Uiso   1.00
C22    C     0.16702   0.08744   0.24928   0.00000  Uiso   1.00
C23    C     0.19238   0.16620   0.15021   0.00000  Uiso   1.00
C24    C     0.26122   0.18510   0.01126   0.00000  Uiso   1.00
C25    C     0.20620   0.16562   0.09351   0.00000  Uiso   1.00
C26    C     0.08035   0.13927   0.43060   0.00000  Uiso   1.00
C27    C     0.06648   0.13308   0.48408   0.00000  Uiso   1.00
C28    C     0.09969   0.13922   0.01232   0.00000  Uiso   1.00
Cu29   Cu    0.11978   0.16666   0.25000   0.00000  Uiso   1.00
Cu30   Cu    0.21355   0.16667   0.25000   0.00000  Uiso   1.00
H31    H     0.27071   0.20200   0.08501   0.00000  Uiso   1.00
H32    H     0.09629   0.04083   0.30608   0.00000  Uiso   1.00
H33    H     0.27658   0.22044   0.29763   0.00000  Uiso   1.00
H34    H     0.02988   0.22064   0.29722   0.00000  Uiso   1.00
H35    H     0.05736   0.11281   0.20338   0.00000  Uiso   1.00
H36    H     0.29551   0.19851   0.49005   0.00000  Uiso   1.00
H37    H     0.05310   0.13784   0.40988   0.00000  Uiso   1.00
H38    H     0.08530   0.14108   0.05403   0.00000  Uiso   1.00
H39    H     0.23576   0.29239   0.19580   0.00000  Uiso   1.00
N40    N     0.04931   0.16666   0.24998   0.00000  Uiso   1.00
N41    N     0.28402   0.16669   0.25000   0.00000  Uiso   1.00
O42    O     0.12708   0.22678   0.25000   0.00000  Uiso   1.00
O43    O     0.20627   0.22679   0.25000   0.00000  Uiso   1.00
O44    O     0.10775   0.16665   0.32549   0.00000  Uiso   1.00
O45    O     0.18694   0.16666   0.32549   0.00000  Uiso   1.00
O46    O     0.12706   0.10654   0.25000   0.00000  Uiso   1.00
O47    O     0.20625   0.10655   0.25000   0.00000  Uiso   1.00
O48    O     0.14640   0.16667   0.17451   0.00000  Uiso   1.00
O49    O     0.22559   0.16668   0.17451   0.00000  Uiso   1.00
O50    O     0.24495   0.04019   0.18458   0.00000  Uiso   1.00
H51    H     0.26957   0.01958   0.16543   0.00000  Uiso   1.00
O52    O     0.08621   0.29610   0.31985   0.00000  Uiso   1.00
H53    H     0.09545   0.26830   0.32898   0.00000  Uiso   1.00
O54    O     0.30455   0.10564   0.19478   0.00000  Uiso   1.00
H55    H     0.27829   0.11596   0.18143   0.00000  Uiso   1.00
O56    O     0.29679   0.16253   0.40624   0.00000  Uiso   1.00
H57    H     0.30247   0.15729   0.36861   0.00000  Uiso   1.00
Cl58   Cl    0.13998   0.10421   0.09908   0.00000  Uiso   1.00
Cl59   Cl    0.00728   0.11776   0.01637   0.00000  Uiso   1.00
Cl60   Cl    0.23804   0.10426   0.35593   0.00000  Uiso   1.00
C61    C     0.49938   0.24585   0.25157   0.00000  Uiso   1.00
C62    C     0.48297   0.14390   0.48672   0.00000  Uiso   1.00
C63    C     0.49814   0.14388   0.43163   0.00000  Uiso   1.00
C64    C     0.51817   0.15149   0.01370   0.00000  Uiso   1.00
C65    C     0.56447   0.16603   0.48513   0.00000  Uiso   1.00
C66    C     0.58129   0.15779   0.43160   0.00000  Uiso   1.00
C67    C     0.54873   0.14106   0.40669   0.00000  Uiso   1.00
C68    C     0.50971   0.14565   0.06752   0.00000  Uiso   1.00
C69    C     0.58100   0.18641   0.06530   0.00000  Uiso   1.00
C70    C     0.46234   0.14738   0.40411   0.00000  Uiso   1.00
C71    C     0.53903   0.31041   0.22043   0.00000  Uiso   1.00
C72    C     0.47488   0.16053   0.34901   0.00000  Uiso   1.00
C73    C     0.54009   0.02004   0.21828   0.00000  Uiso   1.00
C74    C     0.50038   0.04279   0.24956   0.00000  Uiso   1.00
C75    C     0.45996   0.02295   0.28171   0.00000  Uiso   1.00
C76    C     0.45905   0.31357   0.28470   0.00000  Uiso   1.00
C77    C     0.49886   0.29049   0.25291   0.00000  Uiso   1.00
C78    C     0.63446   0.19661   0.27620   0.00000  Uiso   1.00
C79    C     0.35069   0.19668   0.27602   0.00000  Uiso   1.00
C80    C     0.36588   0.13668   0.22431   0.00000  Uiso   1.00
C81    C     0.65034   0.13673   0.22335   0.00000  Uiso   1.00
C82    C     0.50035   0.08744   0.24928   0.00000  Uiso   1.00
C83    C     0.52572   0.16620   0.15021   0.00000  Uiso   1.00
C84    C     0.59455   0.18510   0.01126   0.00000  Uiso   1.00
C85    C     0.53954   0.16562   0.09351   0.00000  Uiso   1.00
C86    C     0.41369   0.13927   0.43060   0.00000  Uiso   1.00
C87    C     0.39981   0.13308   0.48408   0.00000  Uiso   1.00
C88    C     0.43302   0.13922   0.01232   0.00000  Uiso   1.00
Cu89   Cu    0.45311   0.16666   0.25000   0.00000  Uiso   1.00
Cu90   Cu    0.54689   0.16667   0.25000   0.00000  Uiso   1.00
H91    H     0.60404   0.20200   0.08501   0.00000  Uiso   1.00
H92    H     0.42962   0.04083   0.30608   0.00000  Uiso   1.00
H93    H     0.60992   0.22044   0.29763   0.00000  Uiso   1.00
H94    H     0.36322   0.22064   0.29722   0.00000  Uiso   1.00
H95    H     0.39069   0.11281   0.20338   0.00000  Uiso   1.00
H96    H     0.62884   0.19851   0.49005   0.00000  Uiso   1.00
H97    H     0.38644   0.13784   0.40988   0.00000  Uiso   1.00
H98    H     0.41863   0.14108   0.05403   0.00000  Uiso   1.00
H99    H     0.56910   0.29239   0.19580   0.00000  Uiso   1.00
N100   N     0.38265   0.16666   0.24998   0.00000  Uiso   1.00
N101   N     0.61735   0.16669   0.25000   0.00000  Uiso   1.00
O102   O     0.46042   0.22678   0.25000   0.00000  Uiso   1.00
O103   O     0.53961   0.22679   0.25000   0.00000  Uiso   1.00
O104   O     0.44108   0.16665   0.32549   0.00000  Uiso   1.00
O105   O     0.52027   0.16666   0.32549   0.00000  Uiso   1.00
O106   O     0.46039   0.10654   0.25000   0.00000  Uiso   1.00
O107   O     0.53958   0.10655   0.25000   0.00000  Uiso   1.00
O108   O     0.47973   0.16667   0.17451   0.00000  Uiso   1.00
O109   O     0.55892   0.16668   0.17451   0.00000  Uiso   1.00
O110   O     0.57828   0.04019   0.18458   0.00000  Uiso   1.00
H111   H     0.60290   0.01958   0.16543   0.00000  Uiso   1.00
O112   O     0.41954   0.29610   0.31985   0.00000  Uiso   1.00
H113   H     0.42879   0.26830   0.32898   0.00000  Uiso   1.00
O114   O     0.63788   0.10564   0.19478   0.00000  Uiso   1.00
H115   H     0.61162   0.11596   0.18143   0.00000  Uiso   1.00
O116   O     0.63012   0.16253   0.40624   0.00000  Uiso   1.00
H117   H     0.63580   0.15729   0.36861   0.00000  Uiso   1.00
Cl118  Cl    0.47331   0.10421   0.09908   0.00000  Uiso   1.00
Cl119  Cl    0.34061   0.11776   0.01637   0.00000  Uiso   1.00
Cl120  Cl    0.57137   0.10426   0.35593   0.00000  Uiso   1.00
C121   C     0.83271   0.24585   0.25157   0.00000  Uiso   1.00
C122   C     0.81631   0.14390   0.48672   0.00000  Uiso   1.00
C123   C     0.83147   0.14388   0.43163   0.00000  Uiso   1.00
C124   C     0.85150   0.15149   0.01370   0.00000  Uiso   1.00
C125   C     0.89781   0.16603   0.48513   0.00000  Uiso   1.00
C126   C     0.91463   0.15779   0.43160   0.00000  Uiso   1.00
C127   C     0.88206   0.14106   0.40669   0.00000  Uiso   1.00
C128   C     0.84304   0.14565   0.06752   0.00000  Uiso   1.00
C129   C     0.91433   0.18641   0.06530   0.00000  Uiso   1.00
C130   C     0.79568   0.14738   0.40411   0.00000  Uiso   1.00
C131   C     0.87237   0.31041   0.22043   0.00000  Uiso   1.00
C132   C     0.80821   0.16053   0.34901   0.00000  Uiso   1.00
C133   C     0.87342   0.02004   0.21828   0.00000  Uiso   1.00
C134   C     0.83371   0.04279   0.24956   0.00000  Uiso   1.00
C135   C     0.79330   0.02295   0.28171   0.00000  Uiso   1.00
C136   C     0.79238   0.31357   0.28470   0.00000  Uiso   1.00
C137   C     0.83219   0.29049   0.25291   0.00000  Uiso   1.00
C138   C     0.96779   0.19661   0.27620   0.00000  Uiso   1.00
C139   C     0.68402   0.19668   0.27602   0.00000  Uiso   1.00
C140   C     0.69921   0.13668   0.22431   0.00000  Uiso   1.00
C141   C     0.98367   0.13673   0.22335   0.00000  Uiso   1.00
C142   C     0.83368   0.08744   0.24928   0.00000  Uiso   1.00
C143   C     0.85905   0.16620   0.15021   0.00000  Uiso   1.00
C144   C     0.92789   0.18510   0.01126   0.00000  Uiso   1.00
C145   C     0.87287   0.16562   0.09351   0.00000  Uiso   1.00
C146   C     0.74702   0.13927   0.43060   0.00000  Uiso   1.00
C147   C     0.73315   0.13308   0.48408   0.00000  Uiso   1.00
C148   C     0.76636   0.13922   0.01232   0.00000  Uiso   1.00
Cu149  Cu    0.78645   0.16666   0.25000   0.00000  Uiso   1.00
Cu150  Cu    0.88022   0.16667   0.25000   0.00000  Uiso   1.00
H151   H     0.93738   0.20200   0.08501   0.00000  Uiso   1.00
H152   H     0.76295   0.04083   0.30608   0.00000  Uiso   1.00
H153   H     0.94325   0.22044   0.29763   0.00000  Uiso   1.00
H154   H     0.69655   0.22064   0.29722   0.00000  Uiso   1.00
H155   H     0.72403   0.11281   0.20338   0.00000  Uiso   1.00
H156   H     0.96218   0.19851   0.49005   0.00000  Uiso   1.00
H157   H     0.71977   0.13784   0.40988   0.00000  Uiso   1.00
H158   H     0.75196   0.14108   0.05403   0.00000  Uiso   1.00
H159   H     0.90243   0.29239   0.19580   0.00000  Uiso   1.00
N160   N     0.71598   0.16666   0.24998   0.00000  Uiso   1.00
N161   N     0.95069   0.16669   0.25000   0.00000  Uiso   1.00
O162   O     0.79375   0.22678   0.25000   0.00000  Uiso   1.00
O163   O     0.87294   0.22679   0.25000   0.00000  Uiso   1.00
O164   O     0.77441   0.16665   0.32549   0.00000  Uiso   1.00
O165   O     0.85360   0.16666   0.32549   0.00000  Uiso   1.00
O166   O     0.79373   0.10654   0.25000   0.00000  Uiso   1.00
O167   O     0.87292   0.10655   0.25000   0.00000  Uiso   1.00
O168   O     0.81306   0.16667   0.17451   0.00000  Uiso   1.00
O169   O     0.89225   0.16668   0.17451   0.00000  Uiso   1.00
O170   O     0.91161   0.04019   0.18458   0.00000  Uiso   1.00
H171   H     0.93624   0.01958   0.16543   0.00000  Uiso   1.00
O172   O     0.75287   0.29610   0.31985   0.00000  Uiso   1.00
H173   H     0.76212   0.26830   0.32898   0.00000  Uiso   1.00
O174   O     0.97121   0.10564   0.19478   0.00000  Uiso   1.00
H175   H     0.94495   0.11596   0.18143   0.00000  Uiso   1.00
O176   O     0.96346   0.16253   0.40624   0.00000  Uiso   1.00
H177   H     0.96913   0.15729   0.36861   0.00000  Uiso   1.00
Cl178  Cl    0.80664   0.10421   0.09908   0.00000  Uiso   1.00
Cl179  Cl    0.67394   0.11776   0.01637   0.00000  Uiso   1.00
Cl180  Cl    0.90470   0.10426   0.35593   0.00000  Uiso   1.00
C181   C     0.16605   0.57918   0.25157   0.00000  Uiso   1.00
C182   C     0.14964   0.47723   0.48672   0.00000  Uiso   1.00
C183   C     0.16480   0.47721   0.43163   0.00000  Uiso   1.00
C184   C     0.18484   0.48482   0.01370   0.00000  Uiso   1.00
C185   C     0.23114   0.49936   0.48513   0.00000  Uiso   1.00
C186   C     0.24796   0.49113   0.43160   0.00000  Uiso   1.00
C187   C     0.21540   0.47439   0.40669   0.00000  Uiso   1.00
C188   C     0.17638   0.47899   0.06752   0.00000  Uiso   1.00
C189   C     0.24767   0.51974   0.06530   0.00000  Uiso   1.00
C190   C     0.12901   0.48071   0.40411   0.00000  Uiso   1.00
C191   C     0.20570   0.64374   0.22043   0.00000  Uiso   1.00
C192   C     0.14154   0.49387   0.34901   0.00000  Uiso   1.00
C193   C     0.20675   0.35337   0.21828   0.00000  Uiso   1.00
C194   C     0.16705   0.37613   0.24956   0.00000  Uiso   1.00
C195   C     0.12663   0.35628   0.28171   0.00000  Uiso   1.00
C196   C     0.12572   0.64690   0.28470   0.00000  Uiso   1.00
C197   C     0.16553   0.62382   0.25291   0.00000  Uiso   1.00
C198   C     0.30113   0.52995   0.27620   0.00000  Uiso   1.00
C199   C     0.01736   0.53001   0.27602   0.00000  Uiso   1.00
C200   C     0.03255   0.47001   0.22431   0.00000  Uiso   1.00
C201   C     0.31701   0.47006   0.22335   0.00000  Uiso   1.00
C202   C     0.16702   0.42077   0.24928   0.00000  Uiso   1.00
C203   C     0.19238   0.49953   0.15021   0.00000  Uiso   1.00
C204   C     0.26122   0.51843   0.01126   0.00000  Uiso   1.00
C205   C     0.20620   0.49895   0.09351   0.00000  Uiso   1.00
C206   C     0.08035   0.47260   0.43060   0.00000  Uiso   1.00
C207   C     0.06648   0.46641   0.48408   0.00000  Uiso   1.00
C208   C     0.09969   0.47256   0.01232   0.00000  Uiso   1.00
Cu209  Cu    0.11978   0.49999   0.25000   0.00000  Uiso   1.00
Cu210  Cu    0.21355   0.50001   0.25000   0.00000  Uiso   1.00
H211   H     0.27071   0.53533   0.08501   0.00000  Uiso   1.00
H212   H     0.09629   0.37416   0.30608   0.00000  Uiso   1.00
H213   H     0.27658   0.55378   0.29763   0.00000  Uiso   1.00
H214   H     0.02988   0.55397   0.29722   0.00000  Uiso   1.00
H215   H     0.05736   0.44615   0.20338   0.00000  Uiso   1.00
H216   H     0.29551   0.53184   0.49005   0.00000  Uiso   1.00
H217   H     0.05310   0.47118   0.40988   0.00000  Uiso   1.00
H218   H     0.08530   0.47442   0.05403   0.00000  Uiso   1.00
H219   H     0.23576   0.62573   0.19580   0.00000  Uiso   1.00
N220   N     0.04931   0.49999   0.24998   0.00000  Uiso   1.00
N221   N     0.28402   0.50002   0.25000   0.00000  Uiso   1.00
O222   O     0.12708   0.56011   0.25000   0.00000  Uiso   1.00
O223   O     0.20627   0.56012   0.25000   0.00000  Uiso   1.00
O224   O     0.10775   0.49998   0.32549   0.00000  Uiso   1.00
O225   O     0.18694   0.49999   0.32549   0.00000  Uiso   1.00
O226   O     0.12706   0.43988   0.25000   0.00000  Uiso   1.00
O227   O     0.20625   0.43989   0.25000   0.00000  Uiso   1.00
O228   O     0.14640   0.50001   0.17451   0.00000  Uiso   1.00
O229   O     0.22559   0.50002   0.17451   0.00000  Uiso   1.00
O230   O     0.24495   0.37352   0.18458   0.00000  Uiso   1.00
H231   H     0.26957   0.35292   0.16543   0.00000  Uiso   1.00
O232   O     0.08621   0.62943   0.31985   0.00000  Uiso   1.00
H233   H     0.09545   0.60163   0.32898   0.00000  Uiso   1.00
O234   O     0.30455   0.43898   0.19478   0.00000  Uiso   1.00
H235   H     0.27829   0.44929   0.18143   0.00000  Uiso   1.00
O236   O     0.29679   0.49587   0.40624   0.00000  Uiso   1.00
H237   H     0.30247   0.49063   0.36861   0.00000  Uiso   1.00
Cl238  Cl    0.13998   0.43755   0.09908   0.00000  Uiso   1.00
Cl239  Cl    0.00728   0.45109   0.01637   0.00000  Uiso   1.00
Cl240  Cl    0.23804   0.43759   0.35593   0.00000  Uiso   1.00
C241   C     0.49938   0.57918   0.25157   0.00000  Uiso   1.00
C242   C     0.48297   0.47723   0.48672   0.00000  Uiso   1.00
C243   C     0.49814   0.47721   0.43163   0.00000  Uiso   1.00
C244   C     0.51817   0.48482   0.01370   0.00000  Uiso   1.00
C245   C     0.56447   0.49936   0.48513   0.00000  Uiso   1.00
C246   C     0.58129   0.49113   0.43160   0.00000  Uiso   1.00
C247   C     0.54873   0.47439   0.40669   0.00000  Uiso   1.00
C248   C     0.50971   0.47899   0.06752   0.00000  Uiso   1.00
C249   C     0.58100   0.51974   0.06530   0.00000  Uiso   1.00
C250   C     0.46234   0.48071   0.40411   0.00000  Uiso   1.00
C251   C     0.53903   0.64374   0.22043   0.00000  Uiso   1.00
C252   C     0.47488   0.49387   0.34901   0.00000  Uiso   1.00
C253   C     0.54009   0.35337   0.21828   0.00000  Uiso   1.00
C254   C     0.50038   0.37613   0.24956   0.00000  Uiso   1.00
C255   C     0.45996   0.35628   0.28171   0.00000  Uiso   1.00
C256   C     0.45905   0.64690   0.28470   0.00000  Uiso   1.00
C257   C     0.49886   0.62382   0.25291   0.00000  Uiso   1.00
C258   C     0.63446   0.52995   0.27620   0.00000  Uiso   1.00
C259   C     0.35069   0.53001   0.27602   0.00000  Uiso   1.00
C260   C     0.36588   0.47001   0.22431   0.00000  Uiso   1.00
C261   C     0.65034   0.47006   0.22335   0.00000  Uiso   1.00
C262   C     0.50035   0.42077   0.24928   0.00000  Uiso   1.00
C263   C     0.52572   0.49953   0.15021   0.00000  Uiso   1.00
C264   C     0.59455   0.51843   0.01126   0.00000  Uiso   1.00
C265   C     0.53954   0.49895   0.09351   0.00000  Uiso   1.00
C266   C     0.41369   0.47260   0.43060   0.00000  Uiso   1.00
C267   C     0.39981   0.46641   0.48408   0.00000  Uiso   1.00
C268   C     0.43302   0.47256   0.01232   0.00000  Uiso   1.00
Cu269  Cu    0.45311   0.49999   0.25000   0.00000  Uiso   1.00
Cu270  Cu    0.54689   0.50001   0.25000   0.00000  Uiso   1.00
H271   H     0.60404   0.53533   0.08501   0.00000  Uiso   1.00
H272   H     0.42962   0.37416   0.30608   0.00000  Uiso   1.00
H273   H     0.60992   0.55378   0.29763   0.00000  Uiso   1.00
H274   H     0.36322   0.55397   0.29722   0.00000  Uiso   1.00
H275   H     0.39069   0.44615   0.20338   0.00000  Uiso   1.00
H276   H     0.62884   0.53184   0.49005   0.00000  Uiso   1.00
H277   H     0.38644   0.47118   0.40988   0.00000  Uiso   1.00
H278   H     0.41863   0.47442   0.05403   0.00000  Uiso   1.00
H279   H     0.56910   0.62573   0.19580   0.00000  Uiso   1.00
N280   N     0.38265   0.49999   0.24998   0.00000  Uiso   1.00
N281   N     0.61735   0.50002   0.25000   0.00000  Uiso   1.00
O282   O     0.46042   0.56011   0.25000   0.00000  Uiso   1.00
O283   O     0.53961   0.56012   0.25000   0.00000  Uiso   1.00
O284   O     0.44108   0.49998   0.32549   0.00000  Uiso   1.00
O285   O     0.52027   0.49999   0.32549   0.00000  Uiso   1.00
O286   O     0.46039   0.43988   0.25000   0.00000  Uiso   1.00
O287   O     0.53958   0.43989   0.25000   0.00000  Uiso   1.00
O288   O     0.47973   0.50001   0.17451   0.00000  Uiso   1.00
O289   O     0.55892   0.50002   0.17451   0.00000  Uiso   1.00
O290   O     0.57828   0.37352   0.18458   0.00000  Uiso   1.00
H291   H     0.60290   0.35292   0.16543   0.00000  Uiso   1.00
O292   O     0.41954   0.62943   0.31985   0.00000  Uiso   1.00
H293   H     0.42879   0.60163   0.32898   0.00000  Uiso   1.00
O294   O     0.63788   0.43898   0.19478   0.00000  Uiso   1.00
H295   H     0.61162   0.44929   0.18143   0.00000  Uiso   1.00
O296   O     0.63012   0.49587   0.40624   0.00000  Uiso   1.00
H297   H     0.63580   0.49063   0.36861   0.00000  Uiso   1.00
Cl298  Cl    0.47331   0.43755   0.09908   0.00000  Uiso   1.00
Cl299  Cl    0.34061   0.45109   0.01637   0.00000  Uiso   1.00
Cl300  Cl    0.57137   0.43759   0.35593   0.00000  Uiso   1.00
C301   C     0.83271   0.57918   0.25157   0.00000  Uiso   1.00
C302   C     0.81631   0.47723   0.48672   0.00000  Uiso   1.00
C303   C     0.83147   0.47721   0.43163   0.00000  Uiso   1.00
C304   C     0.85150   0.48482   0.01370   0.00000  Uiso   1.00
C305   C     0.89781   0.49936   0.48513   0.00000  Uiso   1.00
C306   C     0.91463   0.49113   0.43160   0.00000  Uiso   1.00
C307   C     0.88206   0.47439   0.40669   0.00000  Uiso   1.00
C308   C     0.84304   0.47899   0.06752   0.00000  Uiso   1.00
C309   C     0.91433   0.51974   0.06530   0.00000  Uiso   1.00
C310   C     0.79568   0.48071   0.40411   0.00000  Uiso   1.00
C311   C     0.87237   0.64374   0.22043   0.00000  Uiso   1.00
C312   C     0.80821   0.49387   0.34901   0.00000  Uiso   1.00
C313   C     0.87342   0.35337   0.21828   0.00000  Uiso   1.00
C314   C     0.83371   0.37613   0.24956   0.00000  Uiso   1.00
C315   C     0.79330   0.35628   0.28171   0.00000  Uiso   1.00
C316   C     0.79238   0.64690   0.28470   0.00000  Uiso   1.00
C317   C     0.83219   0.62382   0.25291   0.00000  Uiso   1.00
C318   C     0.96779   0.52995   0.27620   0.00000  Uiso   1.00
C319   C     0.68402   0.53001   0.27602   0.00000  Uiso   1.00
C320   C     0.69921   0.47001   0.22431   0.00000  Uiso   1.00
C321   C     0.98367   0.47006   0.22335   0.00000  Uiso   1.00
C322   C     0.83368   0.42077   0.24928   0.00000  Uiso   1.00
C323   C     0.85905   0.49953   0.15021   0.00000  Uiso   1.00
C324   C     0.92789   0.51843   0.01126   0.00000  Uiso   1.00
C325   C     0.87287   0.49895   0.09351   0.00000  Uiso   1.00
C326   C     0.74702   0.47260   0.43060   0.00000  Uiso   1.00
C327   C     0.73315   0.46641   0.48408   0.00000  Uiso   1.00
C328   C     0.76636   0.47256   0.01232   0.00000  Uiso   1.00
Cu329  Cu    0.78645   0.49999   0.25000   0.00000  Uiso   1.00
Cu330  Cu    0.88022   0.50001   0.25000   0.00000  Uiso   1.00
H331   H     0.93738   0.53533   0.08501   0.00000  Uiso   1.00
H332   H     0.76295   0.37416   0.30608   0.00000  Uiso   1.00
H333   H     0.94325   0.55378   0.29763   0.00000  Uiso   1.00
H334   H     0.69655   0.55397   0.29722   0.00000  Uiso   1.00
H335   H     0.72403   0.44615   0.20338   0.00000  Uiso   1.00
H336   H     0.96218   0.53184   0.49005   0.00000  Uiso   1.00
H337   H     0.71977   0.47118   0.40988   0.00000  Uiso   1.00
H338   H     0.75196   0.47442   0.05403   0.00000  Uiso   1.00
H339   H     0.90243   0.62573   0.19580   0.00000  Uiso   1.00
N340   N     0.71598   0.49999   0.24998   0.00000  Uiso   1.00
N341   N     0.95069   0.50002   0.25000   0.00000  Uiso   1.00
O342   O     0.79375   0.56011   0.25000   0.00000  Uiso   1.00
O343   O     0.87294   0.56012   0.25000   0.00000  Uiso   1.00
O344   O     0.77441   0.49998   0.32549   0.00000  Uiso   1.00
O345   O     0.85360   0.49999   0.32549   0.00000  Uiso   1.00
O346   O     0.79373   0.43988   0.25000   0.00000  Uiso   1.00
O347   O     0.87292   0.43989   0.25000   0.00000  Uiso   1.00
O348   O     0.81306   0.50001   0.17451   0.00000  Uiso   1.00
O349   O     0.89225   0.50002   0.17451   0.00000  Uiso   1.00
O350   O     0.91161   0.37352   0.18458   0.00000  Uiso   1.00
H351   H     0.93624   0.35292   0.16543   0.00000  Uiso   1.00
O352   O     0.75287   0.62943   0.31985   0.00000  Uiso   1.00
H353   H     0.76212   0.60163   0.32898   0.00000  Uiso   1.00
O354   O     0.97121   0.43898   0.19478   0.00000  Uiso   1.00
H355   H     0.94495   0.44929   0.18143   0.00000  Uiso   1.00
O356   O     0.96346   0.49587   0.40624   0.00000  Uiso   1.00
H357   H     0.96913   0.49063   0.36861   0.00000  Uiso   1.00
Cl358  Cl    0.80664   0.43755   0.09908   0.00000  Uiso   1.00
Cl359  Cl    0.67394   0.45109   0.01637   0.00000  Uiso   1.00
Cl360  Cl    0.90470   0.43759   0.35593   0.00000  Uiso   1.00
C361   C     0.16605   0.91252   0.25157   0.00000  Uiso   1.00
C362   C     0.14964   0.81056   0.48672   0.00000  Uiso   1.00
C363   C     0.16480   0.81054   0.43163   0.00000  Uiso   1.00
C364   C     0.18484   0.81816   0.01370   0.00000  Uiso   1.00
C365   C     0.23114   0.83269   0.48513   0.00000  Uiso   1.00
C366   C     0.24796   0.82446   0.43160   0.00000  Uiso   1.00
C367   C     0.21540   0.80773   0.40669   0.00000  Uiso   1.00
C368   C     0.17638   0.81232   0.06752   0.00000  Uiso   1.00
C369   C     0.24767   0.85308   0.06530   0.00000  Uiso   1.00
C370   C     0.12901   0.81404   0.40411   0.00000  Uiso   1.00
C371   C     0.20570   0.97708   0.22043   0.00000  Uiso   1.00
C372   C     0.14154   0.82720   0.34901   0.00000  Uiso   1.00
C373   C     0.20675   0.68671   0.21828   0.00000  Uiso   1.00
C374   C     0.16705   0.70946   0.24956   0.00000  Uiso   1.00
C375   C     0.12663   0.68961   0.28171   0.00000  Uiso   1.00
C376   C     0.12572   0.98024   0.28470   0.00000  Uiso   1.00
C377   C     0.16553   0.95715   0.25291   0.00000  Uiso   1.00
C378   C     0.30113   0.86328   0.27620   0.00000  Uiso   1.00
C379   C     0.01736   0.86335   0.27602   0.00000  Uiso   1.00
C380   C     0.03255   0.80335   0.22431   0.00000  Uiso   1.00
C381   C     0.31701   0.80340   0.22335   0.00000  Uiso   1.00
C382   C     0.16702   0.75410   0.24928   0.00000  Uiso   1.00
C383   C     0.19238   0.83287   0.15021   0.00000  Uiso   1.00
C384   C     0.26122   0.85177   0.01126   0.00000  Uiso   1.00
C385   C     0.20620   0.83228   0.09351   0.00000  Uiso   1.00
C386   C     0.08035   0.80593   0.43060   0.00000  Uiso   1.00
C387   C     0.06648   0.79974   0.48408   0.00000  Uiso   1.00
C388   C     0.09969   0.80589   0.01232   0.00000  Uiso   1.00
Cu389  Cu    0.11978   0.83333   0.25000   0.00000  Uiso   1.00
Cu390  Cu    0.21355   0.83334   0.25000   0.00000  Uiso   1.00
H391   H     0.27071   0.86866   0.08501   0.00000  Uiso   1.00
H392   H     0.09629   0.70750   0.30608   0.00000  Uiso   1.00
H393   H     0.27658   0.88711   0.29763   0.00000  Uiso   1.00
H394   H     0.02988   0.88730   0.29722   0.00000  Uiso   1.00
H395   H     0.05736   0.77948   0.20338   0.00000  Uiso   1.00
H396   H     0.29551   0.86517   0.49005   0.00000  Uiso   1.00
H397   H     0.05310   0.80451   0.40988   0.00000  Uiso   1.00
H398   H     0.08530   0.80775   0.05403   0.00000  Uiso   1.00
H399   H     0.23576   0.95906   0.19580   0.00000  Uiso   1.00
N400   N     0.04931   0.83332   0.24998   0.00000  Uiso   1.00
N401   N     0.28402   0.83335   0.25000   0.00000  Uiso   1.00
O402   O     0.12708   0.89345   0.25000   0.00000  Uiso   1.00
O403   O     0.20627   0.89346   0.25000   0.00000  Uiso   1.00
O404   O     0.10775   0.83332   0.32549   0.00000  Uiso   1.00
O405   O     0.18694   0.83333   0.32549   0.00000  Uiso   1.00
O406   O     0.12706   0.77321   0.25000   0.00000  Uiso   1.00
O407   O     0.20625   0.77322   0.25000   0.00000  Uiso   1.00
O408   O     0.14640   0.83334   0.17451   0.00000  Uiso   1.00
O409   O     0.22559   0.83335   0.17451   0.00000  Uiso   1.00
O410   O     0.24495   0.70686   0.18458   0.00000  Uiso   1.00
H411   H     0.26957   0.68625   0.16543   0.00000  Uiso   1.00
O412   O     0.08621   0.96277   0.31985   0.00000  Uiso   1.00
H413   H     0.09545   0.93496   0.32898   0.00000  Uiso   1.00
O414   O     0.30455   0.77231   0.19478   0.00000  Uiso   1.00
H415   H     0.27829   0.78262   0.18143   0.00000  Uiso   1.00
O416   O     0.29679   0.82920   0.40624   0.00000  Uiso   1.00
H417   H     0.30247   0.82396   0.36861   0.00000  Uiso   1.00
Cl418  Cl    0.13998   0.77088   0.09908   0.00000  Uiso   1.00
Cl419  Cl    0.00728   0.78442   0.01637   0.00000  Uiso   1.00
Cl420  Cl    0.23804   0.77093   0.35593   0.00000  Uiso   1.00
C421   C     0.49938   0.91252   0.25157   0.00000  Uiso   1.00
C422   C     0.48297   0.81056   0.48672   0.00000  Uiso   1.00
C423   C     0.49814   0.81054   0.43163   0.00000  Uiso   1.00
C424   C     0.51817   0.81816   0.01370   0.00000  Uiso   1.00
C425   C     0.56447   0.83269   0.48513   0.00000  Uiso   1.00
C426   C     0.58129   0.82446   0.43160   0.00000  Uiso   1.00
C427   C     0.54873   0.80773   0.40669   0.00000  Uiso   1.00
C428   C     0.50971   0.81232   0.06752   0.00000  Uiso   1.00
C429   C     0.58100   0.85308   0.06530   0.00000  Uiso   1.00
C430   C     0.46234   0.81404   0.40411   0.00000  Uiso   1.00
C431   C     0.53903   0.97708   0.22043   0.00000  Uiso   1.00
C432   C     0.47488   0.82720   0.34901   0.00000  Uiso   1.00
C433   C     0.54009   0.68671   0.21828   0.00000  Uiso   1.00
C434   C     0.50038   0.70946   0.24956   0.00000  Uiso   1.00
C435   C     0.45996   0.68961   0.28171   0.00000  Uiso   1.00
C436   C     0.45905   0.98024   0.28470   0.00000  Uiso   1.00
C437   C     0.49886   0.95715   0.25291   0.00000  Uiso   1.00
C438   C     0.63446   0.86328   0.27620   0.00000  Uiso   1.00
C439   C     0.35069   0.86335   0.27602   0.00000  Uiso   1.00
C440   C     0.36588   0.80335   0.22431   0.00000  Uiso   1.00
C441   C     0.65034   0.80340   0.22335   0.00000  Uiso   1.00
C442   C     0.50035   0.75410   0.24928   0.00000  Uiso   1.00
C443   C     0.52572   0.83287   0.15021   0.00000  Uiso   1.00
C444   C     0.59455   0.85177   0.01126   0.00000  Uiso   1.00
C445   C     0.53954   0.83228   0.09351   0.00000  Uiso   1.00
C446   C     0.41369   0.80593   0.43060   0.00000  Uiso   1.00
C447   C     0.39981   0.79974   0.48408   0.00000  Uiso   1.00
C448   C     0.43302   0.80589   0.01232   0.00000  Uiso   1.00
Cu449  Cu    0.45311   0.83333   0.25000   0.00000  Uiso   1.00
Cu450  Cu    0.54689   0.83334   0.25000   0.00000  Uiso   1.00
H451   H     0.60404   0.86866   0.08501   0.00000  Uiso   1.00
H452   H     0.42962   0.70750   0.30608   0.00000  Uiso   1.00
H453   H     0.60992   0.88711   0.29763   0.00000  Uiso   1.00
H454   H     0.36322   0.88730   0.29722   0.00000  Uiso   1.00
H455   H     0.39069   0.77948   0.20338   0.00000  Uiso   1.00
H456   H     0.62884   0.86517   0.49005   0.00000  Uiso   1.00
H457   H     0.38644   0.80451   0.40988   0.00000  Uiso   1.00
H458   H     0.41863   0.80775   0.05403   0.00000  Uiso   1.00
H459   H     0.56910   0.95906   0.19580   0.00000  Uiso   1.00
N460   N     0.38265   0.83332   0.24998   0.00000  Uiso   1.00
N461   N     0.61735   0.83335   0.25000   0.00000  Uiso   1.00
O462   O     0.46042   0.89345   0.25000   0.00000  Uiso   1.00
O463   O     0.53961   0.89346   0.25000   0.00000  Uiso   1.00
O464   O     0.44108   0.83332   0.32549   0.00000  Uiso   1.00
O465   O     0.52027   0.83333   0.32549   0.00000  Uiso   1.00
O466   O     0.46039   0.77321   0.25000   0.00000  Uiso   1.00
O467   O     0.53958   0.77322   0.25000   0.00000  Uiso   1.00
O468   O     0.47973   0.83334   0.17451   0.00000  Uiso   1.00
O469   O     0.55892   0.83335   0.17451   0.00000  Uiso   1.00
O470   O     0.57828   0.70686   0.18458   0.00000  Uiso   1.00
H471   H     0.60290   0.68625   0.16543   0.00000  Uiso   1.00
O472   O     0.41954   0.96277   0.31985   0.00000  Uiso   1.00
H473   H     0.42879   0.93496   0.32898   0.00000  Uiso   1.00
O474   O     0.63788   0.77231   0.19478   0.00000  Uiso   1.00
H475   H     0.61162   0.78262   0.18143   0.00000  Uiso   1.00
O476   O     0.63012   0.82920   0.40624   0.00000  Uiso   1.00
H477   H     0.63580   0.82396   0.36861   0.00000  Uiso   1.00
Cl478  Cl    0.47331   0.77088   0.09908   0.00000  Uiso   1.00
Cl479  Cl    0.34061   0.78442   0.01637   0.00000  Uiso   1.00
Cl480  Cl    0.57137   0.77093   0.35593   0.00000  Uiso   1.00
C481   C     0.83271   0.91252   0.25157   0.00000  Uiso   1.00
C482   C     0.81631   0.81056   0.48672   0.00000  Uiso   1.00
C483   C     0.83147   0.81054   0.43163   0.00000  Uiso   1.00
C484   C     0.85150   0.81816   0.01370   0.00000  Uiso   1.00
C485   C     0.89781   0.83269   0.48513   0.00000  Uiso   1.00
C486   C     0.91463   0.82446   0.43160   0.00000  Uiso   1.00
C487   C     0.88206   0.80773   0.40669   0.00000  Uiso   1.00
C488   C     0.84304   0.81232   0.06752   0.00000  Uiso   1.00
C489   C     0.91433   0.85308   0.06530   0.00000  Uiso   1.00
C490   C     0.79568   0.81404   0.40411   0.00000  Uiso   1.00
C491   C     0.87237   0.97708   0.22043   0.00000  Uiso   1.00
C492   C     0.80821   0.82720   0.34901   0.00000  Uiso   1.00
C493   C     0.87342   0.68671   0.21828   0.00000  Uiso   1.00
C494   C     0.83371   0.70946   0.24956   0.00000  Uiso   1.00
C495   C     0.79330   0.68961   0.28171   0.00000  Uiso   1.00
C496   C     0.79238   0.98024   0.28470   0.00000  Uiso   1.00
C497   C     0.83219   0.95715   0.25291   0.00000  Uiso   1.00
C498   C     0.96779   0.86328   0.27620   0.00000  Uiso   1.00
C499   C     0.68402   0.86335   0.27602   0.00000  Uiso   1.00
C500   C     0.69921   0.80335   0.22431   0.00000  Uiso   1.00
C501   C     0.98367   0.80340   0.22335   0.00000  Uiso   1.00
C502   C     0.83368   0.75410   0.24928   0.00000  Uiso   1.00
C503   C     0.85905   0.83287   0.15021   0.00000  Uiso   1.00
C504   C     0.92789   0.85177   0.01126   0.00000  Uiso   1.00
C505   C     0.87287   0.83228   0.09351   0.00000  Uiso   1.00
C506   C     0.74702   0.80593   0.43060   0.00000  Uiso   1.00
C507   C     0.73315   0.79974   0.48408   0.00000  Uiso   1.00
C508   C     0.76636   0.80589   0.01232   0.00000  Uiso   1.00
Cu509  Cu    0.78645   0.83333   0.25000   0.00000  Uiso   1.00
Cu510  Cu    0.88022   0.83334   0.25000   0.00000  Uiso   1.00
H511   H     0.93738   0.86866   0.08501   0.00000  Uiso   1.00
H512   H     0.76295   0.70750   0.30608   0.00000  Uiso   1.00
H513   H     0.94325   0.88711   0.29763   0.00000  Uiso   1.00
H514   H     0.69655   0.88730   0.29722   0.00000  Uiso   1.00
H515   H     0.72403   0.77948   0.20338   0.00000  Uiso   1.00
H516   H     0.96218   0.86517   0.49005   0.00000  Uiso   1.00
H517   H     0.71977   0.80451   0.40988   0.00000  Uiso   1.00
H518   H     0.75196   0.80775   0.05403   0.00000  Uiso   1.00
H519   H     0.90243   0.95906   0.19580   0.00000  Uiso   1.00
N520   N     0.71598   0.83332   0.24998   0.00000  Uiso   1.00
N521   N     0.95069   0.83335   0.25000   0.00000  Uiso   1.00
O522   O     0.79375   0.89345   0.25000   0.00000  Uiso   1.00
O523   O     0.87294   0.89346   0.25000   0.00000  Uiso   1.00
O524   O     0.77441   0.83332   0.32549   0.00000  Uiso   1.00
O525   O     0.85360   0.83333   0.32549   0.00000  Uiso   1.00
O526   O     0.79373   0.77321   0.25000   0.00000  Uiso   1.00
O527   O     0.87292   0.77322   0.25000   0.00000  Uiso   1.00
O528   O     0.81306   0.83334   0.17451   0.00000  Uiso   1.00
O529   O     0.89225   0.83335   0.17451   0.00000  Uiso   1.00
O530   O     0.91161   0.70686   0.18458   0.00000  Uiso   1.00
H531   H     0.93624   0.68625   0.16543   0.00000  Uiso   1.00
O532   O     0.75287   0.96277   0.31985   0.00000  Uiso   1.00
H533   H     0.76212   0.93496   0.32898   0.00000  Uiso   1.00
O534   O     0.97121   0.77231   0.19478   0.00000  Uiso   1.00
H535   H     0.94495   0.78262   0.18143   0.00000  Uiso   1.00
O536   O     0.96346   0.82920   0.40624   0.00000  Uiso   1.00
H537   H     0.96913   0.82396   0.36861   0.00000  Uiso   1.00
Cl538  Cl    0.80664   0.77088   0.09908   0.00000  Uiso   1.00
Cl539  Cl    0.67394   0.78442   0.01637   0.00000  Uiso   1.00
Cl540  Cl    0.90470   0.77093   0.35593   0.00000  Uiso   1.00
C541   C     0.16605   0.24585   0.75157   0.00000  Uiso   1.00
C542   C     0.14964   0.14390   0.98672   0.00000  Uiso   1.00
C543   C     0.16480   0.14388   0.93163   0.00000  Uiso   1.00
C544   C     0.18484   0.15149   0.51370   0.00000  Uiso   1.00
C545   C     0.23114   0.16603   0.98513   0.00000  Uiso   1.00
C546   C     0.24796   0.15779   0.93160   0.00000  Uiso   1.00
C547   C     0.21540   0.14106   0.90669   0.00000  Uiso   1.00
C548   C     0.17638   0.14565   0.56752   0.00000  Uiso   1.00
C549   C     0.24767   0.18641   0.56530   0.00000  Uiso   1.00
C550   C     0.12901   0.14738   0.90411   0.00000  Uiso   1.00
C551   C     0.20570   0.31041   0.72043   0.00000  Uiso   1.00
C552   C     0.14154   0.16053   0.84901   0.00000  Uiso   1.00
C553   C     0.20675   0.02004   0.71828   0.00000  Uiso   1.00
C554   C     0.16705   0.04279   0.74956   0.00000  Uiso   1.00
C555   C     0.12663   0.02295   0.78171   0.00000  Uiso   1.00
C556   C     0.12572   0.31357   0.78470   0.00000  Uiso   1.00
C557   C     0.16553   0.29049   0.75291   0.00000  Uiso   1.00
C558   C     0.30113   0.19661   0.77620   0.00000  Uiso   1.00
C559   C     0.01736   0.19668   0.77602   0.00000  Uiso   1.00
C560   C     0.03255   0.13668   0.72431   0.00000  Uiso   1.00
C561   C     0.31701   0.13673   0.72335   0.00000  Uiso   1.00
C562   C     0.16702   0.08744   0.74928   0.00000  Uiso   1.00
C563   C     0.19238   0.16620   0.65021   0.00000  Uiso   1.00
C564   C     0.26122   0.18510   0.51126   0.00000  Uiso   1.00
C565   C     0.20620   0.16562   0.59351   0.00000  Uiso   1.00
C566   C     0.08035   0.13927   0.93060   0.00000  Uiso   1.00
C567   C     0.06648   0.13308   0.98408   0.00000  Uiso   1.00
C568   C     0.09969   0.13922   0.51232   0.00000  Uiso   1.00
Cu569  Cu    0.11978   0.16666   0.75000   0.00000  Uiso   1.00
Cu570  Cu    0.21355   0.16667   0.75000   0.00000  Uiso   1.00
H571   H     0.27071   0.20200   0.58501   0.00000  Uiso   1.00
H572   H     0.09629   0.04083   0.80608   0.00000  Uiso   1.00
H573   H     0.27658   0.22044   0.79763   0.00000  Uiso   1.00
H574   H     0.02988   0.22064   0.79722   0.00000  Uiso   1.00
H575   H     0.05736   0.11281   0.70338   0.00000  Uiso   1.00
H576   H     0.29551   0.19851   0.99005   0.00000  Uiso   1.00
H577   H     0.05310   0.13784   0.90988   0.00000  Uiso   1.00
H578   H     0.08530   0.14108   0.55403   0.00000  Uiso   1.00
H579   H     0.23576   0.29239   0.69580   0.00000  Uiso   1.00
N580   N     0.04931   0.16666   0.74998   0.00000  Uiso   1.00
N581   N     0.28402   0.16669   0.75000   0.00000  Uiso   1.00
O582   O     0.12708   0.22678   0.75000   0.00000  Uiso   1.00
O583   O     0.20627   0.22679   0.75000   0.00000  Uiso   1.00
O584   O     0.10775   0.16665   0.82549   0.00000  Uiso   1.00
O585   O     0.18694   0.16666   0.82549   0.00000  Uiso   1.00
O586   O     0.12706   0.10654   0.75000   0.00000  Uiso   1.00
O587   O     0.20625   0.10655   0.75000   0.00000  Uiso   1.00
O588   O     0.14640   0.16667   0.67451   0.00000  Uiso   1.00
O589   O     0.22559   0.16668   0.67451   0.00000  Uiso   1.00
O590   O     0.24495   0.04019   0.68458   0.00000  Uiso   1.00
H591   H     0.26957   0.01958   0.66543   0.00000  Uiso   1.00
O592   O     0.08621   0.29610   0.81985   0.00000  Uiso   1.00
H593   H     0.09545   0.26830   0.82898   0.00000  Uiso   1.00
O594   O     0.30455   0.10564   0.69478   0.00000  Uiso   1.00
H595   H     0.27829   0.11596   0.68143   0.00000  Uiso   1.00
O596   O     0.29679   0.16253   0.90624   0.00000  Uiso   1.00
H597   H     0.30247   0.15729   0.86861   0.00000  Uiso   1.00
Cl598  Cl    0.13998   0.10421   0.59908   0.00000  Uiso   1.00
Cl599  Cl    0.00728   0.11776   0.51637   0.00000  Uiso   1.00
Cl600  Cl    0.23804   0.10426   0.85593   0.00000  Uiso   1.00
C601   C     0.49938   0.24585   0.75157   0.00000  Uiso   1.00
C602   C     0.48297   0.14390   0.98672   0.00000  Uiso   1.00
C603   C     0.49814   0.14388   0.93163   0.00000  Uiso   1.00
C604   C     0.51817   0.15149   0.51370   0.00000  Uiso   1.00
C605   C     0.56447   0.16603   0.98513   0.00000  Uiso   1.00
C606   C     0.58129   0.15779   0.93160   0.00000  Uiso   1.00
C607   C     0.54873   0.14106   0.90669   0.00000  Uiso   1.00
C608   C     0.50971   0.14565   0.56752   0.00000  Uiso   1.00
C609   C     0.58100   0.18641   0.56530   0.00000  Uiso   1.00
C610   C     0.46234   0.14738   0.90411   0.00000  Uiso   1.00
C611   C     0.53903   0.31041   0.72043   0.00000  Uiso   1.00
C612   C     0.47488   0.16053   0.84901   0.00000  Uiso   1.00
C613   C     0.54009   0.02004   0.71828   0.00000  Uiso   1.00
C614   C     0.50038   0.04279   0.74956   0.00000  Uiso   1.00
C615   C     0.45996   0.02295   0.78171   0.00000  Uiso   1.00
C616   C     0.45905   0.31357   0.78470   0.00000  Uiso   1.00
C617   C     0.49886   0.29049   0.75291   0.00000  Uiso   1.00
C618   C     0.63446   0.19661   0.77620   0.00000  Uiso   1.00
C619   C     0.35069   0.19668   0.77602   0.00000  Uiso   1.00
C620   C     0.36588   0.13668   0.72431   0.00000  Uiso   1.00
C621   C     0.65034   0.13673   0.72335   0.00000  Uiso   1.00
C622   C     0.50035   0.08744   0.74928   0.00000  Uiso   1.00
C623   C     0.52572   0.16620   0.65021   0.00000  Uiso   1.00
C624   C     0.59455   0.18510   0.51126   0.00000  Uiso   1.00
C625   C     0.53954   0.16562   0.59351   0.00000  Uiso   1.00
C626   C     0.41369   0.13927   0.93060   0.00000  Uiso   1.00
C627   C     0.39981   0.13308   0.98408   0.00000  Uiso   1.00
C628   C     0.43302   0.13922   0.51232   0.00000  Uiso   1.00
Cu629  Cu    0.45311   0.16666   0.75000   0.00000  Uiso   1.00
Cu630  Cu    0.54689   0.16667   0.75000   0.00000  Uiso   1.00
H631   H     0.60404   0.20200   0.58501   0.00000  Uiso   1.00
H632   H     0.42962   0.04083   0.80608   0.00000  Uiso   1.00
H633   H     0.60992   0.22044   0.79763   0.00000  Uiso   1.00
H634   H     0.36322   0.22064   0.79722   0.00000  Uiso   1.00
H635   H     0.39069   0.11281   0.70338   0.00000  Uiso   1.00
H636   H     0.62884   0.19851   0.99005   0.00000  Uiso   1.00
H637   H     0.38644   0.13784   0.90988   0.00000  Uiso   1.00
H638   H     0.41863   0.14108   0.55403   0.00000  Uiso   1.00
H639   H     0.56910   0.29239   0.69580   0.00000  Uiso   1.00
N640   N     0.38265   0.16666   0.74998   0.00000  Uiso   1.00
N641   N     0.61735   0.16669   0.75000   0.00000  Uiso   1.00
O642   O     0.46042   0.22678   0.75000   0.00000  Uiso   1.00
O643   O     0.53961   0.22679   0.75000   0.00000  Uiso   1.00
O644   O     0.44108   0.16665   0.82549   0.00000  Uiso   1.00
O645   O     0.52027   0.16666   0.82549   0.00000  Uiso   1.00
O646   O     0.46039   0.10654   0.75000   0.00000  Uiso   1.00
O647   O     0.53958   0.10655   0.75000   0.00000  Uiso   1.00
O648   O     0.47973   0.16667   0.67451   0.00000  Uiso   1.00
O649   O     0.55892   0.16668   0.67451   0.00000  Uiso   1.00
O650   O     0.57828   0.04019   0.68458   0.00000  Uiso   1.00
H651   H     0.60290   0.01958   0.66543   0.00000  Uiso   1.00
O652   O     0.41954   0.29610   0.81985   0.00000  Uiso   1.00
H653   H     0.42879   0.26830   0.82898   0.00000  Uiso   1.00
O654   O     0.63788   0.10564   0.69478   0.00000  Uiso   1.00
H655   H     0.61162   0.11596   0.68143   0.00000  Uiso   1.00
O656   O     0.63012   0.16253   0.90624   0.00000  Uiso   1.00
H657   H     0.63580   0.15729   0.86861   0.00000  Uiso   1.00
Cl658  Cl    0.47331   0.10421   0.59908   0.00000  Uiso   1.00
Cl659  Cl    0.34061   0.11776   0.51637   0.00000  Uiso   1.00
Cl660  Cl    0.57137   0.10426   0.85593   0.00000  Uiso   1.00
C661   C     0.83271   0.24585   0.75157   0.00000  Uiso   1.00
C662   C     0.81631   0.14390   0.98672   0.00000  Uiso   1.00
C663   C     0.83147   0.14388   0.93163   0.00000  Uiso   1.00
C664   C     0.85150   0.15149   0.51370   0.00000  Uiso   1.00
C665   C     0.89781   0.16603   0.98513   0.00000  Uiso   1.00
C666   C     0.91463   0.15779   0.93160   0.00000  Uiso   1.00
C667   C     0.88206   0.14106   0.90669   0.00000  Uiso   1.00
C668   C     0.84304   0.14565   0.56752   0.00000  Uiso   1.00
C669   C     0.91433   0.18641   0.56530   0.00000  Uiso   1.00
C670   C     0.79568   0.14738   0.90411   0.00000  Uiso   1.00
C671   C     0.87237   0.31041   0.72043   0.00000  Uiso   1.00
C672   C     0.80821   0.16053   0.84901   0.00000  Uiso   1.00
C673   C     0.87342   0.02004   0.71828   0.00000  Uiso   1.00
C674   C     0.83371   0.04279   0.74956   0.00000  Uiso   1.00
C675   C     0.79330   0.02295   0.78171   0.00000  Uiso   1.00
C676   C     0.79238   0.31357   0.78470   0.00000  Uiso   1.00
C677   C     0.83219   0.29049   0.75291   0.00000  Uiso   1.00
C678   C     0.96779   0.19661   0.77620   0.00000  Uiso   1.00
C679   C     0.68402   0.19668   0.77602   0.00000  Uiso   1.00
C680   C     0.69921   0.13668   0.72431   0.00000  Uiso   1.00
C681   C     0.98367   0.13673   0.72335   0.00000  Uiso   1.00
C682   C     0.83368   0.08744   0.74928   0.00000  Uiso   1.00
C683   C     0.85905   0.16620   0.65021   0.00000  Uiso   1.00
C684   C     0.92789   0.18510   0.51126   0.00000  Uiso   1.00
C685   C     0.87287   0.16562   0.59351   0.00000  Uiso   1.00
C686   C     0.74702   0.13927   0.93060   0.00000  Uiso   1.00
C687   C     0.73315   0.13308   0.98408   0.00000  Uiso   1.00
C688   C     0.76636   0.13922   0.51232   0.00000  Uiso   1.00
Cu689  Cu    0.78645   0.16666   0.75000   0.00000  Uiso   1.00
Cu690  Cu    0.88022   0.16667   0.75000   0.00000  Uiso   1.00
H691   H     0.93738   0.20200   0.58501   0.00000  Uiso   1.00
H692   H     0.76295   0.04083   0.80608   0.00000  Uiso   1.00
H693   H     0.94325   0.22044   0.79763   0.00000  Uiso   1.00
H694   H     0.69655   0.22064   0.79722   0.00000  Uiso   1.00
H695   H     0.72403   0.11281   0.70338   0.00000  Uiso   1.00
H696   H     0.96218   0.19851   0.99005   0.00000  Uiso   1.00
H697   H     0.71977   0.13784   0.90988   0.00000  Uiso   1.00
H698   H     0.75196   0.14108   0.55403   0.00000  Uiso   1.00
H699   H     0.90243   0.29239   0.69580   0.00000  Uiso   1.00
N700   N     0.71598   0.16666   0.74998   0.00000  Uiso   1.00
N701   N     0.95069   0.16669   0.75000   0.00000  Uiso   1.00
O702   O     0.79375   0.22678   0.75000   0.00000  Uiso   1.00
O703   O     0.87294   0.22679   0.75000   0.00000  Uiso   1.00
O704   O     0.77441   0.16665   0.82549   0.00000  Uiso   1.00
O705   O     0.85360   0.16666   0.82549   0.00000  Uiso   1.00
O706   O     0.79373   0.10654   0.75000   0.00000  Uiso   1.00
O707   O     0.87292   0.10655   0.75000   0.00000  Uiso   1.00
O708   O     0.81306   0.16667   0.67451   0.00000  Uiso   1.00
O709   O     0.89225   0.16668   0.67451   0.00000  Uiso   1.00
O710   O     0.91161   0.04019   0.68458   0.00000  Uiso   1.00
H711   H     0.93624   0.01958   0.66543   0.00000  Uiso   1.00
O712   O     0.75287   0.29610   0.81985   0.00000  Uiso   1.00
H713   H     0.76212   0.26830   0.82898   0.00000  Uiso   1.00
O714   O     0.97121   0.10564   0.69478   0.00000  Uiso   1.00
H715   H     0.94495   0.11596   0.68143   0.00000  Uiso   1.00
O716   O     0.96346   0.16253   0.90624   0.00000  Uiso   1.00
H717   H     0.96913   0.15729   0.86861   0.00000  Uiso   1.00
Cl718  Cl    0.80664   0.10421   0.59908   0.00000  Uiso   1.00
Cl719  Cl    0.67394   0.11776   0.51637   0.00000  Uiso   1.00
Cl720  Cl    0.90470   0.10426   0.85593   0.00000  Uiso   1.00
C721   C     0.16605   0.57918   0.75157   0.00000  Uiso   1.00
C722   C     0.14964   0.47723   0.98672   0.00000  Uiso   1.00
C723   C     0.16480   0.47721   0.93163   0.00000  Uiso   1.00
C724   C     0.18484   0.48482   0.51370   0.00000  Uiso   1.00
C725   C     0.23114   0.49936   0.98513   0.00000  Uiso   1.00
C726   C     0.24796   0.49113   0.93160   0.00000  Uiso   1.00
C727   C     0.21540   0.47439   0.90669   0.00000  Uiso   1.00
C728   C     0.17638   0.47899   0.56752   0.00000  Uiso   1.00
C729   C     0.24767   0.51974   0.56530   0.00000  Uiso   1.00
C730   C     0.12901   0.48071   0.90411   0.00000  Uiso   1.00
C731   C     0.20570   0.64374   0.72043   0.00000  Uiso   1.00
C732   C     0.14154   0.49387   0.84901   0.00000  Uiso   1.00
C733   C     0.20675   0.35337   0.71828   0.00000  Uiso   1.00
C734   C     0.16705   0.37613   0.74956   0.00000  Uiso   1.00
C735   C     0.12663   0.35628   0.78171   0.00000  Uiso   1.00
C736   C     0.12572   0.64690   0.78470   0.00000  Uiso   1.00
C737   C     0.16553   0.62382   0.75291   0.00000  Uiso   1.00
C738   C     0.30113   0.52995   0.77620   0.00000  Uiso   1.00
C739   C     0.01736   0.53001   0.77602   0.00000  Uiso   1.00
C740   C     0.03255   0.47001   0.72431   0.00000  Uiso   1.00
C741   C     0.31701   0.47006   0.72335   0.00000  Uiso   1.00
C742   C     0.16702   0.42077   0.74928   0.00000  Uiso   1.00
C743   C     0.19238   0.49953   0.65021   0.00000  Uiso   1.00
C744   C     0.26122   0.51843   0.51126   0.00000  Uiso   1.00
C745   C     0.20620   0.49895   0.59351   0.00000  Uiso   1.00
C746   C     0.08035   0.47260   0.93060   0.00000  Uiso   1.00
C747   C     0.06648   0.46641   0.98408   0.00000  Uiso   1.00
C748   C     0.09969   0.47256   0.51232   0.00000  Uiso   1.00
Cu749  Cu    0.11978   0.49999   0.75000   0.00000  Uiso   1.00
Cu750  Cu    0.21355   0.50001   0.75000   0.00000  Uiso   1.00
H751   H     0.27071   0.53533   0.58501   0.00000  Uiso   1.00
H752   H     0.09629   0.37416   0.80608   0.00000  Uiso   1.00
H753   H     0.27658   0.55378   0.79763   0.00000  Uiso   1.00
H754   H     0.02988   0.55397   0.79722   0.00000  Uiso   1.00
H755   H     0.05736   0.44615   0.70338   0.00000  Uiso   1.00
H756   H     0.29551   0.53184   0.99005   0.00000  Uiso   1.00
H757   H     0.05310   0.47118   0.90988   0.00000  Uiso   1.00
H758   H     0.08530   0.47442   0.55403   0.00000  Uiso   1.00
H759   H     0.23576   0.62573   0.69580   0.00000  Uiso   1.00
N760   N     0.04931   0.49999   0.74998   0.00000  Uiso   1.00
N761   N     0.28402   0.50002   0.75000   0.00000  Uiso   1.00
O762   O     0.12708   0.56011   0.75000   0.00000  Uiso   1.00
O763   O     0.20627   0.56012   0.75000   0.00000  Uiso   1.00
O764   O     0.10775   0.49998   0.82549   0.00000  Uiso   1.00
O765   O     0.18694   0.49999   0.82549   0.00000  Uiso   1.00
O766   O     0.12706   0.43988   0.75000   0.00000  Uiso   1.00
O767   O     0.20625   0.43989   0.75000   0.00000  Uiso   1.00
O768   O     0.14640   0.50001   0.67451   0.00000  Uiso   1.00
O769   O     0.22559   0.50002   0.67451   0.00000  Uiso   1.00
O770   O     0.24495   0.37352   0.68458   0.00000  Uiso   1.00
H771   H     0.26957   0.35292   0.66543   0.00000  Uiso   1.00
O772   O     0.08621   0.62943   0.81985   0.00000  Uiso   1.00
H773   H     0.09545   0.60163   0.82898   0.00000  Uiso   1.00
O774   O     0.30455   0.43898   0.69478   0.00000  Uiso   1.00
H775   H     0.27829   0.44929   0.68143   0.00000  Uiso   1.00
O776   O     0.29679   0.49587   0.90624   0.00000  Uiso   1.00
H777   H     0.30247   0.49063   0.86861   0.00000  Uiso   1.00
Cl778  Cl    0.13998   0.43755   0.59908   0.00000  Uiso   1.00
Cl779  Cl    0.00728   0.45109   0.51637   0.00000  Uiso   1.00
Cl780  Cl    0.23804   0.43759   0.85593   0.00000  Uiso   1.00
C781   C     0.49938   0.57918   0.75157   0.00000  Uiso   1.00
C782   C     0.48297   0.47723   0.98672   0.00000  Uiso   1.00
C783   C     0.49814   0.47721   0.93163   0.00000  Uiso   1.00
C784   C     0.51817   0.48482   0.51370   0.00000  Uiso   1.00
C785   C     0.56447   0.49936   0.98513   0.00000  Uiso   1.00
C786   C     0.58129   0.49113   0.93160   0.00000  Uiso   1.00
C787   C     0.54873   0.47439   0.90669   0.00000  Uiso   1.00
C788   C     0.50971   0.47899   0.56752   0.00000  Uiso   1.00
C789   C     0.58100   0.51974   0.56530   0.00000  Uiso   1.00
C790   C     0.46234   0.48071   0.90411   0.00000  Uiso   1.00
C791   C     0.53903   0.64374   0.72043   0.00000  Uiso   1.00
C792   C     0.47488   0.49387   0.84901   0.00000  Uiso   1.00
C793   C     0.54009   0.35337   0.71828   0.00000  Uiso   1.00
C794   C     0.50038   0.37613   0.74956   0.00000  Uiso   1.00
C795   C     0.45996   0.35628   0.78171   0.00000  Uiso   1.00
C796   C     0.45905   0.64690   0.78470   0.00000  Uiso   1.00
C797   C     0.49886   0.62382   0.75291   0.00000  Uiso   1.00
C798   C     0.63446   0.52995   0.77620   0.00000  Uiso   1.00
C799   C     0.35069   0.53001   0.77602   0.00000  Uiso   1.00
C800   C     0.36588   0.47001   0.72431   0.00000  Uiso   1.00
C801   C     0.65034   0.47006   0.72335   0.00000  Uiso   1.00
C802   C     0.50035   0.42077   0.74928   0.00000  Uiso   1.00
C803   C     0.52572   0.49953   0.65021   0.00000  Uiso   1.00
C804   C     0.59455   0.51843   0.51126   0.00000  Uiso   1.00
C805   C     0.53954   0.49895   0.59351   0.00000  Uiso   1.00
C806   C     0.41369   0.47260   0.93060   0.00000  Uiso   1.00
C807   C     0.39981   0.46641   0.98408   0.00000  Uiso   1.00
C808   C     0.43302   0.47256   0.51232   0.00000  Uiso   1.00
Cu809  Cu    0.45311   0.49999   0.75000   0.00000  Uiso   1.00
Cu810  Cu    0.54689   0.50001   0.75000   0.00000  Uiso   1.00
H811   H     0.60404   0.53533   0.58501   0.00000  Uiso   1.00
H812   H     0.42962   0.37416   0.80608   0.00000  Uiso   1.00
H813   H     0.60992   0.55378   0.79763   0.00000  Uiso   1.00
H814   H     0.36322   0.55397   0.79722   0.00000  Uiso   1.00
H815   H     0.39069   0.44615   0.70338   0.00000  Uiso   1.00
H816   H     0.62884   0.53184   0.99005   0.00000  Uiso   1.00
H817   H     0.38644   0.47118   0.90988   0.00000  Uiso   1.00
H818   H     0.41863   0.47442   0.55403   0.00000  Uiso   1.00
H819   H     0.56910   0.62573   0.69580   0.00000  Uiso   1.00
N820   N     0.38265   0.49999   0.74998   0.00000  Uiso   1.00
N821   N     0.61735   0.50002   0.75000   0.00000  Uiso   1.00
O822   O     0.46042   0.56011   0.75000   0.00000  Uiso   1.00
O823   O     0.53961   0.56012   0.75000   0.00000  Uiso   1.00
O824   O     0.44108   0.49998   0.82549   0.00000  Uiso   1.00
O825   O     0.52027   0.49999   0.82549   0.00000  Uiso   1.00
O826   O     0.46039   0.43988   0.75000   0.00000  Uiso   1.00
O827   O     0.53958   0.43989   0.75000   0.00000  Uiso   1.00
O828   O     0.47973   0.50001   0.67451   0.00000  Uiso   1.00
O829   O     0.55892   0.50002   0.67451   0.00000  Uiso   1.00
O830   O     0.57828   0.37352   0.68458   0.00000  Uiso   1.00
H831   H     0.60290   0.35292   0.66543   0.00000  Uiso   1.00
O832   O     0.41954   0.62943   0.81985   0.00000  Uiso   1.00
H833   H     0.42879   0.60163   0.82898   0.00000  Uiso   1.00
O834   O     0.63788   0.43898   0.69478   0.00000  Uiso   1.00
H835   H     0.61162   0.44929   0.68143   0.00000  Uiso   1.00
O836   O     0.63012   0.49587   0.90624   0.00000  Uiso   1.00
H837   H     0.63580   0.49063   0.86861   0.00000  Uiso   1.00
Cl838  Cl    0.47331   0.43755   0.59908   0.00000  Uiso   1.00
Cl839  Cl    0.34061   0.45109   0.51637   0.00000  Uiso   1.00
Cl840  Cl    0.57137   0.43759   0.85593   0.00000  Uiso   1.00
C841   C     0.83271   0.57918   0.75157   0.00000  Uiso   1.00
C842   C     0.81631   0.47723   0.98672   0.00000  Uiso   1.00
C843   C     0.83147   0.47721   0.93163   0.00000  Uiso   1.00
C844   C     0.85150   0.48482   0.51370   0.00000  Uiso   1.00
C845   C     0.89781   0.49936   0.98513   0.00000  Uiso   1.00
C846   C     0.91463   0.49113   0.93160   0.00000  Uiso   1.00
C847   C     0.88206   0.47439   0.90669   0.00000  Uiso   1.00
C848   C     0.84304   0.47899   0.56752   0.00000  Uiso   1.00
C849   C     0.91433   0.51974   0.56530   0.00000  Uiso   1.00
C850   C     0.79568   0.48071   0.90411   0.00000  Uiso   1.00
C851   C     0.87237   0.64374   0.72043   0.00000  Uiso   1.00
C852   C     0.80821   0.49387   0.84901   0.00000  Uiso   1.00
C853   C     0.87342   0.35337   0.71828   0.00000  Uiso   1.00
C854   C     0.83371   0.37613   0.74956   0.00000  Uiso   1.00
C855   C     0.79330   0.35628   0.78171   0.00000  Uiso   1.00
C856   C     0.79238   0.64690   0.78470   0.00000  Uiso   1.00
C857   C     0.83219   0.62382   0.75291   0.00000  Uiso   1.00
C858   C     0.96779   0.52995   0.77620   0.00000  Uiso   1.00
C859   C     0.68402   0.53001   0.77602   0.00000  Uiso   1.00
C860   C     0.69921   0.47001   0.72431   0.00000  Uiso   1.00
C861   C     0.98367   0.47006   0.72335   0.00000  Uiso   1.00
C862   C     0.83368   0.42077   0.74928   0.00000  Uiso   1.00
C863   C     0.85905   0.49953   0.65021   0.00000  Uiso   1.00
C864   C     0.92789   0.51843   0.51126   0.00000  Uiso   1.00
C865   C     0.87287   0.49895   0.59351   0.00000  Uiso   1.00
C866   C     0.74702   0.47260   0.93060   0.00000  Uiso   1.00
C867   C     0.73315   0.46641   0.98408   0.00000  Uiso   1.00
C868   C     0.76636   0.47256   0.51232   0.00000  Uiso   1.00
Cu869  Cu    0.78645   0.49999   0.75000   0.00000  Uiso   1.00
Cu870  Cu    0.88022   0.50001   0.75000   0.00000  Uiso   1.00
H871   H     0.93738   0.53533   0.58501   0.00000  Uiso   1.00
H872   H     0.76295   0.37416   0.80608   0.00000  Uiso   1.00
H873   H     0.94325   0.55378   0.79763   0.00000  Uiso   1.00
H874   H     0.69655   0.55397   0.79722   0.00000  Uiso   1.00
H875   H     0.72403   0.44615   0.70338   0.00000  Uiso   1.00
H876   H     0.96218   0.53184   0.99005   0.00000  Uiso   1.00
H877   H     0.71977   0.47118   0.90988   0.00000  Uiso   1.00
H878   H     0.75196   0.47442   0.55403   0.00000  Uiso   1.00
H879   H     0.90243   0.62573   0.69580   0.00000  Uiso   1.00
N880   N     0.71598   0.49999   0.74998   0.00000  Uiso   1.00
N881   N     0.95069   0.50002   0.75000   0.00000  Uiso   1.00
O882   O     0.79375   0.56011   0.75000   0.00000  Uiso   1.00
O883   O     0.87294   0.56012   0.75000   0.00000  Uiso   1.00
O884   O     0.77441   0.49998   0.82549   0.00000  Uiso   1.00
O885   O     0.85360   0.49999   0.82549   0.00000  Uiso   1.00
O886   O     0.79373   0.43988   0.75000   0.00000  Uiso   1.00
O887   O     0.87292   0.43989   0.75000   0.00000  Uiso   1.00
O888   O     0.81306   0.50001   0.67451   0.00000  Uiso   1.00
O889   O     0.89225   0.50002   0.67451   0.00000  Uiso   1.00
O890   O     0.91161   0.37352   0.68458   0.00000  Uiso   1.00
H891   H     0.93624   0.35292   0.66543   0.00000  Uiso   1.00
O892   O     0.75287   0.62943   0.81985   0.00000  Uiso   1.00
H893   H     0.76212   0.60163   0.82898   0.00000  Uiso   1.00
O894   O     0.97121   0.43898   0.69478   0.00000  Uiso   1.00
H895   H     0.94495   0.44929   0.68143   0.00000  Uiso   1.00
O896   O     0.96346   0.49587   0.90624   0.00000  Uiso   1.00
H897   H     0.96913   0.49063   0.86861   0.00000  Uiso   1.00
Cl898  Cl    0.80664   0.43755   0.59908   0.00000  Uiso   1.00
Cl899  Cl    0.67394   0.45109   0.51637   0.00000  Uiso   1.00
Cl900  Cl    0.90470   0.43759   0.85593   0.00000  Uiso   1.00
C901   C     0.16605   0.91252   0.75157   0.00000  Uiso   1.00
C902   C     0.14964   0.81056   0.98672   0.00000  Uiso   1.00
C903   C     0.16480   0.81054   0.93163   0.00000  Uiso   1.00
C904   C     0.18484   0.81816   0.51370   0.00000  Uiso   1.00
C905   C     0.23114   0.83269   0.98513   0.00000  Uiso   1.00
C906   C     0.24796   0.82446   0.93160   0.00000  Uiso   1.00
C907   C     0.21540   0.80773   0.90669   0.00000  Uiso   1.00
C908   C     0.17638   0.81232   0.56752   0.00000  Uiso   1.00
C909   C     0.24767   0.85308   0.56530   0.00000  Uiso   1.00
C910   C     0.12901   0.81404   0.90411   0.00000  Uiso   1.00
C911   C     0.20570   0.97708   0.72043   0.00000  Uiso   1.00
C912   C     0.14154   0.82720   0.84901   0.00000  Uiso   1.00
C913   C     0.20675   0.68671   0.71828   0.00000  Uiso   1.00
C914   C     0.16705   0.70946   0.74956   0.00000  Uiso   1.00
C915   C     0.12663   0.68961   0.78171   0.00000  Uiso   1.00
C916   C     0.12572   0.98024   0.78470   0.00000  Uiso   1.00
C917   C     0.16553   0.95715   0.75291   0.00000  Uiso   1.00
C918   C     0.30113   0.86328   0.77620   0.00000  Uiso   1.00
C919   C     0.01736   0.86335   0.77602   0.00000  Uiso   1.00
C920   C     0.03255   0.80335   0.72431   0.00000  Uiso   1.00
C921   C     0.31701   0.80340   0.72335   0.00000  Uiso   1.00
C922   C     0.16702   0.75410   0.74928   0.00000  Uiso   1.00
C923   C     0.19238   0.83287   0.65021   0.00000  Uiso   1.00
C924   C     0.26122   0.85177   0.51126   0.00000  Uiso   1.00
C925   C     0.20620   0.83228   0.59351   0.00000  Uiso   1.00
C926   C     0.08035   0.80593   0.93060   0.00000  Uiso   1.00
C927   C     0.06648   0.79974   0.98408   0.00000  Uiso   1.00
C928   C     0.09969   0.80589   0.51232   0.00000  Uiso   1.00
Cu929  Cu    0.11978   0.83333   0.75000   0.00000  Uiso   1.00
Cu930  Cu    0.21355   0.83334   0.75000   0.00000  Uiso   1.00
H931   H     0.27071   0.86866   0.58501   0.00000  Uiso   1.00
H932   H     0.09629   0.70750   0.80608   0.00000  Uiso   1.00
H933   H     0.27658   0.88711   0.79763   0.00000  Uiso   1.00
H934   H     0.02988   0.88730   0.79722   0.00000  Uiso   1.00
H935   H     0.05736   0.77948   0.70338   0.00000  Uiso   1.00
H936   H     0.29551   0.86517   0.99005   0.00000  Uiso   1.00
H937   H     0.05310   0.80451   0.90988   0.00000  Uiso   1.00
H938   H     0.08530   0.80775   0.55403   0.00000  Uiso   1.00
H939   H     0.23576   0.95906   0.69580   0.00000  Uiso   1.00
N940   N     0.04931   0.83332   0.74998   0.00000  Uiso   1.00
N941   N     0.28402   0.83335   0.75000   0.00000  Uiso   1.00
O942   O     0.12708   0.89345   0.75000   0.00000  Uiso   1.00
O943   O     0.20627   0.89346   0.75000   0.00000  Uiso   1.00
O944   O     0.10775   0.83332   0.82549   0.00000  Uiso   1.00
O945   O     0.18694   0.83333   0.82549   0.00000  Uiso   1.00
O946   O     0.12706   0.77321   0.75000   0.00000  Uiso   1.00
O947   O     0.20625   0.77322   0.75000   0.00000  Uiso   1.00
O948   O     0.14640   0.83334   0.67451   0.00000  Uiso   1.00
O949   O     0.22559   0.83335   0.67451   0.00000  Uiso   1.00
O950   O     0.24495   0.70686   0.68458   0.00000  Uiso   1.00
H951   H     0.26957   0.68625   0.66543   0.00000  Uiso   1.00
O952   O     0.08621   0.96277   0.81985   0.00000  Uiso   1.00
H953   H     0.09545   0.93496   0.82898   0.00000  Uiso   1.00
O954   O     0.30455   0.77231   0.69478   0.00000  Uiso   1.00
H955   H     0.27829   0.78262   0.68143   0.00000  Uiso   1.00
O956   O     0.29679   0.82920   0.90624   0.00000  Uiso   1.00
H957   H     0.30247   0.82396   0.86861   0.00000  Uiso   1.00
Cl958  Cl    0.13998   0.77088   0.59908   0.00000  Uiso   1.00
Cl959  Cl    0.00728   0.78442   0.51637   0.00000  Uiso   1.00
Cl960  Cl    0.23804   0.77093   0.85593   0.00000  Uiso   1.00
C961   C     0.49938   0.91252   0.75157   0.00000  Uiso   1.00
C962   C     0.48297   0.81056   0.98672   0.00000  Uiso   1.00
C963   C     0.49814   0.81054   0.93163   0.00000  Uiso   1.00
C964   C     0.51817   0.81816   0.51370   0.00000  Uiso   1.00
C965   C     0.56447   0.83269   0.98513   0.00000  Uiso   1.00
C966   C     0.58129   0.82446   0.93160   0.00000  Uiso   1.00
C967   C     0.54873   0.80773   0.90669   0.00000  Uiso   1.00
C968   C     0.50971   0.81232   0.56752   0.00000  Uiso   1.00
C969   C     0.58100   0.85308   0.56530   0.00000  Uiso   1.00
C970   C     0.46234   0.81404   0.90411   0.00000  Uiso   1.00
C971   C     0.53903   0.97708   0.72043   0.00000  Uiso   1.00
C972   C     0.47488   0.82720   0.84901   0.00000  Uiso   1.00
C973   C     0.54009   0.68671   0.71828   0.00000  Uiso   1.00
C974   C     0.50038   0.70946   0.74956   0.00000  Uiso   1.00
C975   C     0.45996   0.68961   0.78171   0.00000  Uiso   1.00
C976   C     0.45905   0.98024   0.78470   0.00000  Uiso   1.00
C977   C     0.49886   0.95715   0.75291   0.00000  Uiso   1.00
C978   C     0.63446   0.86328   0.77620   0.00000  Uiso   1.00
C979   C     0.35069   0.86335   0.77602   0.00000  Uiso   1.00
C980   C     0.36588   0.80335   0.72431   0.00000  Uiso   1.00
C981   C     0.65034   0.80340   0.72335   0.00000  Uiso   1.00
C982   C     0.50035   0.75410   0.74928   0.00000  Uiso   1.00
C983   C     0.52572   0.83287   0.65021   0.00000  Uiso   1.00
C984   C     0.59455   0.85177   0.51126   0.00000  Uiso   1.00
C985   C     0.53954   0.83228   0.59351   0.00000  Uiso   1.00
C986   C     0.41369   0.80593   0.93060   0.00000  Uiso   1.00
C987   C     0.39981   0.79974   0.98408   0.00000  Uiso   1.00
C988   C     0.43302   0.80589   0.51232   0.00000  Uiso   1.00
Cu989  Cu    0.45311   0.83333   0.75000   0.00000  Uiso   1.00
Cu990  Cu    0.54689   0.83334   0.75000   0.00000  Uiso   1.00
H991   H     0.60404   0.86866   0.58501   0.00000  Uiso   1.00
H992   H     0.42962   0.70750   0.80608   0.00000  Uiso   1.00
H993   H     0.60992   0.88711   0.79763   0.00000  Uiso   1.00
H994   H     0.36322   0.88730   0.79722   0.00000  Uiso   1.00
H995   H     0.39069   0.77948   0.70338   0.00000  Uiso   1.00
H996   H     0.62884   0.86517   0.99005   0.00000  Uiso   1.00
H997   H     0.38644   0.80451   0.90988   0.00000  Uiso   1.00
H998   H     0.41863   0.80775   0.55403   0.00000  Uiso   1.00
H999   H     0.56910   0.95906   0.69580   0.00000  Uiso   1.00
N1000  N     0.38265   0.83332   0.74998   0.00000  Uiso   1.00
N1001  N     0.61735   0.83335   0.75000   0.00000  Uiso   1.00
O1002  O     0.46042   0.89345   0.75000   0.00000  Uiso   1.00
O1003  O     0.53961   0.89346   0.75000   0.00000  Uiso   1.00
O1004  O     0.44108   0.83332   0.82549   0.00000  Uiso   1.00
O1005  O     0.52027   0.83333   0.82549   0.00000  Uiso   1.00
O1006  O     0.46039   0.77321   0.75000   0.00000  Uiso   1.00
O1007  O     0.53958   0.77322   0.75000   0.00000  Uiso   1.00
O1008  O     0.47973   0.83334   0.67451   0.00000  Uiso   1.00
O1009  O     0.55892   0.83335   0.67451   0.00000  Uiso   1.00
O1010  O     0.57828   0.70686   0.68458   0.00000  Uiso   1.00
H1011  H     0.60290   0.68625   0.66543   0.00000  Uiso   1.00
O1012  O     0.41954   0.96277   0.81985   0.00000  Uiso   1.00
H1013  H     0.42879   0.93496   0.82898   0.00000  Uiso   1.00
O1014  O     0.63788   0.77231   0.69478   0.00000  Uiso   1.00
H1015  H     0.61162   0.78262   0.68143   0.00000  Uiso   1.00
O1016  O     0.63012   0.82920   0.90624   0.00000  Uiso   1.00
H1017  H     0.63580   0.82396   0.86861   0.00000  Uiso   1.00
Cl1018 Cl    0.47331   0.77088   0.59908   0.00000  Uiso   1.00
Cl1019 Cl    0.34061   0.78442   0.51637   0.00000  Uiso   1.00
Cl1020 Cl    0.57137   0.77093   0.85593   0.00000  Uiso   1.00
C1021  C     0.83271   0.91252   0.75157   0.00000  Uiso   1.00
C1022  C     0.81631   0.81056   0.98672   0.00000  Uiso   1.00
C1023  C     0.83147   0.81054   0.93163   0.00000  Uiso   1.00
C1024  C     0.85150   0.81816   0.51370   0.00000  Uiso   1.00
C1025  C     0.89781   0.83269   0.98513   0.00000  Uiso   1.00
C1026  C     0.91463   0.82446   0.93160   0.00000  Uiso   1.00
C1027  C     0.88206   0.80773   0.90669   0.00000  Uiso   1.00
C1028  C     0.84304   0.81232   0.56752   0.00000  Uiso   1.00
C1029  C     0.91433   0.85308   0.56530   0.00000  Uiso   1.00
C1030  C     0.79568   0.81404   0.90411   0.00000  Uiso   1.00
C1031  C     0.87237   0.97708   0.72043   0.00000  Uiso   1.00
C1032  C     0.80821   0.82720   0.84901   0.00000  Uiso   1.00
C1033  C     0.87342   0.68671   0.71828   0.00000  Uiso   1.00
C1034  C     0.83371   0.70946   0.74956   0.00000  Uiso   1.00
C1035  C     0.79330   0.68961   0.78171   0.00000  Uiso   1.00
C1036  C     0.79238   0.98024   0.78470   0.00000  Uiso   1.00
C1037  C     0.83219   0.95715   0.75291   0.00000  Uiso   1.00
C1038  C     0.96779   0.86328   0.77620   0.00000  Uiso   1.00
C1039  C     0.68402   0.86335   0.77602   0.00000  Uiso   1.00
C1040  C     0.69921   0.80335   0.72431   0.00000  Uiso   1.00
C1041  C     0.98367   0.80340   0.72335   0.00000  Uiso   1.00
C1042  C     0.83368   0.75410   0.74928   0.00000  Uiso   1.00
C1043  C     0.85905   0.83287   0.65021   0.00000  Uiso   1.00
C1044  C     0.92789   0.85177   0.51126   0.00000  Uiso   1.00
C1045  C     0.87287   0.83228   0.59351   0.00000  Uiso   1.00
C1046  C     0.74702   0.80593   0.93060   0.00000  Uiso   1.00
C1047  C     0.73315   0.79974   0.98408   0.00000  Uiso   1.00
C1048  C     0.76636   0.80589   0.51232   0.00000  Uiso   1.00
Cu1049 Cu    0.78645   0.83333   0.75000   0.00000  Uiso   1.00
Cu1050 Cu    0.88022   0.83334   0.75000   0.00000  Uiso   1.00
H1051  H     0.93738   0.86866   0.58501   0.00000  Uiso   1.00
H1052  H     0.76295   0.70750   0.80608   0.00000  Uiso   1.00
H1053  H     0.94325   0.88711   0.79763   0.00000  Uiso   1.00
H1054  H     0.69655   0.88730   0.79722   0.00000  Uiso   1.00
H1055  H     0.72403   0.77948   0.70338   0.00000  Uiso   1.00
H1056  H     0.96218   0.86517   0.99005   0.00000  Uiso   1.00
H1057  H     0.71977   0.80451   0.90988   0.00000  Uiso   1.00
H1058  H     0.75196   0.80775   0.55403   0.00000  Uiso   1.00
H1059  H     0.90243   0.95906   0.69580   0.00000  Uiso   1.00
N1060  N     0.71598   0.83332   0.74998   0.00000  Uiso   1.00
N1061  N     0.95069   0.83335   0.75000   0.00000  Uiso   1.00
O1062  O     0.79375   0.89345   0.75000   0.00000  Uiso   1.00
O1063  O     0.87294   0.89346   0.75000   0.00000  Uiso   1.00
O1064  O     0.77441   0.83332   0.82549   0.00000  Uiso   1.00
O1065  O     0.85360   0.83333   0.82549   0.00000  Uiso   1.00
O1066  O     0.79373   0.77321   0.75000   0.00000  Uiso   1.00
O1067  O     0.87292   0.77322   0.75000   0.00000  Uiso   1.00
O1068  O     0.81306   0.83334   0.67451   0.00000  Uiso   1.00
O1069  O     0.89225   0.83335   0.67451   0.00000  Uiso   1.00
O1070  O     0.91161   0.70686   0.68458   0.00000  Uiso   1.00
H1071  H     0.93624   0.68625   0.66543   0.00000  Uiso   1.00
O1072  O     0.75287   0.96277   0.81985   0.00000  Uiso   1.00
H1073  H     0.76212   0.93496   0.82898   0.00000  Uiso   1.00
O1074  O     0.97121   0.77231   0.69478   0.00000  Uiso   1.00
H1075  H     0.94495   0.78262   0.68143   0.00000  Uiso   1.00
O1076  O     0.96346   0.82920   0.90624   0.00000  Uiso   1.00
H1077  H     0.96913   0.82396   0.86861   0.00000  Uiso   1.00
Cl1078 Cl    0.80664   0.77088   0.59908   0.00000  Uiso   1.00
Cl1079 Cl    0.67394   0.78442   0.51637   0.00000  Uiso   1.00
Cl1080 Cl    0.90470   0.77093   0.85593   0.00000  Uiso   1.00
loop_
_geom_bond_atom_site_label_1
_geom_bond_atom_site_label_2
_geom_bond_distance
_geom_bond_site_symmetry_2
_ccdc_geom_bond_type
C1     O42     1.294   .     A
C1     C17     1.446   .     S
C1     O43     1.293   .     A
C2     C3      1.416   .     A
C2     C544    1.423   .     S
C2     C568    1.411   .     S
C3     C10     1.430   .     A
C3     C7      1.415   .     A
C4     C8      1.409   .     A
C4     C542    1.423   1_554 S
C4     C545    1.418   1_554 S
C5     C6      1.400   .     A
C5     C544    1.418   .     S
C5     C564    1.403   .     S
C6     C7      1.405   .     A
C6     O56     1.382   .     S
C7     Cl60    1.773   .     S
C8     C25     1.408   .     A
C8     Cl58    1.777   .     S
C9     C25     1.398   .     A
C9     H31     1.083   .     S
C9     C24     1.390   .     A
C10    C26     1.402   .     A
C10    C12     1.486   .     S
C11    H39     1.084   .     S
C11    C17     1.399   .     A
C11    C193    1.394   .     S
C12    O45     1.293   .     A
C12    O44     1.314   .     A
C13    C14     1.402   .     A
C13    O50     1.380   .     S
C13    C371    1.394   1_545 S
C14    C22     1.447   .     S
C14    C15     1.399   .     A
C15    H32     1.084   .     S
C15    C376    1.387   1_545 S
C16    C17     1.415   .     A
C16    O52     1.381   .     S
C16    C195    1.387   .     S
C18    H33     1.081   .     S
C18    N41     1.368   .     A
C18    C79     1.420   .     S
C19    N40     1.369   .     A
C19    H34     1.081   .     S
C19    C138    1.420   1_455 S
C20    N40     1.355   .     A
C20    H35     1.082   .     S
C20    C141    1.410   1_455 S
C21    N41     1.388   .     A
C21    O54     1.371   .     S
C21    C80     1.410   .     S
C22    O47     1.295   .     A
C22    O46     1.292   .     A
C23    C25     1.458   .     S
C23    O49     1.299   .     A
C23    O48     1.293   .     A
C24    C545    1.403   1_554 S
C24    H576    1.083   1_554 S
C26    H37     1.082   .     S
C26    C27     1.392   .     A
C27    C568    1.391   .     S
C27    Cl599   1.751   .     S
C28    H38     1.077   .     S
C28    C567    1.391   1_554 S
C28    C542    1.411   1_554 S
Cu29   Cu30    2.690   .     S
Cu29   O42     1.962   .     S
Cu29   O46     1.957   .     S
Cu29   N40     2.022   .     S
Cu29   O44     1.955   .     S
Cu29   O48     1.949   .     S
Cu30   N41     2.021   .     S
Cu30   O45     1.949   .     S
Cu30   O49     1.955   .     S
Cu30   O43     1.957   .     S
Cu30   O47     1.962   .     S
H36    C564    1.083   .     S
O50    H51     0.992   .     S
O52    H53     0.989   .     S
O54    H55     0.979   .     S
O56    H57     0.988   .     S
Cl59   C567    1.751   1_554 S
C61    O102    1.294   .     A
C61    C77     1.446   .     S
C61    O103    1.293   .     A
C62    C63     1.416   .     A
C62    C604    1.423   .     S
C62    C628    1.411   .     S
C63    C70     1.430   .     A
C63    C67     1.415   .     A
C64    C68     1.409   .     A
C64    C602    1.423   1_554 S
C64    C605    1.418   1_554 S
C65    C66     1.400   .     A
C65    C604    1.418   .     S
C65    C624    1.403   .     S
C66    C67     1.405   .     A
C66    O116    1.382   .     S
C67    Cl120   1.773   .     S
C68    C85     1.408   .     A
C68    Cl118   1.777   .     S
C69    C85     1.398   .     A
C69    H91     1.083   .     S
C69    C84     1.390   .     A
C70    C86     1.402   .     A
C70    C72     1.486   .     S
C71    H99     1.084   .     S
C71    C77     1.399   .     A
C71    C253    1.394   .     S
C72    O105    1.293   .     A
C72    O104    1.314   .     A
C73    C74     1.402   .     A
C73    O110    1.380   .     S
C73    C431    1.394   1_545 S
C74    C82     1.447   .     S
C74    C75     1.399   .     A
C75    H92     1.084   .     S
C75    C436    1.387   1_545 S
C76    C77     1.415   .     A
C76    O112    1.381   .     S
C76    C255    1.387   .     S
C78    H93     1.081   .     S
C78    N101    1.368   .     A
C78    C139    1.420   .     S
C79    N100    1.369   .     A
C79    H94     1.081   .     S
C80    N100    1.355   .     A
C80    H95     1.082   .     S
C81    N101    1.388   .     A
C81    O114    1.371   .     S
C81    C140    1.410   .     S
C82    O107    1.295   .     A
C82    O106    1.292   .     A
C83    C85     1.458   .     S
C83    O109    1.299   .     A
C83    O108    1.293   .     A
C84    C605    1.403   1_554 S
C84    H636    1.083   1_554 S
C86    H97     1.082   .     S
C86    C87     1.392   .     A
C87    C628    1.391   .     S
C87    Cl659   1.751   .     S
C88    H98     1.077   .     S
C88    C627    1.391   1_554 S
C88    C602    1.411   1_554 S
Cu89   Cu90    2.690   .     S
Cu89   O102    1.962   .     S
Cu89   O106    1.957   .     S
Cu89   N100    2.022   .     S
Cu89   O104    1.955   .     S
Cu89   O108    1.949   .     S
Cu90   N101    2.021   .     S
Cu90   O105    1.949   .     S
Cu90   O109    1.955   .     S
Cu90   O103    1.957   .     S
Cu90   O107    1.962   .     S
H96    C624    1.083   .     S
O110   H111    0.992   .     S
O112   H113    0.989   .     S
O114   H115    0.979   .     S
O116   H117    0.988   .     S
Cl119  C627    1.751   1_554 S
C121   O162    1.294   .     A
C121   C137    1.446   .     S
C121   O163    1.293   .     A
C122   C123    1.416   .     A
C122   C664    1.423   .     S
C122   C688    1.411   .     S
C123   C130    1.430   .     A
C123   C127    1.415   .     A
C124   C128    1.409   .     A
C124   C662    1.423   1_554 S
C124   C665    1.418   1_554 S
C125   C126    1.400   .     A
C125   C664    1.418   .     S
C125   C684    1.403   .     S
C126   C127    1.405   .     A
C126   O176    1.382   .     S
C127   Cl180   1.773   .     S
C128   C145    1.408   .     A
C128   Cl178   1.777   .     S
C129   C145    1.398   .     A
C129   H151    1.083   .     S
C129   C144    1.390   .     A
C130   C146    1.402   .     A
C130   C132    1.486   .     S
C131   H159    1.084   .     S
C131   C137    1.399   .     A
C131   C313    1.394   .     S
C132   O165    1.293   .     A
C132   O164    1.314   .     A
C133   C134    1.402   .     A
C133   O170    1.380   .     S
C133   C491    1.394   1_545 S
C134   C142    1.447   .     S
C134   C135    1.399   .     A
C135   H152    1.084   .     S
C135   C496    1.387   1_545 S
C136   C137    1.415   .     A
C136   O172    1.381   .     S
C136   C315    1.387   .     S
C138   H153    1.081   .     S
C138   N161    1.368   .     A
C138   C19     1.420   1_655 S
C139   N160    1.369   .     A
C139   H154    1.081   .     S
C140   N160    1.355   .     A
C140   H155    1.082   .     S
C141   N161    1.388   .     A
C141   O174    1.371   .     S
C141   C20     1.410   1_655 S
C142   O167    1.295   .     A
C142   O166    1.292   .     A
C143   C145    1.458   .     S
C143   O169    1.299   .     A
C143   O168    1.293   .     A
C144   C665    1.403   1_554 S
C144   H696    1.083   1_554 S
C146   H157    1.082   .     S
C146   C147    1.392   .     A
C147   C688    1.391   .     S
C147   Cl719   1.751   .     S
C148   H158    1.077   .     S
C148   C687    1.391   1_554 S
C148   C662    1.411   1_554 S
Cu149  Cu150   2.690   .     S
Cu149  O162    1.962   .     S
Cu149  O166    1.957   .     S
Cu149  N160    2.022   .     S
Cu149  O164    1.955   .     S
Cu149  O168    1.949   .     S
Cu150  N161    2.021   .     S
Cu150  O165    1.949   .     S
Cu150  O169    1.955   .     S
Cu150  O163    1.957   .     S
Cu150  O167    1.962   .     S
H156   C684    1.083   .     S
O170   H171    0.992   .     S
O172   H173    0.989   .     S
O174   H175    0.979   .     S
O176   H177    0.988   .     S
Cl179  C687    1.751   1_554 S
C181   O222    1.294   .     A
C181   C197    1.446   .     S
C181   O223    1.293   .     A
C182   C183    1.416   .     A
C182   C724    1.423   .     S
C182   C748    1.411   .     S
C183   C190    1.430   .     A
C183   C187    1.415   .     A
C184   C188    1.409   .     A
C184   C722    1.423   1_554 S
C184   C725    1.418   1_554 S
C185   C186    1.400   .     A
C185   C724    1.418   .     S
C185   C744    1.403   .     S
C186   C187    1.405   .     A
C186   O236    1.382   .     S
C187   Cl240   1.773   .     S
C188   C205    1.408   .     A
C188   Cl238   1.777   .     S
C189   C205    1.398   .     A
C189   H211    1.083   .     S
C189   C204    1.390   .     A
C190   C206    1.402   .     A
C190   C192    1.486   .     S
C191   H219    1.084   .     S
C191   C197    1.399   .     A
C191   C373    1.394   .     S
C192   O225    1.293   .     A
C192   O224    1.314   .     A
C193   C194    1.402   .     A
C193   O230    1.380   .     S
C194   C202    1.447   .     S
C194   C195    1.399   .     A
C195   H212    1.084   .     S
C196   C197    1.415   .     A
C196   O232    1.381   .     S
C196   C375    1.387   .     S
C198   H213    1.081   .     S
C198   N221    1.368   .     A
C198   C259    1.420   .     S
C199   N220    1.369   .     A
C199   H214    1.081   .     S
C199   C318    1.420   1_455 S
C200   N220    1.355   .     A
C200   H215    1.082   .     S
C200   C321    1.410   1_455 S
C201   N221    1.388   .     A
C201   O234    1.371   .     S
C201   C260    1.410   .     S
C202   O227    1.295   .     A
C202   O226    1.292   .     A
C203   C205    1.458   .     S
C203   O229    1.299   .     A
C203   O228    1.293   .     A
C204   C725    1.403   1_554 S
C204   H756    1.083   1_554 S
C206   H217    1.082   .     S
C206   C207    1.392   .     A
C207   C748    1.391   .     S
C207   Cl779   1.751   .     S
C208   H218    1.077   .     S
C208   C747    1.391   1_554 S
C208   C722    1.411   1_554 S
Cu209  Cu210   2.690   .     S
Cu209  O222    1.962   .     S
Cu209  O226    1.957   .     S
Cu209  N220    2.022   .     S
Cu209  O224    1.955   .     S
Cu209  O228    1.949   .     S
Cu210  N221    2.021   .     S
Cu210  O225    1.949   .     S
Cu210  O229    1.955   .     S
Cu210  O223    1.957   .     S
Cu210  O227    1.962   .     S
H216   C744    1.083   .     S
O230   H231    0.992   .     S
O232   H233    0.989   .     S
O234   H235    0.979   .     S
O236   H237    0.988   .     S
Cl239  C747    1.751   1_554 S
C241   O282    1.294   .     A
C241   C257    1.446   .     S
C241   O283    1.293   .     A
C242   C243    1.416   .     A
C242   C784    1.423   .     S
C242   C808    1.411   .     S
C243   C250    1.430   .     A
C243   C247    1.415   .     A
C244   C248    1.409   .     A
C244   C782    1.423   1_554 S
C244   C785    1.418   1_554 S
C245   C246    1.400   .     A
C245   C784    1.418   .     S
C245   C804    1.403   .     S
C246   C247    1.405   .     A
C246   O296    1.382   .     S
C247   Cl300   1.773   .     S
C248   C265    1.408   .     A
C248   Cl298   1.777   .     S
C249   C265    1.398   .     A
C249   H271    1.083   .     S
C249   C264    1.390   .     A
C250   C266    1.402   .     A
C250   C252    1.486   .     S
C251   H279    1.084   .     S
C251   C257    1.399   .     A
C251   C433    1.394   .     S
C252   O285    1.293   .     A
C252   O284    1.314   .     A
C253   C254    1.402   .     A
C253   O290    1.380   .     S
C254   C262    1.447   .     S
C254   C255    1.399   .     A
C255   H272    1.084   .     S
C256   C257    1.415   .     A
C256   O292    1.381   .     S
C256   C435    1.387   .     S
C258   H273    1.081   .     S
C258   N281    1.368   .     A
C258   C319    1.420   .     S
C259   N280    1.369   .     A
C259   H274    1.081   .     S
C260   N280    1.355   .     A
C260   H275    1.082   .     S
C261   N281    1.388   .     A
C261   O294    1.371   .     S
C261   C320    1.410   .     S
C262   O287    1.295   .     A
C262   O286    1.292   .     A
C263   C265    1.458   .     S
C263   O289    1.299   .     A
C263   O288    1.293   .     A
C264   C785    1.403   1_554 S
C264   H816    1.083   1_554 S
C266   H277    1.082   .     S
C266   C267    1.392   .     A
C267   C808    1.391   .     S
C267   Cl839   1.751   .     S
C268   H278    1.077   .     S
C268   C807    1.391   1_554 S
C268   C782    1.411   1_554 S
Cu269  Cu270   2.690   .     S
Cu269  O282    1.962   .     S
Cu269  O286    1.957   .     S
Cu269  N280    2.022   .     S
Cu269  O284    1.955   .     S
Cu269  O288    1.949   .     S
Cu270  N281    2.021   .     S
Cu270  O285    1.949   .     S
Cu270  O289    1.955   .     S
Cu270  O283    1.957   .     S
Cu270  O287    1.962   .     S
H276   C804    1.083   .     S
O290   H291    0.992   .     S
O292   H293    0.989   .     S
O294   H295    0.979   .     S
O296   H297    0.988   .     S
Cl299  C807    1.751   1_554 S
C301   O342    1.294   .     A
C301   C317    1.446   .     S
C301   O343    1.293   .     A
C302   C303    1.416   .     A
C302   C844    1.423   .     S
C302   C868    1.411   .     S
C303   C310    1.430   .     A
C303   C307    1.415   .     A
C304   C308    1.409   .     A
C304   C842    1.423   1_554 S
C304   C845    1.418   1_554 S
C305   C306    1.400   .     A
C305   C844    1.418   .     S
C305   C864    1.403   .     S
C306   C307    1.405   .     A
C306   O356    1.382   .     S
C307   Cl360   1.773   .     S
C308   C325    1.408   .     A
C308   Cl358   1.777   .     S
C309   C325    1.398   .     A
C309   H331    1.083   .     S
C309   C324    1.390   .     A
C310   C326    1.402   .     A
C310   C312    1.486   .     S
C311   H339    1.084   .     S
C311   C317    1.399   .     A
C311   C493    1.394   .     S
C312   O345    1.293   .     A
C312   O344    1.314   .     A
C313   C314    1.402   .     A
C313   O350    1.380   .     S
C314   C322    1.447   .     S
C314   C315    1.399   .     A
C315   H332    1.084   .     S
C316   C317    1.415   .     A
C316   O352    1.381   .     S
C316   C495    1.387   .     S
C318   H333    1.081   .     S
C318   N341    1.368   .     A
C318   C199    1.420   1_655 S
C319   N340    1.369   .     A
C319   H334    1.081   .     S
C320   N340    1.355   .     A
C320   H335    1.082   .     S
C321   N341    1.388   .     A
C321   O354    1.371   .     S
C321   C200    1.410   1_655 S
C322   O347    1.295   .     A
C322   O346    1.292   .     A
C323   C325    1.458   .     S
C323   O349    1.299   .     A
C323   O348    1.293   .     A
C324   C845    1.403   1_554 S
C324   H876    1.083   1_554 S
C326   H337    1.082   .     S
C326   C327    1.392   .     A
C327   C868    1.391   .     S
C327   Cl899   1.751   .     S
C328   H338    1.077   .     S
C328   C867    1.391   1_554 S
C328   C842    1.411   1_554 S
Cu329  Cu330   2.690   .     S
Cu329  O342    1.962   .     S
Cu329  O346    1.957   .     S
Cu329  N340    2.022   .     S
Cu329  O344    1.955   .     S
Cu329  O348    1.949   .     S
Cu330  N341    2.021   .     S
Cu330  O345    1.949   .     S
Cu330  O349    1.955   .     S
Cu330  O343    1.957   .     S
Cu330  O347    1.962   .     S
H336   C864    1.083   .     S
O350   H351    0.992   .     S
O352   H353    0.989   .     S
O354   H355    0.979   .     S
O356   H357    0.988   .     S
Cl359  C867    1.751   1_554 S
C361   O402    1.294   .     A
C361   C377    1.446   .     S
C361   O403    1.293   .     A
C362   C363    1.416   .     A
C362   C904    1.423   .     S
C362   C928    1.411   .     S
C363   C370    1.430   .     A
C363   C367    1.415   .     A
C364   C368    1.409   .     A
C364   C902    1.423   1_554 S
C364   C905    1.418   1_554 S
C365   C366    1.400   .     A
C365   C904    1.418   .     S
C365   C924    1.403   .     S
C366   C367    1.405   .     A
C366   O416    1.382   .     S
C367   Cl420   1.773   .     S
C368   C385    1.408   .     A
C368   Cl418   1.777   .     S
C369   C385    1.398   .     A
C369   H391    1.083   .     S
C369   C384    1.390   .     A
C370   C386    1.402   .     A
C370   C372    1.486   .     S
C371   H399    1.084   .     S
C371   C377    1.399   .     A
C371   C13     1.394   1_565 S
C372   O405    1.293   .     A
C372   O404    1.314   .     A
C373   C374    1.402   .     A
C373   O410    1.380   .     S
C374   C382    1.447   .     S
C374   C375    1.399   .     A
C375   H392    1.084   .     S
C376   C377    1.415   .     A
C376   O412    1.381   .     S
C376   C15     1.387   1_565 S
C378   H393    1.081   .     S
C378   N401    1.368   .     A
C378   C439    1.420   .     S
C379   N400    1.369   .     A
C379   H394    1.081   .     S
C379   C498    1.420   1_455 S
C380   N400    1.355   .     A
C380   H395    1.082   .     S
C380   C501    1.410   1_455 S
C381   N401    1.388   .     A
C381   O414    1.371   .     S
C381   C440    1.410   .     S
C382   O407    1.295   .     A
C382   O406    1.292   .     A
C383   C385    1.458   .     S
C383   O409    1.299   .     A
C383   O408    1.293   .     A
C384   C905    1.403   1_554 S
C384   H936    1.083   1_554 S
C386   H397    1.082   .     S
C386   C387    1.392   .     A
C387   C928    1.391   .     S
C387   Cl959   1.751   .     S
C388   H398    1.077   .     S
C388   C927    1.391   1_554 S
C388   C902    1.411   1_554 S
Cu389  Cu390   2.690   .     S
Cu389  O402    1.962   .     S
Cu389  O406    1.957   .     S
Cu389  N400    2.022   .     S
Cu389  O404    1.955   .     S
Cu389  O408    1.949   .     S
Cu390  N401    2.021   .     S
Cu390  O405    1.949   .     S
Cu390  O409    1.955   .     S
Cu390  O403    1.957   .     S
Cu390  O407    1.962   .     S
H396   C924    1.083   .     S
O410   H411    0.992   .     S
O412   H413    0.989   .     S
O414   H415    0.979   .     S
O416   H417    0.988   .     S
Cl419  C927    1.751   1_554 S
C421   O462    1.294   .     A
C421   C437    1.446   .     S
C421   O463    1.293   .     A
C422   C423    1.416   .     A
C422   C964    1.423   .     S
C422   C988    1.411   .     S
C423   C430    1.430   .     A
C423   C427    1.415   .     A
C424   C428    1.409   .     A
C424   C962    1.423   1_554 S
C424   C965    1.418   1_554 S
C425   C426    1.400   .     A
C425   C964    1.418   .     S
C425   C984    1.403   .     S
C426   C427    1.405   .     A
C426   O476    1.382   .     S
C427   Cl480   1.773   .     S
C428   C445    1.408   .     A
C428   Cl478   1.777   .     S
C429   C445    1.398   .     A
C429   H451    1.083   .     S
C429   C444    1.390   .     A
C430   C446    1.402   .     A
C430   C432    1.486   .     S
C431   H459    1.084   .     S
C431   C437    1.399   .     A
C431   C73     1.394   1_565 S
C432   O465    1.293   .     A
C432   O464    1.314   .     A
C433   C434    1.402   .     A
C433   O470    1.380   .     S
C434   C442    1.447   .     S
C434   C435    1.399   .     A
C435   H452    1.084   .     S
C436   C437    1.415   .     A
C436   O472    1.381   .     S
C436   C75     1.387   1_565 S
C438   H453    1.081   .     S
C438   N461    1.368   .     A
C438   C499    1.420   .     S
C439   N460    1.369   .     A
C439   H454    1.081   .     S
C440   N460    1.355   .     A
C440   H455    1.082   .     S
C441   N461    1.388   .     A
C441   O474    1.371   .     S
C441   C500    1.410   .     S
C442   O467    1.295   .     A
C442   O466    1.292   .     A
C443   C445    1.458   .     S
C443   O469    1.299   .     A
C443   O468    1.293   .     A
C444   C965    1.403   1_554 S
C444   H996    1.083   1_554 S
C446   H457    1.082   .     S
C446   C447    1.392   .     A
C447   C988    1.391   .     S
C447   Cl1019  1.751   .     S
C448   H458    1.077   .     S
C448   C987    1.391   1_554 S
C448   C962    1.411   1_554 S
Cu449  Cu450   2.690   .     S
Cu449  O462    1.962   .     S
Cu449  O466    1.957   .     S
Cu449  N460    2.022   .     S
Cu449  O464    1.955   .     S
Cu449  O468    1.949   .     S
Cu450  N461    2.021   .     S
Cu450  O465    1.949   .     S
Cu450  O469    1.955   .     S
Cu450  O463    1.957   .     S
Cu450  O467    1.962   .     S
H456   C984    1.083   .     S
O470   H471    0.992   .     S
O472   H473    0.989   .     S
O474   H475    0.979   .     S
O476   H477    0.988   .     S
Cl479  C987    1.751   1_554 S
C481   O522    1.294   .     A
C481   C497    1.446   .     S
C481   O523    1.293   .     A
C482   C483    1.416   .     A
C482   C1024   1.423   .     S
C482   C1048   1.411   .     S
C483   C490    1.430   .     A
C483   C487    1.415   .     A
C484   C488    1.409   .     A
C484   C1022   1.423   1_554 S
C484   C1025   1.418   1_554 S
C485   C486    1.400   .     A
C485   C1024   1.418   .     S
C485   C1044   1.403   .     S
C486   C487    1.405   .     A
C486   O536    1.382   .     S
C487   Cl540   1.773   .     S
C488   C505    1.408   .     A
C488   Cl538   1.777   .     S
C489   C505    1.398   .     A
C489   H511    1.083   .     S
C489   C504    1.390   .     A
C490   C506    1.402   .     A
C490   C492    1.486   .     S
C491   H519    1.084   .     S
C491   C497    1.399   .     A
C491   C133    1.394   1_565 S
C492   O525    1.293   .     A
C492   O524    1.314   .     A
C493   C494    1.402   .     A
C493   O530    1.380   .     S
C494   C502    1.447   .     S
C494   C495    1.399   .     A
C495   H512    1.084   .     S
C496   C497    1.415   .     A
C496   O532    1.381   .     S
C496   C135    1.387   1_565 S
C498   H513    1.081   .     S
C498   N521    1.368   .     A
C498   C379    1.420   1_655 S
C499   N520    1.369   .     A
C499   H514    1.081   .     S
C500   N520    1.355   .     A
C500   H515    1.082   .     S
C501   N521    1.388   .     A
C501   O534    1.371   .     S
C501   C380    1.410   1_655 S
C502   O527    1.295   .     A
C502   O526    1.292   .     A
C503   C505    1.458   .     S
C503   O529    1.299   .     A
C503   O528    1.293   .     A
C504   C1025   1.403   1_554 S
C504   H1056   1.083   1_554 S
C506   H517    1.082   .     S
C506   C507    1.392   .     A
C507   C1048   1.391   .     S
C507   Cl1079  1.751   .     S
C508   H518    1.077   .     S
C508   C1047   1.391   1_554 S
C508   C1022   1.411   1_554 S
Cu509  Cu510   2.690   .     S
Cu509  O522    1.962   .     S
Cu509  O526    1.957   .     S
Cu509  N520    2.022   .     S
Cu509  O524    1.955   .     S
Cu509  O528    1.949   .     S
Cu510  N521    2.021   .     S
Cu510  O525    1.949   .     S
Cu510  O529    1.955   .     S
Cu510  O523    1.957   .     S
Cu510  O527    1.962   .     S
H516   C1044   1.083   .     S
O530   H531    0.992   .     S
O532   H533    0.989   .     S
O534   H535    0.979   .     S
O536   H537    0.988   .     S
Cl539  C1047   1.751   1_554 S
C541   O582    1.294   .     A
C541   C557    1.446   .     S
C541   O583    1.293   .     A
C542   C543    1.416   .     A
C542   C4      1.423   1_556 S
C542   C28     1.411   1_556 S
C543   C550    1.430   .     A
C543   C547    1.415   .     A
C544   C548    1.409   .     A
C545   C546    1.400   .     A
C545   C4      1.418   1_556 S
C545   C24     1.403   1_556 S
C546   C547    1.405   .     A
C546   O596    1.382   .     S
C547   Cl600   1.773   .     S
C548   C565    1.408   .     A
C548   Cl598   1.777   .     S
C549   C565    1.398   .     A
C549   H571    1.083   .     S
C549   C564    1.390   .     A
C550   C566    1.402   .     A
C550   C552    1.486   .     S
C551   H579    1.084   .     S
C551   C557    1.399   .     A
C551   C733    1.394   .     S
C552   O585    1.293   .     A
C552   O584    1.314   .     A
C553   C554    1.402   .     A
C553   O590    1.380   .     S
C553   C911    1.394   1_545 S
C554   C562    1.447   .     S
C554   C555    1.399   .     A
C555   H572    1.084   .     S
C555   C916    1.387   1_545 S
C556   C557    1.415   .     A
C556   O592    1.381   .     S
C556   C735    1.387   .     S
C558   H573    1.081   .     S
C558   N581    1.368   .     A
C558   C619    1.420   .     S
C559   N580    1.369   .     A
C559   H574    1.081   .     S
C559   C678    1.420   1_455 S
C560   N580    1.355   .     A
C560   H575    1.082   .     S
C560   C681    1.410   1_455 S
C561   N581    1.388   .     A
C561   O594    1.371   .     S
C561   C620    1.410   .     S
C562   O587    1.295   .     A
C562   O586    1.292   .     A
C563   C565    1.458   .     S
C563   O589    1.299   .     A
C563   O588    1.293   .     A
C566   H577    1.082   .     S
C566   C567    1.392   .     A
C567   C28     1.391   1_556 S
C567   Cl59    1.751   1_556 S
C568   H578    1.077   .     S
Cu569  Cu570   2.690   .     S
Cu569  O582    1.962   .     S
Cu569  O586    1.957   .     S
Cu569  N580    2.022   .     S
Cu569  O584    1.955   .     S
Cu569  O588    1.949   .     S
Cu570  N581    2.021   .     S
Cu570  O585    1.949   .     S
Cu570  O589    1.955   .     S
Cu570  O583    1.957   .     S
Cu570  O587    1.962   .     S
H576   C24     1.083   1_556 S
O590   H591    0.992   .     S
O592   H593    0.989   .     S
O594   H595    0.979   .     S
O596   H597    0.988   .     S
C601   O642    1.294   .     A
C601   C617    1.446   .     S
C601   O643    1.293   .     A
C602   C603    1.416   .     A
C602   C64     1.423   1_556 S
C602   C88     1.411   1_556 S
C603   C610    1.430   .     A
C603   C607    1.415   .     A
C604   C608    1.409   .     A
C605   C606    1.400   .     A
C605   C64     1.418   1_556 S
C605   C84     1.403   1_556 S
C606   C607    1.405   .     A
C606   O656    1.382   .     S
C607   Cl660   1.773   .     S
C608   C625    1.408   .     A
C608   Cl658   1.777   .     S
C609   C625    1.398   .     A
C609   H631    1.083   .     S
C609   C624    1.390   .     A
C610   C626    1.402   .     A
C610   C612    1.486   .     S
C611   H639    1.084   .     S
C611   C617    1.399   .     A
C611   C793    1.394   .     S
C612   O645    1.293   .     A
C612   O644    1.314   .     A
C613   C614    1.402   .     A
C613   O650    1.380   .     S
C613   C971    1.394   1_545 S
C614   C622    1.447   .     S
C614   C615    1.399   .     A
C615   H632    1.084   .     S
C615   C976    1.387   1_545 S
C616   C617    1.415   .     A
C616   O652    1.381   .     S
C616   C795    1.387   .     S
C618   H633    1.081   .     S
C618   N641    1.368   .     A
C618   C679    1.420   .     S
C619   N640    1.369   .     A
C619   H634    1.081   .     S
C620   N640    1.355   .     A
C620   H635    1.082   .     S
C621   N641    1.388   .     A
C621   O654    1.371   .     S
C621   C680    1.410   .     S
C622   O647    1.295   .     A
C622   O646    1.292   .     A
C623   C625    1.458   .     S
C623   O649    1.299   .     A
C623   O648    1.293   .     A
C626   H637    1.082   .     S
C626   C627    1.392   .     A
C627   C88     1.391   1_556 S
C627   Cl119   1.751   1_556 S
C628   H638    1.077   .     S
Cu629  Cu630   2.690   .     S
Cu629  O642    1.962   .     S
Cu629  O646    1.957   .     S
Cu629  N640    2.022   .     S
Cu629  O644    1.955   .     S
Cu629  O648    1.949   .     S
Cu630  N641    2.021   .     S
Cu630  O645    1.949   .     S
Cu630  O649    1.955   .     S
Cu630  O643    1.957   .     S
Cu630  O647    1.962   .     S
H636   C84     1.083   1_556 S
O650   H651    0.992   .     S
O652   H653    0.989   .     S
O654   H655    0.979   .     S
O656   H657    0.988   .     S
C661   O702    1.294   .     A
C661   C677    1.446   .     S
C661   O703    1.293   .     A
C662   C663    1.416   .     A
C662   C124    1.423   1_556 S
C662   C148    1.411   1_556 S
C663   C670    1.430   .     A
C663   C667    1.415   .     A
C664   C668    1.409   .     A
C665   C666    1.400   .     A
C665   C124    1.418   1_556 S
C665   C144    1.403   1_556 S
C666   C667    1.405   .     A
C666   O716    1.382   .     S
C667   Cl720   1.773   .     S
C668   C685    1.408   .     A
C668   Cl718   1.777   .     S
C669   C685    1.398   .     A
C669   H691    1.083   .     S
C669   C684    1.390   .     A
C670   C686    1.402   .     A
C670   C672    1.486   .     S
C671   H699    1.084   .     S
C671   C677    1.399   .     A
C671   C853    1.394   .     S
C672   O705    1.293   .     A
C672   O704    1.314   .     A
C673   C674    1.402   .     A
C673   O710    1.380   .     S
C673   C1031   1.394   1_545 S
C674   C682    1.447   .     S
C674   C675    1.399   .     A
C675   H692    1.084   .     S
C675   C1036   1.387   1_545 S
C676   C677    1.415   .     A
C676   O712    1.381   .     S
C676   C855    1.387   .     S
C678   H693    1.081   .     S
C678   N701    1.368   .     A
C678   C559    1.420   1_655 S
C679   N700    1.369   .     A
C679   H694    1.081   .     S
C680   N700    1.355   .     A
C680   H695    1.082   .     S
C681   N701    1.388   .     A
C681   O714    1.371   .     S
C681   C560    1.410   1_655 S
C682   O707    1.295   .     A
C682   O706    1.292   .     A
C683   C685    1.458   .     S
C683   O709    1.299   .     A
C683   O708    1.293   .     A
C686   H697    1.082   .     S
C686   C687    1.392   .     A
C687   C148    1.391   1_556 S
C687   Cl179   1.751   1_556 S
C688   H698    1.077   .     S
Cu689  Cu690   2.690   .     S
Cu689  O702    1.962   .     S
Cu689  O706    1.957   .     S
Cu689  N700    2.022   .     S
Cu689  O704    1.955   .     S
Cu689  O708    1.949   .     S
Cu690  N701    2.021   .     S
Cu690  O705    1.949   .     S
Cu690  O709    1.955   .     S
Cu690  O703    1.957   .     S
Cu690  O707    1.962   .     S
H696   C144    1.083   1_556 S
O710   H711    0.992   .     S
O712   H713    0.989   .     S
O714   H715    0.979   .     S
O716   H717    0.988   .     S
C721   O762    1.294   .     A
C721   C737    1.446   .     S
C721   O763    1.293   .     A
C722   C723    1.416   .     A
C722   C184    1.423   1_556 S
C722   C208    1.411   1_556 S
C723   C730    1.430   .     A
C723   C727    1.415   .     A
C724   C728    1.409   .     A
C725   C726    1.400   .     A
C725   C184    1.418   1_556 S
C725   C204    1.403   1_556 S
C726   C727    1.405   .     A
C726   O776    1.382   .     S
C727   Cl780   1.773   .     S
C728   C745    1.408   .     A
C728   Cl778   1.777   .     S
C729   C745    1.398   .     A
C729   H751    1.083   .     S
C729   C744    1.390   .     A
C730   C746    1.402   .     A
C730   C732    1.486   .     S
C731   H759    1.084   .     S
C731   C737    1.399   .     A
C731   C913    1.394   .     S
C732   O765    1.293   .     A
C732   O764    1.314   .     A
C733   C734    1.402   .     A
C733   O770    1.380   .     S
C734   C742    1.447   .     S
C734   C735    1.399   .     A
C735   H752    1.084   .     S
C736   C737    1.415   .     A
C736   O772    1.381   .     S
C736   C915    1.387   .     S
C738   H753    1.081   .     S
C738   N761    1.368   .     A
C738   C799    1.420   .     S
C739   N760    1.369   .     A
C739   H754    1.081   .     S
C739   C858    1.420   1_455 S
C740   N760    1.355   .     A
C740   H755    1.082   .     S
C740   C861    1.410   1_455 S
C741   N761    1.388   .     A
C741   O774    1.371   .     S
C741   C800    1.410   .     S
C742   O767    1.295   .     A
C742   O766    1.292   .     A
C743   C745    1.458   .     S
C743   O769    1.299   .     A
C743   O768    1.293   .     A
C746   H757    1.082   .     S
C746   C747    1.392   .     A
C747   C208    1.391   1_556 S
C747   Cl239   1.751   1_556 S
C748   H758    1.077   .     S
Cu749  Cu750   2.690   .     S
Cu749  O762    1.962   .     S
Cu749  O766    1.957   .     S
Cu749  N760    2.022   .     S
Cu749  O764    1.955   .     S
Cu749  O768    1.949   .     S
Cu750  N761    2.021   .     S
Cu750  O765    1.949   .     S
Cu750  O769    1.955   .     S
Cu750  O763    1.957   .     S
Cu750  O767    1.962   .     S
H756   C204    1.083   1_556 S
O770   H771    0.992   .     S
O772   H773    0.989   .     S
O774   H775    0.979   .     S
O776   H777    0.988   .     S
C781   O822    1.294   .     A
C781   C797    1.446   .     S
C781   O823    1.293   .     A
C782   C783    1.416   .     A
C782   C244    1.423   1_556 S
C782   C268    1.411   1_556 S
C783   C790    1.430   .     A
C783   C787    1.415   .     A
C784   C788    1.409   .     A
C785   C786    1.400   .     A
C785   C244    1.418   1_556 S
C785   C264    1.403   1_556 S
C786   C787    1.405   .     A
C786   O836    1.382   .     S
C787   Cl840   1.773   .     S
C788   C805    1.408   .     A
C788   Cl838   1.777   .     S
C789   C805    1.398   .     A
C789   H811    1.083   .     S
C789   C804    1.390   .     A
C790   C806    1.402   .     A
C790   C792    1.486   .     S
C791   H819    1.084   .     S
C791   C797    1.399   .     A
C791   C973    1.394   .     S
C792   O825    1.293   .     A
C792   O824    1.314   .     A
C793   C794    1.402   .     A
C793   O830    1.380   .     S
C794   C802    1.447   .     S
C794   C795    1.399   .     A
C795   H812    1.084   .     S
C796   C797    1.415   .     A
C796   O832    1.381   .     S
C796   C975    1.387   .     S
C798   H813    1.081   .     S
C798   N821    1.368   .     A
C798   C859    1.420   .     S
C799   N820    1.369   .     A
C799   H814    1.081   .     S
C800   N820    1.355   .     A
C800   H815    1.082   .     S
C801   N821    1.388   .     A
C801   O834    1.371   .     S
C801   C860    1.410   .     S
C802   O827    1.295   .     A
C802   O826    1.292   .     A
C803   C805    1.458   .     S
C803   O829    1.299   .     A
C803   O828    1.293   .     A
C806   H817    1.082   .     S
C806   C807    1.392   .     A
C807   C268    1.391   1_556 S
C807   Cl299   1.751   1_556 S
C808   H818    1.077   .     S
Cu809  Cu810   2.690   .     S
Cu809  O822    1.962   .     S
Cu809  O826    1.957   .     S
Cu809  N820    2.022   .     S
Cu809  O824    1.955   .     S
Cu809  O828    1.949   .     S
Cu810  N821    2.021   .     S
Cu810  O825    1.949   .     S
Cu810  O829    1.955   .     S
Cu810  O823    1.957   .     S
Cu810  O827    1.962   .     S
H816   C264    1.083   1_556 S
O830   H831    0.992   .     S
O832   H833    0.989   .     S
O834   H835    0.979   .     S
O836   H837    0.988   .     S
C841   O882    1.294   .     A
C841   C857    1.446   .     S
C841   O883    1.293   .     A
C842   C843    1.416   .     A
C842   C304    1.423   1_556 S
C842   C328    1.411   1_556 S
C843   C850    1.430   .     A
C843   C847    1.415   .     A
C844   C848    1.409   .     A
C845   C846    1.400   .     A
C845   C304    1.418   1_556 S
C845   C324    1.403   1_556 S
C846   C847    1.405   .     A
C846   O896    1.382   .     S
C847   Cl900   1.773   .     S
C848   C865    1.408   .     A
C848   Cl898   1.777   .     S
C849   C865    1.398   .     A
C849   H871    1.083   .     S
C849   C864    1.390   .     A
C850   C866    1.402   .     A
C850   C852    1.486   .     S
C851   H879    1.084   .     S
C851   C857    1.399   .     A
C851   C1033   1.394   .     S
C852   O885    1.293   .     A
C852   O884    1.314   .     A
C853   C854    1.402   .     A
C853   O890    1.380   .     S
C854   C862    1.447   .     S
C854   C855    1.399   .     A
C855   H872    1.084   .     S
C856   C857    1.415   .     A
C856   O892    1.381   .     S
C856   C1035   1.387   .     S
C858   H873    1.081   .     S
C858   N881    1.368   .     A
C858   C739    1.420   1_655 S
C859   N880    1.369   .     A
C859   H874    1.081   .     S
C860   N880    1.355   .     A
C860   H875    1.082   .     S
C861   N881    1.388   .     A
C861   O894    1.371   .     S
C861   C740    1.410   1_655 S
C862   O887    1.295   .     A
C862   O886    1.292   .     A
C863   C865    1.458   .     S
C863   O889    1.299   .     A
C863   O888    1.293   .     A
C866   H877    1.082   .     S
C866   C867    1.392   .     A
C867   C328    1.391   1_556 S
C867   Cl359   1.751   1_556 S
C868   H878    1.077   .     S
Cu869  Cu870   2.690   .     S
Cu869  O882    1.962   .     S
Cu869  O886    1.957   .     S
Cu869  N880    2.022   .     S
Cu869  O884    1.955   .     S
Cu869  O888    1.949   .     S
Cu870  N881    2.021   .     S
Cu870  O885    1.949   .     S
Cu870  O889    1.955   .     S
Cu870  O883    1.957   .     S
Cu870  O887    1.962   .     S
H876   C324    1.083   1_556 S
O890   H891    0.992   .     S
O892   H893    0.989   .     S
O894   H895    0.979   .     S
O896   H897    0.988   .     S
C901   O942    1.294   .     A
C901   C917    1.446   .     S
C901   O943    1.293   .     A
C902   C903    1.416   .     A
C902   C364    1.423   1_556 S
C902   C388    1.411   1_556 S
C903   C910    1.430   .     A
C903   C907    1.415   .     A
C904   C908    1.409   .     A
C905   C906    1.400   .     A
C905   C364    1.418   1_556 S
C905   C384    1.403   1_556 S
C906   C907    1.405   .     A
C906   O956    1.382   .     S
C907   Cl960   1.773   .     S
C908   C925    1.408   .     A
C908   Cl958   1.777   .     S
C909   C925    1.398   .     A
C909   H931    1.083   .     S
C909   C924    1.390   .     A
C910   C926    1.402   .     A
C910   C912    1.486   .     S
C911   H939    1.084   .     S
C911   C917    1.399   .     A
C911   C553    1.394   1_565 S
C912   O945    1.293   .     A
C912   O944    1.314   .     A
C913   C914    1.402   .     A
C913   O950    1.380   .     S
C914   C922    1.447   .     S
C914   C915    1.399   .     A
C915   H932    1.084   .     S
C916   C917    1.415   .     A
C916   O952    1.381   .     S
C916   C555    1.387   1_565 S
C918   H933    1.081   .     S
C918   N941    1.368   .     A
C918   C979    1.420   .     S
C919   N940    1.369   .     A
C919   H934    1.081   .     S
C919   C1038   1.420   1_455 S
C920   N940    1.355   .     A
C920   H935    1.082   .     S
C920   C1041   1.410   1_455 S
C921   N941    1.388   .     A
C921   O954    1.371   .     S
C921   C980    1.410   .     S
C922   O947    1.295   .     A
C922   O946    1.292   .     A
C923   C925    1.458   .     S
C923   O949    1.299   .     A
C923   O948    1.293   .     A
C926   H937    1.082   .     S
C926   C927    1.392   .     A
C927   C388    1.391   1_556 S
C927   Cl419   1.751   1_556 S
C928   H938    1.077   .     S
Cu929  Cu930   2.690   .     S
Cu929  O942    1.962   .     S
Cu929  O946    1.957   .     S
Cu929  N940    2.022   .     S
Cu929  O944    1.955   .     S
Cu929  O948    1.949   .     S
Cu930  N941    2.021   .     S
Cu930  O945    1.949   .     S
Cu930  O949    1.955   .     S
Cu930  O943    1.957   .     S
Cu930  O947    1.962   .     S
H936   C384    1.083   1_556 S
O950   H951    0.992   .     S
O952   H953    0.989   .     S
O954   H955    0.979   .     S
O956   H957    0.988   .     S
C961   O1002   1.294   .     A
C961   C977    1.446   .     S
C961   O1003   1.293   .     A
C962   C963    1.416   .     A
C962   C424    1.423   1_556 S
C962   C448    1.411   1_556 S
C963   C970    1.430   .     A
C963   C967    1.415   .     A
C964   C968    1.409   .     A
C965   C966    1.400   .     A
C965   C424    1.418   1_556 S
C965   C444    1.403   1_556 S
C966   C967    1.405   .     A
C966   O1016   1.382   .     S
C967   Cl1020  1.773   .     S
C968   C985    1.408   .     A
C968   Cl1018  1.777   .     S
C969   C985    1.398   .     A
C969   H991    1.083   .     S
C969   C984    1.390   .     A
C970   C986    1.402   .     A
C970   C972    1.486   .     S
C971   H999    1.084   .     S
C971   C977    1.399   .     A
C971   C613    1.394   1_565 S
C972   O1005   1.293   .     A
C972   O1004   1.314   .     A
C973   C974    1.402   .     A
C973   O1010   1.380   .     S
C974   C982    1.447   .     S
C974   C975    1.399   .     A
C975   H992    1.084   .     S
C976   C977    1.415   .     A
C976   O1012   1.381   .     S
C976   C615    1.387   1_565 S
C978   H993    1.081   .     S
C978   N1001   1.368   .     A
C978   C1039   1.420   .     S
C979   N1000   1.369   .     A
C979   H994    1.081   .     S
C980   N1000   1.355   .     A
C980   H995    1.082   .     S
C981   N1001   1.388   .     A
C981   O1014   1.371   .     S
C981   C1040   1.410   .     S
C982   O1007   1.295   .     A
C982   O1006   1.292   .     A
C983   C985    1.458   .     S
C983   O1009   1.299   .     A
C983   O1008   1.293   .     A
C986   H997    1.082   .     S
C986   C987    1.392   .     A
C987   C448    1.391   1_556 S
C987   Cl479   1.751   1_556 S
C988   H998    1.077   .     S
Cu989  Cu990   2.690   .     S
Cu989  O1002   1.962   .     S
Cu989  O1006   1.957   .     S
Cu989  N1000   2.022   .     S
Cu989  O1004   1.955   .     S
Cu989  O1008   1.949   .     S
Cu990  N1001   2.021   .     S
Cu990  O1005   1.949   .     S
Cu990  O1009   1.955   .     S
Cu990  O1003   1.957   .     S
Cu990  O1007   1.962   .     S
H996   C444    1.083   1_556 S
O1010  H1011   0.992   .     S
O1012  H1013   0.989   .     S
O1014  H1015   0.979   .     S
O1016  H1017   0.988   .     S
C1021  O1062   1.294   .     A
C1021  C1037   1.446   .     S
C1021  O1063   1.293   .     A
C1022  C1023   1.416   .     A
C1022  C484    1.423   1_556 S
C1022  C508    1.411   1_556 S
C1023  C1030   1.430   .     A
C1023  C1027   1.415   .     A
C1024  C1028   1.409   .     A
C1025  C1026   1.400   .     A
C1025  C484    1.418   1_556 S
C1025  C504    1.403   1_556 S
C1026  C1027   1.405   .     A
C1026  O1076   1.382   .     S
C1027  Cl1080  1.773   .     S
C1028  C1045   1.408   .     A
C1028  Cl1078  1.777   .     S
C1029  C1045   1.398   .     A
C1029  H1051   1.083   .     S
C1029  C1044   1.390   .     A
C1030  C1046   1.402   .     A
C1030  C1032   1.486   .     S
C1031  H1059   1.084   .     S
C1031  C1037   1.399   .     A
C1031  C673    1.394   1_565 S
C1032  O1065   1.293   .     A
C1032  O1064   1.314   .     A
C1033  C1034   1.402   .     A
C1033  O1070   1.380   .     S
C1034  C1042   1.447   .     S
C1034  C1035   1.399   .     A
C1035  H1052   1.084   .     S
C1036  C1037   1.415   .     A
C1036  O1072   1.381   .     S
C1036  C675    1.387   1_565 S
C1038  H1053   1.081   .     S
C1038  N1061   1.368   .     A
C1038  C919    1.420   1_655 S
C1039  N1060   1.369   .     A
C1039  H1054   1.081   .     S
C1040  N1060   1.355   .     A
C1040  H1055   1.082   .     S
C1041  N1061   1.388   .     A
C1041  O1074   1.371   .     S
C1041  C920    1.410   1_655 S
C1042  O1067   1.295   .     A
C1042  O1066   1.292   .     A
C1043  C1045   1.458   .     S
C1043  O1069   1.299   .     A
C1043  O1068   1.293   .     A
C1046  H1057   1.082   .     S
C1046  C1047   1.392   .     A
C1047  C508    1.391   1_556 S
C1047  Cl539   1.751   1_556 S
C1048  H1058   1.077   .     S
Cu1049 Cu1050  2.690   .     S
Cu1049 O1062   1.962   .     S
Cu1049 O1066   1.957   .     S
Cu1049 N1060   2.022   .     S
Cu1049 O1064   1.955   .     S
Cu1049 O1068   1.949   .     S
Cu1050 N1061   2.021   .     S
Cu1050 O1065   1.949   .     S
Cu1050 O1069   1.955   .     S
Cu1050 O1063   1.957   .     S
Cu1050 O1067   1.962   .     S
H1056  C504    1.083   1_556 S
O1070  H1071   0.992   .     S
O1072  H1073   0.989   .     S
O1074  H1075   0.979   .     S
O1076  H1077   0.988   .     S
