data_str_m1_o1_o17_pcu_sym.114
_audit_creation_date              2020-01-03
_audit_creation_method            'Materials Studio'
_symmetry_space_group_name_H-M    'P1'
_symmetry_Int_Tables_number       1
_symmetry_cell_setting            triclinic
loop_
_symmetry_equiv_pos_as_xyz
  x,y,z
_cell_length_a                    36.6639
_cell_length_b                    36.6639
_cell_length_c                    34.4882
_cell_angle_alpha                 89.9998
_cell_angle_beta                  89.9997
_cell_angle_gamma                 90.1829
loop_
_atom_site_label
_atom_site_type_symbol
_atom_site_fract_x
_atom_site_fract_y
_atom_site_fract_z
_atom_site_U_iso_or_equiv
_atom_site_adp_type
_atom_site_occupancy
C1     C     0.02060   0.27683   0.41825   0.00000  Uiso   1.00
C2     C     0.22940   0.47317   0.08175   0.00000  Uiso   1.00
C3     C     0.22644   0.47613   0.54105   0.00000  Uiso   1.00
C4     C     0.02386   0.27356   0.45895   0.00000  Uiso   1.00
C5     C     0.47614   0.22644   0.54105   0.00000  Uiso   1.00
C6     C     0.22644   0.47612   0.45895   0.00000  Uiso   1.00
C7     C     0.27356   0.02386   0.54105   0.00000  Uiso   1.00
C8     C     0.22613   0.47644   0.95895   0.00000  Uiso   1.00
C9     C     0.27386   0.02356   0.04105   0.00000  Uiso   1.00
C10    C     0.02356   0.27387   0.95895   0.00000  Uiso   1.00
C11    C     0.47644   0.22613   0.04105   0.00000  Uiso   1.00
C12    C     0.27386   0.02356   0.95895   0.00000  Uiso   1.00
C13    C     0.47317   0.22940   0.91825   0.00000  Uiso   1.00
C14    C     0.22614   0.47644   0.04105   0.00000  Uiso   1.00
C15    C     0.47644   0.22613   0.95895   0.00000  Uiso   1.00
C16    C     0.02356   0.27386   0.04105   0.00000  Uiso   1.00
C17    C     0.09806   0.34806   0.25000   0.00000  Uiso   1.00
C18    C     0.40194   0.15194   0.75000   0.00000  Uiso   1.00
C19    C     0.15193   0.09807   0.25000   0.00000  Uiso   1.00
C20    C     0.34807   0.40193   0.75000   0.00000  Uiso   1.00
C21    C     0.40194   0.15194   0.25000   0.00000  Uiso   1.00
C22    C     0.09806   0.34806   0.75000   0.00000  Uiso   1.00
C23    C     0.34807   0.40193   0.25000   0.00000  Uiso   1.00
C24    C     0.02683   0.27060   0.08175   0.00000  Uiso   1.00
C25    C     0.15193   0.09807   0.75000   0.00000  Uiso   1.00
C26    C     0.09807   0.15193   0.75000   0.00000  Uiso   1.00
C27    C     0.40193   0.34807   0.25000   0.00000  Uiso   1.00
C28    C     0.15194   0.40194   0.75000   0.00000  Uiso   1.00
C29    C     0.34806   0.09806   0.25000   0.00000  Uiso   1.00
C30    C     0.40193   0.34807   0.75000   0.00000  Uiso   1.00
C31    C     0.09807   0.15193   0.25000   0.00000  Uiso   1.00
C32    C     0.34806   0.09806   0.75000   0.00000  Uiso   1.00
C33    C     0.15194   0.40194   0.25000   0.00000  Uiso   1.00
C34    C     0.00000   0.25000   0.47940   0.00000  Uiso   1.00
C35    C     0.22940   0.47317   0.91825   0.00000  Uiso   1.00
C36    C     0.00000   0.25000   0.52060   0.00000  Uiso   1.00
C37    C     0.25001   0.49999   0.47940   0.00000  Uiso   1.00
C38    C     0.25001   0.49999   0.52059   0.00000  Uiso   1.00
C39    C     0.25000  -0.00000   0.97940   0.00000  Uiso   1.00
C40    C     0.25000  -0.00000   0.02060   0.00000  Uiso   1.00
C41    C     0.00000   0.25000   0.97940   0.00000  Uiso   1.00
C42    C     0.00000   0.25000   0.02060   0.00000  Uiso   1.00
C43    C     0.10462   0.45018   0.25602   0.00000  Uiso   1.00
C44    C     0.39537   0.04983   0.74397   0.00000  Uiso   1.00
C45    C     0.09968   0.15414   0.17782   0.00000  Uiso   1.00
C46    C     0.27060   0.02683   0.08175   0.00000  Uiso   1.00
C47    C     0.40032   0.34587   0.82218   0.00000  Uiso   1.00
C48    C     0.39537   0.04983   0.25606   0.00000  Uiso   1.00
C49    C     0.10462   0.45018   0.74399   0.00000  Uiso   1.00
C50    C     0.40031   0.34586   0.17782   0.00000  Uiso   1.00
C51    C     0.09968   0.15413   0.82218   0.00000  Uiso   1.00
C52    C     0.15413   0.09968   0.82218   0.00000  Uiso   1.00
C53    C     0.34585   0.40031   0.17782   0.00000  Uiso   1.00
C54    C     0.04982   0.39538   0.74399   0.00000  Uiso   1.00
C55    C     0.45017   0.10463   0.25604   0.00000  Uiso   1.00
C56    C     0.34586   0.40032   0.82218   0.00000  Uiso   1.00
C57    C     0.02683   0.27060   0.91825   0.00000  Uiso   1.00
C58    C     0.15413   0.09968   0.17782   0.00000  Uiso   1.00
C59    C     0.45017   0.10463   0.74398   0.00000  Uiso   1.00
C60    C     0.04982   0.39538   0.25602   0.00000  Uiso   1.00
C61    C     0.35462   0.20018   0.75602   0.00000  Uiso   1.00
C62    C     0.14538   0.29983   0.24398   0.00000  Uiso   1.00
C63    C     0.34969   0.40414   0.67782   0.00000  Uiso   1.00
C64    C     0.15032   0.09587   0.32218   0.00000  Uiso   1.00
C65    C     0.14538   0.29982   0.75601   0.00000  Uiso   1.00
C66    C     0.35463   0.20017   0.24397   0.00000  Uiso   1.00
C67    C     0.15032   0.09587   0.67782   0.00000  Uiso   1.00
C68    C     0.47317   0.22940   0.08175   0.00000  Uiso   1.00
C69    C     0.34970   0.40416   0.32218   0.00000  Uiso   1.00
C70    C     0.40415   0.34970   0.32218   0.00000  Uiso   1.00
C71    C     0.09587   0.15032   0.67782   0.00000  Uiso   1.00
C72    C     0.29983   0.14537   0.24397   0.00000  Uiso   1.00
C73    C     0.20017   0.35462   0.75601   0.00000  Uiso   1.00
C74    C     0.09586   0.15032   0.32218   0.00000  Uiso   1.00
C75    C     0.40413   0.34968   0.67782   0.00000  Uiso   1.00
C76    C     0.20017   0.35463   0.24398   0.00000  Uiso   1.00
C77    C     0.29982   0.14538   0.75602   0.00000  Uiso   1.00
C78    C     0.03681   0.30963   0.39632   0.00000  Uiso   1.00
C79    C     0.00000   0.25000   0.39812   0.00000  Uiso   1.00
C80    C     0.00698   0.33452   0.37967   0.00000  Uiso   1.00
C81    C     0.02351   0.36629   0.35701   0.00000  Uiso   1.00
C82    C     0.46319   0.19037   0.60367   0.00000  Uiso   1.00
C83    C     0.49303   0.16548   0.62032   0.00000  Uiso   1.00
C84    C     0.47650   0.13371   0.64300   0.00000  Uiso   1.00
C85    C     0.19037   0.46318   0.39632   0.00000  Uiso   1.00
C86    C     0.16547   0.49303   0.37969   0.00000  Uiso   1.00
C87    C     0.13373   0.47650   0.35697   0.00000  Uiso   1.00
C88    C     0.30963   0.03681   0.60367   0.00000  Uiso   1.00
C89    C     0.33452   0.00698   0.62034   0.00000  Uiso   1.00
C90    C     0.00000   0.25000   0.60187   0.00000  Uiso   1.00
C91    C     0.36632   0.02352   0.64295   0.00000  Uiso   1.00
C92    C     0.46319   0.19037   0.39633   0.00000  Uiso   1.00
C93    C     0.49303   0.16548   0.37967   0.00000  Uiso   1.00
C94    C     0.47649   0.13370   0.35702   0.00000  Uiso   1.00
C95    C     0.03681   0.30963   0.60367   0.00000  Uiso   1.00
C96    C     0.00697   0.33453   0.62032   0.00000  Uiso   1.00
C97    C     0.02350   0.36629   0.64300   0.00000  Uiso   1.00
C98    C     0.30965   0.03679   0.39632   0.00000  Uiso   1.00
C99    C     0.33451   0.00695   0.37960   0.00000  Uiso   1.00
C100   C     0.36648   0.02351   0.35726   0.00000  Uiso   1.00
C101   C     0.25000   0.49999   0.39812   0.00000  Uiso   1.00
C102   C     0.19037   0.46318   0.60367   0.00000  Uiso   1.00
C103   C     0.16547   0.49302   0.62030   0.00000  Uiso   1.00
C104   C     0.13375   0.47649   0.64306   0.00000  Uiso   1.00
C105   C     0.28681   0.05964   0.89632   0.00000  Uiso   1.00
C106   C     0.25697   0.08452   0.87967   0.00000  Uiso   1.00
C107   C     0.27350   0.11629   0.85701   0.00000  Uiso   1.00
C108   C     0.21318   0.44037   0.10368   0.00000  Uiso   1.00
C109   C     0.24302   0.41548   0.12033   0.00000  Uiso   1.00
C110   C     0.22649   0.38371   0.14299   0.00000  Uiso   1.00
C111   C     0.44037   0.21318   0.89633   0.00000  Uiso   1.00
C112   C     0.47940   0.22317   0.58175   0.00000  Uiso   1.00
C113   C     0.25000  -0.00000   0.60187   0.00000  Uiso   1.00
C114   C     0.41547   0.24302   0.87969   0.00000  Uiso   1.00
C115   C     0.38374   0.22648   0.85696   0.00000  Uiso   1.00
C116   C     0.05963   0.28681   0.10368   0.00000  Uiso   1.00
C117   C     0.08452   0.25698   0.12033   0.00000  Uiso   1.00
C118   C     0.11629   0.27351   0.14300   0.00000  Uiso   1.00
C119   C     0.21318   0.44037   0.89632   0.00000  Uiso   1.00
C120   C     0.24302   0.41547   0.87968   0.00000  Uiso   1.00
C121   C     0.22649   0.38372   0.85699   0.00000  Uiso   1.00
C122   C     0.28681   0.05963   0.10367   0.00000  Uiso   1.00
C123   C     0.25698   0.08453   0.12032   0.00000  Uiso   1.00
C124   C     0.25000   0.00000   0.89812   0.00000  Uiso   1.00
C125   C     0.27351   0.11628   0.14300   0.00000  Uiso   1.00
C126   C     0.05963   0.28682   0.89632   0.00000  Uiso   1.00
C127   C     0.08453   0.25698   0.87969   0.00000  Uiso   1.00
C128   C     0.11625   0.27352   0.85694   0.00000  Uiso   1.00
C129   C     0.44037   0.21318   0.10367   0.00000  Uiso   1.00
C130   C     0.41547   0.24302   0.12032   0.00000  Uiso   1.00
C131   C     0.38372   0.22648   0.14301   0.00000  Uiso   1.00
C132   C     0.25000  -0.00000   0.10188   0.00000  Uiso   1.00
C133   C     0.00000   0.25000   0.89813   0.00000  Uiso   1.00
C134   C     0.00000   0.25000   0.10188   0.00000  Uiso   1.00
C135   C     0.44942   0.20729   0.47995   0.00000  Uiso   1.00
C136   C     0.05058   0.29271   0.52005   0.00000  Uiso   1.00
C137   C     0.29271   0.05057   0.47994   0.00000  Uiso   1.00
C138   C     0.20729   0.44941   0.52005   0.00000  Uiso   1.00
C139   C     0.05058   0.29271   0.47994   0.00000  Uiso   1.00
C140   C     0.22317   0.47939   0.41825   0.00000  Uiso   1.00
C141   C     0.44942   0.20729   0.52005   0.00000  Uiso   1.00
C142   C     0.20729   0.44941   0.47994   0.00000  Uiso   1.00
C143   C     0.29271   0.05057   0.52005   0.00000  Uiso   1.00
C144   C     0.19942   0.45729   0.97995   0.00000  Uiso   1.00
C145   C     0.30058   0.04271   0.02005   0.00000  Uiso   1.00
C146   C     0.04271   0.30058   0.97995   0.00000  Uiso   1.00
C147   C     0.45730   0.19942   0.02005   0.00000  Uiso   1.00
C148   C     0.30058   0.04271   0.97994   0.00000  Uiso   1.00
C149   C     0.19942   0.45729   0.02006   0.00000  Uiso   1.00
C150   C     0.45730   0.19942   0.97995   0.00000  Uiso   1.00
C151   C     0.27683   0.02059   0.58175   0.00000  Uiso   1.00
C152   C     0.04271   0.30058   0.02006   0.00000  Uiso   1.00
C153   C     0.24999  -0.00000   0.35577   0.00000  Uiso   1.00
C154   C     0.25000  -0.00000   0.64423   0.00000  Uiso   1.00
C155   C    -0.00000   0.25000   0.35577   0.00000  Uiso   1.00
C156   C     0.00000   0.25000   0.64423   0.00000  Uiso   1.00
C157   C     0.00000   0.25000   0.85577   0.00000  Uiso   1.00
C158   C    -0.00000   0.25000   0.14423   0.00000  Uiso   1.00
C159   C     0.25000  -0.00000   0.85577   0.00000  Uiso   1.00
C160   C     0.25000   0.00000   0.14423   0.00000  Uiso   1.00
C161   C     0.18003   0.06997   0.25000   0.00000  Uiso   1.00
C162   C     0.47940   0.22317   0.41825   0.00000  Uiso   1.00
C163   C     0.31997   0.43003   0.75000   0.00000  Uiso   1.00
C164   C     0.43005   0.18005   0.25000   0.00000  Uiso   1.00
C165   C     0.06995   0.31995   0.75000   0.00000  Uiso   1.00
C166   C     0.31997   0.43003   0.25000   0.00000  Uiso   1.00
C167   C     0.18003   0.06997   0.75000   0.00000  Uiso   1.00
C168   C     0.06995   0.31995   0.25000   0.00000  Uiso   1.00
C169   C     0.43005   0.18005   0.75000   0.00000  Uiso   1.00
C170   C     0.18005   0.43005   0.75000   0.00000  Uiso   1.00
C171   C     0.31995   0.06995   0.25000   0.00000  Uiso   1.00
C172   C     0.43003   0.31997   0.75000   0.00000  Uiso   1.00
C173   C     0.02060   0.27683   0.58175   0.00000  Uiso   1.00
C174   C     0.06997   0.18003   0.25000   0.00000  Uiso   1.00
C175   C     0.31995   0.06995   0.75000   0.00000  Uiso   1.00
C176   C     0.18005   0.43005   0.25000   0.00000  Uiso   1.00
C177   C     0.06997   0.18003   0.75000   0.00000  Uiso   1.00
C178   C     0.43003   0.31997   0.25000   0.00000  Uiso   1.00
C179   C     0.11493   0.41208   0.25234   0.00000  Uiso   1.00
C180   C     0.38507   0.08792   0.74766   0.00000  Uiso   1.00
C181   C     0.11207   0.13902   0.21446   0.00000  Uiso   1.00
C182   C     0.38793   0.36098   0.78554   0.00000  Uiso   1.00
C183   C     0.38507   0.08792   0.25235   0.00000  Uiso   1.00
C184   C     0.27684   0.02058   0.41825   0.00000  Uiso   1.00
C185   C     0.11493   0.41208   0.74767   0.00000  Uiso   1.00
C186   C     0.38793   0.36098   0.21446   0.00000  Uiso   1.00
C187   C     0.11207   0.13901   0.78554   0.00000  Uiso   1.00
C188   C     0.13901   0.11207   0.78554   0.00000  Uiso   1.00
C189   C     0.36098   0.38793   0.21446   0.00000  Uiso   1.00
C190   C     0.08792   0.38507   0.74767   0.00000  Uiso   1.00
C191   C     0.41208   0.11493   0.25235   0.00000  Uiso   1.00
C192   C     0.36098   0.38793   0.78554   0.00000  Uiso   1.00
C193   C     0.13902   0.11207   0.21446   0.00000  Uiso   1.00
C194   C     0.41208   0.11493   0.74766   0.00000  Uiso   1.00
C195   C     0.22317   0.47940   0.58175   0.00000  Uiso   1.00
C196   C     0.08792   0.38507   0.25234   0.00000  Uiso   1.00
C197   C     0.36493   0.16208   0.75234   0.00000  Uiso   1.00
C198   C     0.13507   0.33792   0.24766   0.00000  Uiso   1.00
C199   C     0.36207   0.38902   0.71446   0.00000  Uiso   1.00
C200   C     0.13793   0.11098   0.28554   0.00000  Uiso   1.00
C201   C     0.13507   0.33792   0.75233   0.00000  Uiso   1.00
C202   C     0.36493   0.16208   0.24766   0.00000  Uiso   1.00
C203   C     0.13793   0.11099   0.71446   0.00000  Uiso   1.00
C204   C     0.36208   0.38903   0.28554   0.00000  Uiso   1.00
C205   C     0.38902   0.36208   0.28554   0.00000  Uiso   1.00
C206   C     0.27060   0.02683   0.91825   0.00000  Uiso   1.00
C207   C     0.11099   0.13794   0.71446   0.00000  Uiso   1.00
C208   C     0.33792   0.13507   0.24766   0.00000  Uiso   1.00
C209   C     0.16208   0.36493   0.75233   0.00000  Uiso   1.00
C210   C     0.11098   0.13793   0.28554   0.00000  Uiso   1.00
C211   C     0.38902   0.36207   0.71446   0.00000  Uiso   1.00
C212   C     0.16208   0.36493   0.24766   0.00000  Uiso   1.00
C213   C     0.33792   0.13507   0.75234   0.00000  Uiso   1.00
C214   C     0.47614   0.22644   0.45895   0.00000  Uiso   1.00
C215   C     0.02386   0.27356   0.54105   0.00000  Uiso   1.00
C216   C     0.27357   0.02385   0.45894   0.00000  Uiso   1.00
H217   H     0.42701   0.19329   0.46614   0.00000  Uiso   1.00
H218   H     0.32299   0.05671   0.03386   0.00000  Uiso   1.00
H219   H     0.05024   0.30545   0.12690   0.00000  Uiso   1.00
H220   H     0.20907   0.36668   0.87618   0.00000  Uiso   1.00
H221   H     0.20981   0.39414   0.83251   0.00000  Uiso   1.00
H222   H     0.24865   0.36644   0.84509   0.00000  Uiso   1.00
H223   H     0.26134   0.43066   0.85988   0.00000  Uiso   1.00
H224   H     0.25981   0.40448   0.90381   0.00000  Uiso   1.00
H225   H     0.19625   0.42250   0.91470   0.00000  Uiso   1.00
H226   H     0.19455   0.44976   0.87310   0.00000  Uiso   1.00
H227   H     0.29018   0.10587   0.16749   0.00000  Uiso   1.00
H228   H     0.29093   0.13332   0.12381   0.00000  Uiso   1.00
H229   H     0.05671   0.32299   0.96614   0.00000  Uiso   1.00
H230   H     0.25135   0.13356   0.15490   0.00000  Uiso   1.00
H231   H     0.24019   0.09552   0.09618   0.00000  Uiso   1.00
H232   H     0.23866   0.06934   0.14012   0.00000  Uiso   1.00
H233   H     0.30544   0.05024   0.12690   0.00000  Uiso   1.00
H234   H     0.30375   0.07750   0.08529   0.00000  Uiso   1.00
H235   H     0.10579   0.29014   0.83243   0.00000  Uiso   1.00
H236   H     0.13328   0.29100   0.87608   0.00000  Uiso   1.00
H237   H     0.13354   0.25136   0.84507   0.00000  Uiso   1.00
H238   H     0.09557   0.24023   0.90384   0.00000  Uiso   1.00
H239   H     0.06934   0.23863   0.85994   0.00000  Uiso   1.00
H240   H     0.44330   0.17701   0.03386   0.00000  Uiso   1.00
H241   H     0.05024   0.30544   0.87310   0.00000  Uiso   1.00
H242   H     0.07750   0.30376   0.91470   0.00000  Uiso   1.00
H243   H     0.36669   0.20905   0.12382   0.00000  Uiso   1.00
H244   H     0.39414   0.20981   0.16750   0.00000  Uiso   1.00
H245   H     0.36644   0.24864   0.15491   0.00000  Uiso   1.00
H246   H     0.43066   0.26134   0.14012   0.00000  Uiso   1.00
H247   H     0.40447   0.25980   0.09618   0.00000  Uiso   1.00
H248   H     0.42250   0.19625   0.08530   0.00000  Uiso   1.00
H249   H     0.44976   0.19455   0.12690   0.00000  Uiso   1.00
H250   H     0.32299   0.05671   0.96614   0.00000  Uiso   1.00
H251   H     0.17701   0.44329   0.03386   0.00000  Uiso   1.00
H252   H     0.44330   0.17701   0.96614   0.00000  Uiso   1.00
H253   H     0.05671   0.32299   0.03386   0.00000  Uiso   1.00
H254   H     0.04092   0.38333   0.37622   0.00000  Uiso   1.00
H255   H     0.04021   0.35589   0.33253   0.00000  Uiso   1.00
H256   H     0.00135   0.38357   0.34510   0.00000  Uiso   1.00
H257   H     0.07299   0.30671   0.53386   0.00000  Uiso   1.00
H258   H     0.48867   0.31934   0.35986   0.00000  Uiso   1.00
H259   H     0.49017   0.34551   0.40380   0.00000  Uiso   1.00
H260   H     0.05374   0.32751   0.41470   0.00000  Uiso   1.00
H261   H     0.05545   0.30024   0.37310   0.00000  Uiso   1.00
H262   H     0.45982   0.14412   0.66748   0.00000  Uiso   1.00
H263   H     0.45908   0.11667   0.62380   0.00000  Uiso   1.00
H264   H     0.49866   0.11643   0.65490   0.00000  Uiso   1.00
H265   H     0.00983   0.15448   0.59619   0.00000  Uiso   1.00
H266   H     0.01134   0.18066   0.64013   0.00000  Uiso   1.00
H267   H     0.44456   0.19975   0.62690   0.00000  Uiso   1.00
H268   H     0.30671   0.07298   0.46613   0.00000  Uiso   1.00
H269   H     0.44626   0.17249   0.58530   0.00000  Uiso   1.00
H270   H     0.14417   0.45986   0.33247   0.00000  Uiso   1.00
H271   H     0.11670   0.45904   0.37613   0.00000  Uiso   1.00
H272   H     0.11644   0.49866   0.34510   0.00000  Uiso   1.00
H273   H     0.15445   0.00979   0.40384   0.00000  Uiso   1.00
H274   H     0.18066   0.01137   0.35993   0.00000  Uiso   1.00
H275   H     0.19975   0.44456   0.37309   0.00000  Uiso   1.00
H276   H     0.17250   0.44624   0.41470   0.00000  Uiso   1.00
H277   H     0.38336   0.04087   0.62370   0.00000  Uiso   1.00
H278   H     0.35595   0.04026   0.66740   0.00000  Uiso   1.00
H279   H     0.19329   0.42701   0.53386   0.00000  Uiso   1.00
H280   H     0.38358   0.00136   0.65489   0.00000  Uiso   1.00
H281   H     0.31934   0.48871   0.64020   0.00000  Uiso   1.00
H282   H     0.34547   0.49014   0.59622   0.00000  Uiso   1.00
H283   H     0.32751   0.05373   0.58529   0.00000  Uiso   1.00
H284   H     0.30025   0.05545   0.62688   0.00000  Uiso   1.00
H285   H     0.45910   0.11666   0.37624   0.00000  Uiso   1.00
H286   H     0.45978   0.14409   0.33255   0.00000  Uiso   1.00
H287   H     0.49865   0.11643   0.34511   0.00000  Uiso   1.00
H288   H     0.01132   0.18066   0.35985   0.00000  Uiso   1.00
H289   H     0.00984   0.15450   0.40381   0.00000  Uiso   1.00
H290   H     0.07299   0.30671   0.46614   0.00000  Uiso   1.00
H291   H     0.44626   0.17249   0.41471   0.00000  Uiso   1.00
H292   H     0.44455   0.19975   0.37310   0.00000  Uiso   1.00
H293   H     0.04017   0.35587   0.66749   0.00000  Uiso   1.00
H294   H     0.04093   0.38332   0.62381   0.00000  Uiso   1.00
H295   H     0.00134   0.38357   0.65489   0.00000  Uiso   1.00
H296   H     0.49018   0.34552   0.59618   0.00000  Uiso   1.00
H297   H     0.48866   0.31934   0.64012   0.00000  Uiso   1.00
H298   H     0.05544   0.30025   0.62690   0.00000  Uiso   1.00
H299   H     0.05374   0.32751   0.58530   0.00000  Uiso   1.00
H300   H     0.35629   0.04053   0.33291   0.00000  Uiso   1.00
H301   H     0.42701   0.19329   0.53386   0.00000  Uiso   1.00
H302   H     0.38356   0.04062   0.37676   0.00000  Uiso   1.00
H303   H     0.38366   0.00135   0.34519   0.00000  Uiso   1.00
H304   H     0.34529   0.48993   0.40368   0.00000  Uiso   1.00
H305   H     0.31935   0.48886   0.35954   0.00000  Uiso   1.00
H306   H     0.30027   0.05546   0.37313   0.00000  Uiso   1.00
H307   H     0.32755   0.05366   0.41474   0.00000  Uiso   1.00
H308   H     0.11672   0.45900   0.62392   0.00000  Uiso   1.00
H309   H     0.14422   0.45988   0.66757   0.00000  Uiso   1.00
H310   H     0.11645   0.49865   0.65492   0.00000  Uiso   1.00
H311   H     0.18066   0.01138   0.64005   0.00000  Uiso   1.00
H312   H     0.19329   0.42701   0.46614   0.00000  Uiso   1.00
H313   H     0.15443   0.00977   0.59615   0.00000  Uiso   1.00
H314   H     0.17250   0.44624   0.58530   0.00000  Uiso   1.00
H315   H     0.19976   0.44456   0.62691   0.00000  Uiso   1.00
H316   H     0.29091   0.13333   0.87622   0.00000  Uiso   1.00
H317   H     0.29020   0.10589   0.83253   0.00000  Uiso   1.00
H318   H     0.25134   0.13357   0.84510   0.00000  Uiso   1.00
H319   H     0.23867   0.06934   0.85986   0.00000  Uiso   1.00
H320   H     0.24017   0.09551   0.90381   0.00000  Uiso   1.00
H321   H     0.30374   0.07751   0.91470   0.00000  Uiso   1.00
H322   H     0.30544   0.05025   0.87310   0.00000  Uiso   1.00
H323   H     0.30671   0.07298   0.53385   0.00000  Uiso   1.00
H324   H     0.20980   0.39411   0.16747   0.00000  Uiso   1.00
H325   H     0.20907   0.36667   0.12379   0.00000  Uiso   1.00
H326   H     0.24865   0.36643   0.15490   0.00000  Uiso   1.00
H327   H     0.25982   0.40449   0.09619   0.00000  Uiso   1.00
H328   H     0.26133   0.43066   0.14014   0.00000  Uiso   1.00
H329   H     0.19455   0.44976   0.12690   0.00000  Uiso   1.00
H330   H     0.19626   0.42250   0.08530   0.00000  Uiso   1.00
H331   H     0.39419   0.20984   0.83246   0.00000  Uiso   1.00
H332   H     0.36671   0.20902   0.87612   0.00000  Uiso   1.00
H333   H     0.36645   0.24864   0.84508   0.00000  Uiso   1.00
H334   H     0.17701   0.44329   0.96614   0.00000  Uiso   1.00
H335   H     0.40445   0.25978   0.90383   0.00000  Uiso   1.00
H336   H     0.43066   0.26136   0.85992   0.00000  Uiso   1.00
H337   H     0.44976   0.19455   0.87310   0.00000  Uiso   1.00
H338   H     0.42250   0.19624   0.91470   0.00000  Uiso   1.00
H339   H     0.13333   0.29092   0.12379   0.00000  Uiso   1.00
H340   H     0.10588   0.29020   0.16747   0.00000  Uiso   1.00
H341   H     0.13357   0.25135   0.15490   0.00000  Uiso   1.00
H342   H     0.06934   0.23867   0.14014   0.00000  Uiso   1.00
H343   H     0.09551   0.24018   0.09619   0.00000  Uiso   1.00
H344   H     0.07751   0.30374   0.08530   0.00000  Uiso   1.00
N345   N     0.09642   0.48051   0.25895   0.00000  Uiso   1.00
N346   N     0.33395   0.41013   0.14857   0.00000  Uiso   1.00
N347   N     0.01949   0.40358   0.74106   0.00000  Uiso   1.00
N348   N     0.48051   0.09642   0.25897   0.00000  Uiso   1.00
N349   N     0.33396   0.41015   0.85143   0.00000  Uiso   1.00
N350   N     0.16604   0.08985   0.14857   0.00000  Uiso   1.00
N351   N     0.48051   0.09642   0.74105   0.00000  Uiso   1.00
N352   N     0.01949   0.40358   0.25895   0.00000  Uiso   1.00
N353   N     0.34642   0.23051   0.75895   0.00000  Uiso   1.00
N354   N     0.15358   0.26949   0.24105   0.00000  Uiso   1.00
N355   N     0.33986   0.41605   0.64857   0.00000  Uiso   1.00
N356   N     0.40358   0.01949   0.74104   0.00000  Uiso   1.00
N357   N     0.16015   0.08397   0.35143   0.00000  Uiso   1.00
N358   N     0.15358   0.26949   0.75893   0.00000  Uiso   1.00
N359   N     0.34642   0.23051   0.24104   0.00000  Uiso   1.00
N360   N     0.16016   0.08397   0.64856   0.00000  Uiso   1.00
N361   N     0.33988   0.41608   0.35143   0.00000  Uiso   1.00
N362   N     0.41605   0.33987   0.35143   0.00000  Uiso   1.00
N363   N     0.08397   0.16015   0.64857   0.00000  Uiso   1.00
N364   N     0.26949   0.15358   0.24103   0.00000  Uiso   1.00
N365   N     0.23051   0.34642   0.75894   0.00000  Uiso   1.00
N366   N     0.08396   0.16015   0.35143   0.00000  Uiso   1.00
N367   N     0.08985   0.16604   0.14857   0.00000  Uiso   1.00
N368   N     0.41604   0.33985   0.64857   0.00000  Uiso   1.00
N369   N     0.23051   0.34642   0.24105   0.00000  Uiso   1.00
N370   N     0.26949   0.15358   0.75895   0.00000  Uiso   1.00
N371   N     0.41015   0.33396   0.85143   0.00000  Uiso   1.00
N372   N     0.40357   0.01949   0.25901   0.00000  Uiso   1.00
N373   N     0.09642   0.48051   0.74107   0.00000  Uiso   1.00
N374   N     0.41013   0.33395   0.14857   0.00000  Uiso   1.00
N375   N     0.08985   0.16603   0.85143   0.00000  Uiso   1.00
N376   N     0.16603   0.08985   0.85143   0.00000  Uiso   1.00
O377   O     0.25000   0.00000   0.25000   0.00000  Uiso   1.00
O378   O     0.25000   0.46964   0.66245   0.00000  Uiso   1.00
O379   O     0.46963   0.25000   0.33755   0.00000  Uiso   1.00
O380   O     0.03036   0.25000   0.66245   0.00000  Uiso   1.00
O381   O    -0.00000   0.21964   0.83755   0.00000  Uiso   1.00
O382   O    -0.00000   0.28037   0.16245   0.00000  Uiso   1.00
O383   O     0.28036   0.00000   0.83755   0.00000  Uiso   1.00
O384   O     0.21963   0.00000   0.16245   0.00000  Uiso   1.00
O385   O    -0.00000   0.28037   0.83755   0.00000  Uiso   1.00
O386   O     0.00000   0.21964   0.16245   0.00000  Uiso   1.00
O387   O     0.21963   0.00000   0.83755   0.00000  Uiso   1.00
O388   O     0.25000   0.00000   0.75000   0.00000  Uiso   1.00
O389   O     0.28036   0.00000   0.16245   0.00000  Uiso   1.00
O390   O     0.20724   0.07308   0.27302   0.00000  Uiso   1.00
O391   O     0.29275   0.42693   0.72698   0.00000  Uiso   1.00
O392   O     0.42692   0.20725   0.27302   0.00000  Uiso   1.00
O393   O     0.07307   0.29276   0.72698   0.00000  Uiso   1.00
O394   O     0.29275   0.42693   0.27302   0.00000  Uiso   1.00
O395   O     0.20724   0.07308   0.72698   0.00000  Uiso   1.00
O396   O     0.07307   0.29276   0.27302   0.00000  Uiso   1.00
O397   O     0.42692   0.20725   0.72698   0.00000  Uiso   1.00
O398   O     0.20724   0.42693   0.72698   0.00000  Uiso   1.00
O399   O     0.00000   0.25000   0.25000   0.00000  Uiso   1.00
O400   O     0.29275   0.07308   0.27302   0.00000  Uiso   1.00
O401   O     0.42692   0.29276   0.72698   0.00000  Uiso   1.00
O402   O     0.07307   0.20725   0.27302   0.00000  Uiso   1.00
O403   O     0.29275   0.07308   0.72698   0.00000  Uiso   1.00
O404   O     0.20724   0.42693   0.27302   0.00000  Uiso   1.00
O405   O     0.07307   0.20725   0.72698   0.00000  Uiso   1.00
O406   O     0.42692   0.29276   0.27302   0.00000  Uiso   1.00
O407   O     0.45724   0.32308   0.77302   0.00000  Uiso   1.00
O408   O     0.04275   0.17693   0.22698   0.00000  Uiso   1.00
O409   O     0.17692   0.45725   0.77302   0.00000  Uiso   1.00
O410   O     0.00000   0.25000   0.75000   0.00000  Uiso   1.00
O411   O     0.32307   0.04276   0.22698   0.00000  Uiso   1.00
O412   O     0.04275   0.17693   0.77302   0.00000  Uiso   1.00
O413   O     0.45724   0.32308   0.22698   0.00000  Uiso   1.00
O414   O     0.32307   0.04276   0.77302   0.00000  Uiso   1.00
O415   O     0.17692   0.45725   0.22698   0.00000  Uiso   1.00
O416   O     0.45724   0.17693   0.22698   0.00000  Uiso   1.00
O417   O     0.04275   0.32308   0.77302   0.00000  Uiso   1.00
O418   O     0.17692   0.04276   0.22698   0.00000  Uiso   1.00
O419   O     0.32307   0.45725   0.77302   0.00000  Uiso   1.00
O420   O     0.04275   0.32308   0.22698   0.00000  Uiso   1.00
O421   O     0.25000   0.46964   0.33755   0.00000  Uiso   1.00
O422   O     0.45724   0.17693   0.77302   0.00000  Uiso   1.00
O423   O     0.32307   0.45725   0.22698   0.00000  Uiso   1.00
O424   O     0.17692   0.04276   0.77302   0.00000  Uiso   1.00
O425   O     0.25000   0.03037   0.66245   0.00000  Uiso   1.00
O426   O     0.03036   0.25000   0.33755   0.00000  Uiso   1.00
O427   O     0.46963   0.25000   0.66245   0.00000  Uiso   1.00
O428   O     0.25000   0.03037   0.33755   0.00000  Uiso   1.00
Zn429  Zn    0.20659   0.00000   0.21735   0.00000  Uiso   1.00
Zn430  Zn    0.04340   0.25000   0.28265   0.00000  Uiso   1.00
Zn431  Zn    0.25000   0.45660   0.71735   0.00000  Uiso   1.00
Zn432  Zn    0.25000   0.04341   0.28265   0.00000  Uiso   1.00
Zn433  Zn    0.04340   0.25000   0.71735   0.00000  Uiso   1.00
Zn434  Zn    0.45659   0.25000   0.28265   0.00000  Uiso   1.00
Zn435  Zn    0.25000   0.04341   0.71735   0.00000  Uiso   1.00
Zn436  Zn    0.25000   0.45660   0.28265   0.00000  Uiso   1.00
Zn437  Zn    0.29340   0.00000   0.78265   0.00000  Uiso   1.00
Zn438  Zn    0.00000   0.20660   0.21735   0.00000  Uiso   1.00
Zn439  Zn    0.00000   0.29341   0.78265   0.00000  Uiso   1.00
Zn440  Zn    0.29340   0.00000   0.21735   0.00000  Uiso   1.00
Zn441  Zn    0.20659   0.00000   0.78265   0.00000  Uiso   1.00
Zn442  Zn    0.00000   0.29341   0.21735   0.00000  Uiso   1.00
Zn443  Zn   -0.00000   0.20660   0.78265   0.00000  Uiso   1.00
Zn444  Zn    0.45659   0.25000   0.71735   0.00000  Uiso   1.00
C445   C     0.52060   0.27683   0.41825   0.00000  Uiso   1.00
C446   C     0.72940   0.47317   0.08175   0.00000  Uiso   1.00
C447   C     0.72644   0.47613   0.54105   0.00000  Uiso   1.00
C448   C     0.52386   0.27356   0.45895   0.00000  Uiso   1.00
C449   C     0.97614   0.22644   0.54105   0.00000  Uiso   1.00
C450   C     0.72644   0.47612   0.45895   0.00000  Uiso   1.00
C451   C     0.77356   0.02386   0.54105   0.00000  Uiso   1.00
C452   C     0.72613   0.47644   0.95895   0.00000  Uiso   1.00
C453   C     0.77386   0.02356   0.04105   0.00000  Uiso   1.00
C454   C     0.52356   0.27387   0.95895   0.00000  Uiso   1.00
C455   C     0.97644   0.22613   0.04105   0.00000  Uiso   1.00
C456   C     0.77386   0.02356   0.95895   0.00000  Uiso   1.00
C457   C     0.97317   0.22940   0.91825   0.00000  Uiso   1.00
C458   C     0.72614   0.47644   0.04105   0.00000  Uiso   1.00
C459   C     0.97644   0.22613   0.95895   0.00000  Uiso   1.00
C460   C     0.52356   0.27386   0.04105   0.00000  Uiso   1.00
C461   C     0.59806   0.34806   0.25000   0.00000  Uiso   1.00
C462   C     0.90194   0.15194   0.75000   0.00000  Uiso   1.00
C463   C     0.65193   0.09807   0.25000   0.00000  Uiso   1.00
C464   C     0.84807   0.40193   0.75000   0.00000  Uiso   1.00
C465   C     0.90194   0.15194   0.25000   0.00000  Uiso   1.00
C466   C     0.59806   0.34806   0.75000   0.00000  Uiso   1.00
C467   C     0.84807   0.40193   0.25000   0.00000  Uiso   1.00
C468   C     0.52683   0.27060   0.08175   0.00000  Uiso   1.00
C469   C     0.65193   0.09807   0.75000   0.00000  Uiso   1.00
C470   C     0.59807   0.15193   0.75000   0.00000  Uiso   1.00
C471   C     0.90193   0.34807   0.25000   0.00000  Uiso   1.00
C472   C     0.65194   0.40194   0.75000   0.00000  Uiso   1.00
C473   C     0.84806   0.09806   0.25000   0.00000  Uiso   1.00
C474   C     0.90193   0.34807   0.75000   0.00000  Uiso   1.00
C475   C     0.59807   0.15193   0.25000   0.00000  Uiso   1.00
C476   C     0.84806   0.09806   0.75000   0.00000  Uiso   1.00
C477   C     0.65194   0.40194   0.25000   0.00000  Uiso   1.00
C478   C     0.50000   0.25000   0.47940   0.00000  Uiso   1.00
C479   C     0.72940   0.47317   0.91825   0.00000  Uiso   1.00
C480   C     0.50000   0.25000   0.52060   0.00000  Uiso   1.00
C481   C     0.75001   0.49999   0.47940   0.00000  Uiso   1.00
C482   C     0.75001   0.49999   0.52059   0.00000  Uiso   1.00
C483   C     0.75000  -0.00000   0.97940   0.00000  Uiso   1.00
C484   C     0.75000  -0.00000   0.02060   0.00000  Uiso   1.00
C485   C     0.50000   0.25000   0.97940   0.00000  Uiso   1.00
C486   C     0.50000   0.25000   0.02060   0.00000  Uiso   1.00
C487   C     0.60462   0.45018   0.25602   0.00000  Uiso   1.00
C488   C     0.89537   0.04983   0.74397   0.00000  Uiso   1.00
C489   C     0.59968   0.15414   0.17782   0.00000  Uiso   1.00
C490   C     0.77060   0.02683   0.08175   0.00000  Uiso   1.00
C491   C     0.90032   0.34587   0.82218   0.00000  Uiso   1.00
C492   C     0.89537   0.04983   0.25606   0.00000  Uiso   1.00
C493   C     0.60462   0.45018   0.74399   0.00000  Uiso   1.00
C494   C     0.90031   0.34586   0.17782   0.00000  Uiso   1.00
C495   C     0.59968   0.15413   0.82218   0.00000  Uiso   1.00
C496   C     0.65413   0.09968   0.82218   0.00000  Uiso   1.00
C497   C     0.84585   0.40031   0.17782   0.00000  Uiso   1.00
C498   C     0.54982   0.39538   0.74399   0.00000  Uiso   1.00
C499   C     0.95017   0.10463   0.25604   0.00000  Uiso   1.00
C500   C     0.84586   0.40032   0.82218   0.00000  Uiso   1.00
C501   C     0.52683   0.27060   0.91825   0.00000  Uiso   1.00
C502   C     0.65413   0.09968   0.17782   0.00000  Uiso   1.00
C503   C     0.95017   0.10463   0.74398   0.00000  Uiso   1.00
C504   C     0.54982   0.39538   0.25602   0.00000  Uiso   1.00
C505   C     0.85462   0.20018   0.75602   0.00000  Uiso   1.00
C506   C     0.64538   0.29983   0.24398   0.00000  Uiso   1.00
C507   C     0.84969   0.40414   0.67782   0.00000  Uiso   1.00
C508   C     0.65032   0.09587   0.32218   0.00000  Uiso   1.00
C509   C     0.64538   0.29982   0.75601   0.00000  Uiso   1.00
C510   C     0.85463   0.20017   0.24397   0.00000  Uiso   1.00
C511   C     0.65032   0.09587   0.67782   0.00000  Uiso   1.00
C512   C     0.97317   0.22940   0.08175   0.00000  Uiso   1.00
C513   C     0.84970   0.40416   0.32218   0.00000  Uiso   1.00
C514   C     0.90415   0.34970   0.32218   0.00000  Uiso   1.00
C515   C     0.59587   0.15032   0.67782   0.00000  Uiso   1.00
C516   C     0.79983   0.14537   0.24397   0.00000  Uiso   1.00
C517   C     0.70017   0.35462   0.75601   0.00000  Uiso   1.00
C518   C     0.59586   0.15032   0.32218   0.00000  Uiso   1.00
C519   C     0.90413   0.34968   0.67782   0.00000  Uiso   1.00
C520   C     0.70017   0.35463   0.24398   0.00000  Uiso   1.00
C521   C     0.79982   0.14538   0.75602   0.00000  Uiso   1.00
C522   C     0.53681   0.30963   0.39632   0.00000  Uiso   1.00
C523   C     0.50000   0.25000   0.39812   0.00000  Uiso   1.00
C524   C     0.50698   0.33452   0.37967   0.00000  Uiso   1.00
C525   C     0.52351   0.36629   0.35701   0.00000  Uiso   1.00
C526   C     0.96319   0.19037   0.60367   0.00000  Uiso   1.00
C527   C     0.99303   0.16548   0.62032   0.00000  Uiso   1.00
C528   C     0.97650   0.13371   0.64300   0.00000  Uiso   1.00
C529   C     0.69037   0.46318   0.39632   0.00000  Uiso   1.00
C530   C     0.66547   0.49303   0.37969   0.00000  Uiso   1.00
C531   C     0.63373   0.47650   0.35697   0.00000  Uiso   1.00
C532   C     0.80963   0.03681   0.60367   0.00000  Uiso   1.00
C533   C     0.83452   0.00698   0.62034   0.00000  Uiso   1.00
C534   C     0.50000   0.25000   0.60187   0.00000  Uiso   1.00
C535   C     0.86632   0.02352   0.64295   0.00000  Uiso   1.00
C536   C     0.96319   0.19037   0.39633   0.00000  Uiso   1.00
C537   C     0.99303   0.16548   0.37967   0.00000  Uiso   1.00
C538   C     0.97649   0.13370   0.35702   0.00000  Uiso   1.00
C539   C     0.53681   0.30963   0.60367   0.00000  Uiso   1.00
C540   C     0.50697   0.33453   0.62032   0.00000  Uiso   1.00
C541   C     0.52350   0.36629   0.64300   0.00000  Uiso   1.00
C542   C     0.80965   0.03679   0.39632   0.00000  Uiso   1.00
C543   C     0.83451   0.00695   0.37960   0.00000  Uiso   1.00
C544   C     0.86648   0.02351   0.35726   0.00000  Uiso   1.00
C545   C     0.75000   0.49999   0.39812   0.00000  Uiso   1.00
C546   C     0.69037   0.46318   0.60367   0.00000  Uiso   1.00
C547   C     0.66547   0.49302   0.62030   0.00000  Uiso   1.00
C548   C     0.63375   0.47649   0.64306   0.00000  Uiso   1.00
C549   C     0.78681   0.05964   0.89632   0.00000  Uiso   1.00
C550   C     0.75697   0.08452   0.87967   0.00000  Uiso   1.00
C551   C     0.77350   0.11629   0.85701   0.00000  Uiso   1.00
C552   C     0.71318   0.44037   0.10368   0.00000  Uiso   1.00
C553   C     0.74302   0.41548   0.12033   0.00000  Uiso   1.00
C554   C     0.72649   0.38371   0.14299   0.00000  Uiso   1.00
C555   C     0.94037   0.21318   0.89633   0.00000  Uiso   1.00
C556   C     0.97940   0.22317   0.58175   0.00000  Uiso   1.00
C557   C     0.75000  -0.00000   0.60187   0.00000  Uiso   1.00
C558   C     0.91547   0.24302   0.87969   0.00000  Uiso   1.00
C559   C     0.88374   0.22648   0.85696   0.00000  Uiso   1.00
C560   C     0.55963   0.28681   0.10368   0.00000  Uiso   1.00
C561   C     0.58452   0.25698   0.12033   0.00000  Uiso   1.00
C562   C     0.61629   0.27351   0.14300   0.00000  Uiso   1.00
C563   C     0.71318   0.44037   0.89632   0.00000  Uiso   1.00
C564   C     0.74302   0.41547   0.87968   0.00000  Uiso   1.00
C565   C     0.72649   0.38372   0.85699   0.00000  Uiso   1.00
C566   C     0.78681   0.05963   0.10367   0.00000  Uiso   1.00
C567   C     0.75698   0.08453   0.12032   0.00000  Uiso   1.00
C568   C     0.75000   0.00000   0.89812   0.00000  Uiso   1.00
C569   C     0.77351   0.11628   0.14300   0.00000  Uiso   1.00
C570   C     0.55963   0.28682   0.89632   0.00000  Uiso   1.00
C571   C     0.58453   0.25698   0.87969   0.00000  Uiso   1.00
C572   C     0.61625   0.27352   0.85694   0.00000  Uiso   1.00
C573   C     0.94037   0.21318   0.10367   0.00000  Uiso   1.00
C574   C     0.91547   0.24302   0.12032   0.00000  Uiso   1.00
C575   C     0.88372   0.22648   0.14301   0.00000  Uiso   1.00
C576   C     0.75000  -0.00000   0.10188   0.00000  Uiso   1.00
C577   C     0.50000   0.25000   0.89813   0.00000  Uiso   1.00
C578   C     0.50000   0.25000   0.10188   0.00000  Uiso   1.00
C579   C     0.94942   0.20729   0.47995   0.00000  Uiso   1.00
C580   C     0.55058   0.29271   0.52005   0.00000  Uiso   1.00
C581   C     0.79271   0.05057   0.47994   0.00000  Uiso   1.00
C582   C     0.70729   0.44941   0.52005   0.00000  Uiso   1.00
C583   C     0.55058   0.29271   0.47994   0.00000  Uiso   1.00
C584   C     0.72317   0.47939   0.41825   0.00000  Uiso   1.00
C585   C     0.94942   0.20729   0.52005   0.00000  Uiso   1.00
C586   C     0.70729   0.44941   0.47994   0.00000  Uiso   1.00
C587   C     0.79271   0.05057   0.52005   0.00000  Uiso   1.00
C588   C     0.69942   0.45729   0.97995   0.00000  Uiso   1.00
C589   C     0.80058   0.04271   0.02005   0.00000  Uiso   1.00
C590   C     0.54271   0.30058   0.97995   0.00000  Uiso   1.00
C591   C     0.95730   0.19942   0.02005   0.00000  Uiso   1.00
C592   C     0.80058   0.04271   0.97994   0.00000  Uiso   1.00
C593   C     0.69942   0.45729   0.02006   0.00000  Uiso   1.00
C594   C     0.95730   0.19942   0.97995   0.00000  Uiso   1.00
C595   C     0.77683   0.02059   0.58175   0.00000  Uiso   1.00
C596   C     0.54271   0.30058   0.02006   0.00000  Uiso   1.00
C597   C     0.74999  -0.00000   0.35577   0.00000  Uiso   1.00
C598   C     0.75000  -0.00000   0.64423   0.00000  Uiso   1.00
C599   C     0.50000   0.25000   0.35577   0.00000  Uiso   1.00
C600   C     0.50000   0.25000   0.64423   0.00000  Uiso   1.00
C601   C     0.50000   0.25000   0.85577   0.00000  Uiso   1.00
C602   C     0.50000   0.25000   0.14423   0.00000  Uiso   1.00
C603   C     0.75000  -0.00000   0.85577   0.00000  Uiso   1.00
C604   C     0.75000   0.00000   0.14423   0.00000  Uiso   1.00
C605   C     0.68003   0.06997   0.25000   0.00000  Uiso   1.00
C606   C     0.97940   0.22317   0.41825   0.00000  Uiso   1.00
C607   C     0.81997   0.43003   0.75000   0.00000  Uiso   1.00
C608   C     0.93005   0.18005   0.25000   0.00000  Uiso   1.00
C609   C     0.56995   0.31995   0.75000   0.00000  Uiso   1.00
C610   C     0.81997   0.43003   0.25000   0.00000  Uiso   1.00
C611   C     0.68003   0.06997   0.75000   0.00000  Uiso   1.00
C612   C     0.56995   0.31995   0.25000   0.00000  Uiso   1.00
C613   C     0.93005   0.18005   0.75000   0.00000  Uiso   1.00
C614   C     0.68005   0.43005   0.75000   0.00000  Uiso   1.00
C615   C     0.81995   0.06995   0.25000   0.00000  Uiso   1.00
C616   C     0.93003   0.31997   0.75000   0.00000  Uiso   1.00
C617   C     0.52060   0.27683   0.58175   0.00000  Uiso   1.00
C618   C     0.56997   0.18003   0.25000   0.00000  Uiso   1.00
C619   C     0.81995   0.06995   0.75000   0.00000  Uiso   1.00
C620   C     0.68005   0.43005   0.25000   0.00000  Uiso   1.00
C621   C     0.56997   0.18003   0.75000   0.00000  Uiso   1.00
C622   C     0.93003   0.31997   0.25000   0.00000  Uiso   1.00
C623   C     0.61493   0.41208   0.25234   0.00000  Uiso   1.00
C624   C     0.88507   0.08792   0.74766   0.00000  Uiso   1.00
C625   C     0.61207   0.13902   0.21446   0.00000  Uiso   1.00
C626   C     0.88793   0.36098   0.78554   0.00000  Uiso   1.00
C627   C     0.88507   0.08792   0.25235   0.00000  Uiso   1.00
C628   C     0.77684   0.02058   0.41825   0.00000  Uiso   1.00
C629   C     0.61493   0.41208   0.74767   0.00000  Uiso   1.00
C630   C     0.88793   0.36098   0.21446   0.00000  Uiso   1.00
C631   C     0.61207   0.13901   0.78554   0.00000  Uiso   1.00
C632   C     0.63901   0.11207   0.78554   0.00000  Uiso   1.00
C633   C     0.86098   0.38793   0.21446   0.00000  Uiso   1.00
C634   C     0.58792   0.38507   0.74767   0.00000  Uiso   1.00
C635   C     0.91208   0.11493   0.25235   0.00000  Uiso   1.00
C636   C     0.86098   0.38793   0.78554   0.00000  Uiso   1.00
C637   C     0.63902   0.11207   0.21446   0.00000  Uiso   1.00
C638   C     0.91208   0.11493   0.74766   0.00000  Uiso   1.00
C639   C     0.72317   0.47940   0.58175   0.00000  Uiso   1.00
C640   C     0.58792   0.38507   0.25234   0.00000  Uiso   1.00
C641   C     0.86493   0.16208   0.75234   0.00000  Uiso   1.00
C642   C     0.63507   0.33792   0.24766   0.00000  Uiso   1.00
C643   C     0.86207   0.38902   0.71446   0.00000  Uiso   1.00
C644   C     0.63793   0.11098   0.28554   0.00000  Uiso   1.00
C645   C     0.63507   0.33792   0.75233   0.00000  Uiso   1.00
C646   C     0.86493   0.16208   0.24766   0.00000  Uiso   1.00
C647   C     0.63793   0.11099   0.71446   0.00000  Uiso   1.00
C648   C     0.86208   0.38903   0.28554   0.00000  Uiso   1.00
C649   C     0.88902   0.36208   0.28554   0.00000  Uiso   1.00
C650   C     0.77060   0.02683   0.91825   0.00000  Uiso   1.00
C651   C     0.61099   0.13794   0.71446   0.00000  Uiso   1.00
C652   C     0.83792   0.13507   0.24766   0.00000  Uiso   1.00
C653   C     0.66208   0.36493   0.75233   0.00000  Uiso   1.00
C654   C     0.61098   0.13793   0.28554   0.00000  Uiso   1.00
C655   C     0.88902   0.36207   0.71446   0.00000  Uiso   1.00
C656   C     0.66208   0.36493   0.24766   0.00000  Uiso   1.00
C657   C     0.83792   0.13507   0.75234   0.00000  Uiso   1.00
C658   C     0.97614   0.22644   0.45895   0.00000  Uiso   1.00
C659   C     0.52386   0.27356   0.54105   0.00000  Uiso   1.00
C660   C     0.77357   0.02385   0.45894   0.00000  Uiso   1.00
H661   H     0.92701   0.19329   0.46614   0.00000  Uiso   1.00
H662   H     0.82299   0.05671   0.03386   0.00000  Uiso   1.00
H663   H     0.55024   0.30545   0.12690   0.00000  Uiso   1.00
H664   H     0.70907   0.36668   0.87618   0.00000  Uiso   1.00
H665   H     0.70981   0.39414   0.83251   0.00000  Uiso   1.00
H666   H     0.74865   0.36644   0.84509   0.00000  Uiso   1.00
H667   H     0.76134   0.43066   0.85988   0.00000  Uiso   1.00
H668   H     0.75981   0.40448   0.90381   0.00000  Uiso   1.00
H669   H     0.69625   0.42250   0.91470   0.00000  Uiso   1.00
H670   H     0.69455   0.44976   0.87310   0.00000  Uiso   1.00
H671   H     0.79018   0.10587   0.16749   0.00000  Uiso   1.00
H672   H     0.79093   0.13332   0.12381   0.00000  Uiso   1.00
H673   H     0.55671   0.32299   0.96614   0.00000  Uiso   1.00
H674   H     0.75135   0.13356   0.15490   0.00000  Uiso   1.00
H675   H     0.74019   0.09552   0.09618   0.00000  Uiso   1.00
H676   H     0.73866   0.06934   0.14012   0.00000  Uiso   1.00
H677   H     0.80544   0.05024   0.12690   0.00000  Uiso   1.00
H678   H     0.80375   0.07750   0.08529   0.00000  Uiso   1.00
H679   H     0.60579   0.29014   0.83243   0.00000  Uiso   1.00
H680   H     0.63328   0.29100   0.87608   0.00000  Uiso   1.00
H681   H     0.63354   0.25136   0.84507   0.00000  Uiso   1.00
H682   H     0.59557   0.24023   0.90384   0.00000  Uiso   1.00
H683   H     0.56934   0.23863   0.85994   0.00000  Uiso   1.00
H684   H     0.94330   0.17701   0.03386   0.00000  Uiso   1.00
H685   H     0.55024   0.30544   0.87310   0.00000  Uiso   1.00
H686   H     0.57750   0.30376   0.91470   0.00000  Uiso   1.00
H687   H     0.86669   0.20905   0.12382   0.00000  Uiso   1.00
H688   H     0.89414   0.20981   0.16750   0.00000  Uiso   1.00
H689   H     0.86644   0.24864   0.15491   0.00000  Uiso   1.00
H690   H     0.93066   0.26134   0.14012   0.00000  Uiso   1.00
H691   H     0.90447   0.25980   0.09618   0.00000  Uiso   1.00
H692   H     0.92250   0.19625   0.08530   0.00000  Uiso   1.00
H693   H     0.94976   0.19455   0.12690   0.00000  Uiso   1.00
H694   H     0.82299   0.05671   0.96614   0.00000  Uiso   1.00
H695   H     0.67701   0.44329   0.03386   0.00000  Uiso   1.00
H696   H     0.94330   0.17701   0.96614   0.00000  Uiso   1.00
H697   H     0.55671   0.32299   0.03386   0.00000  Uiso   1.00
H698   H     0.54092   0.38333   0.37622   0.00000  Uiso   1.00
H699   H     0.54021   0.35589   0.33253   0.00000  Uiso   1.00
H700   H     0.50135   0.38357   0.34510   0.00000  Uiso   1.00
H701   H     0.57299   0.30671   0.53386   0.00000  Uiso   1.00
H702   H     0.98867   0.31934   0.35986   0.00000  Uiso   1.00
H703   H     0.99017   0.34551   0.40380   0.00000  Uiso   1.00
H704   H     0.55374   0.32751   0.41470   0.00000  Uiso   1.00
H705   H     0.55545   0.30024   0.37310   0.00000  Uiso   1.00
H706   H     0.95982   0.14412   0.66748   0.00000  Uiso   1.00
H707   H     0.95908   0.11667   0.62380   0.00000  Uiso   1.00
H708   H     0.99866   0.11643   0.65490   0.00000  Uiso   1.00
H709   H     0.50983   0.15448   0.59619   0.00000  Uiso   1.00
H710   H     0.51134   0.18066   0.64013   0.00000  Uiso   1.00
H711   H     0.94456   0.19975   0.62690   0.00000  Uiso   1.00
H712   H     0.80671   0.07298   0.46613   0.00000  Uiso   1.00
H713   H     0.94626   0.17249   0.58530   0.00000  Uiso   1.00
H714   H     0.64417   0.45986   0.33247   0.00000  Uiso   1.00
H715   H     0.61670   0.45904   0.37613   0.00000  Uiso   1.00
H716   H     0.61644   0.49866   0.34510   0.00000  Uiso   1.00
H717   H     0.65445   0.00979   0.40384   0.00000  Uiso   1.00
H718   H     0.68066   0.01137   0.35993   0.00000  Uiso   1.00
H719   H     0.69975   0.44456   0.37309   0.00000  Uiso   1.00
H720   H     0.67250   0.44624   0.41470   0.00000  Uiso   1.00
H721   H     0.88336   0.04087   0.62370   0.00000  Uiso   1.00
H722   H     0.85595   0.04026   0.66740   0.00000  Uiso   1.00
H723   H     0.69329   0.42701   0.53386   0.00000  Uiso   1.00
H724   H     0.88358   0.00136   0.65489   0.00000  Uiso   1.00
H725   H     0.81934   0.48871   0.64020   0.00000  Uiso   1.00
H726   H     0.84547   0.49014   0.59622   0.00000  Uiso   1.00
H727   H     0.82751   0.05373   0.58529   0.00000  Uiso   1.00
H728   H     0.80025   0.05545   0.62688   0.00000  Uiso   1.00
H729   H     0.95910   0.11666   0.37624   0.00000  Uiso   1.00
H730   H     0.95978   0.14409   0.33255   0.00000  Uiso   1.00
H731   H     0.99865   0.11643   0.34511   0.00000  Uiso   1.00
H732   H     0.51132   0.18066   0.35985   0.00000  Uiso   1.00
H733   H     0.50984   0.15450   0.40381   0.00000  Uiso   1.00
H734   H     0.57299   0.30671   0.46614   0.00000  Uiso   1.00
H735   H     0.94626   0.17249   0.41471   0.00000  Uiso   1.00
H736   H     0.94455   0.19975   0.37310   0.00000  Uiso   1.00
H737   H     0.54017   0.35587   0.66749   0.00000  Uiso   1.00
H738   H     0.54093   0.38332   0.62381   0.00000  Uiso   1.00
H739   H     0.50134   0.38357   0.65489   0.00000  Uiso   1.00
H740   H     0.99018   0.34552   0.59618   0.00000  Uiso   1.00
H741   H     0.98866   0.31934   0.64012   0.00000  Uiso   1.00
H742   H     0.55544   0.30025   0.62690   0.00000  Uiso   1.00
H743   H     0.55374   0.32751   0.58530   0.00000  Uiso   1.00
H744   H     0.85629   0.04053   0.33291   0.00000  Uiso   1.00
H745   H     0.92701   0.19329   0.53386   0.00000  Uiso   1.00
H746   H     0.88356   0.04062   0.37676   0.00000  Uiso   1.00
H747   H     0.88366   0.00135   0.34519   0.00000  Uiso   1.00
H748   H     0.84529   0.48993   0.40368   0.00000  Uiso   1.00
H749   H     0.81935   0.48886   0.35954   0.00000  Uiso   1.00
H750   H     0.80027   0.05546   0.37313   0.00000  Uiso   1.00
H751   H     0.82755   0.05366   0.41474   0.00000  Uiso   1.00
H752   H     0.61672   0.45900   0.62392   0.00000  Uiso   1.00
H753   H     0.64422   0.45988   0.66757   0.00000  Uiso   1.00
H754   H     0.61645   0.49865   0.65492   0.00000  Uiso   1.00
H755   H     0.68066   0.01138   0.64005   0.00000  Uiso   1.00
H756   H     0.69329   0.42701   0.46614   0.00000  Uiso   1.00
H757   H     0.65443   0.00977   0.59615   0.00000  Uiso   1.00
H758   H     0.67250   0.44624   0.58530   0.00000  Uiso   1.00
H759   H     0.69976   0.44456   0.62691   0.00000  Uiso   1.00
H760   H     0.79091   0.13333   0.87622   0.00000  Uiso   1.00
H761   H     0.79020   0.10589   0.83253   0.00000  Uiso   1.00
H762   H     0.75134   0.13357   0.84510   0.00000  Uiso   1.00
H763   H     0.73867   0.06934   0.85986   0.00000  Uiso   1.00
H764   H     0.74017   0.09551   0.90381   0.00000  Uiso   1.00
H765   H     0.80374   0.07751   0.91470   0.00000  Uiso   1.00
H766   H     0.80544   0.05025   0.87310   0.00000  Uiso   1.00
H767   H     0.80671   0.07298   0.53385   0.00000  Uiso   1.00
H768   H     0.70980   0.39411   0.16747   0.00000  Uiso   1.00
H769   H     0.70907   0.36667   0.12379   0.00000  Uiso   1.00
H770   H     0.74865   0.36643   0.15490   0.00000  Uiso   1.00
H771   H     0.75982   0.40449   0.09619   0.00000  Uiso   1.00
H772   H     0.76133   0.43066   0.14014   0.00000  Uiso   1.00
H773   H     0.69455   0.44976   0.12690   0.00000  Uiso   1.00
H774   H     0.69626   0.42250   0.08530   0.00000  Uiso   1.00
H775   H     0.89419   0.20984   0.83246   0.00000  Uiso   1.00
H776   H     0.86671   0.20902   0.87612   0.00000  Uiso   1.00
H777   H     0.86645   0.24864   0.84508   0.00000  Uiso   1.00
H778   H     0.67701   0.44329   0.96614   0.00000  Uiso   1.00
H779   H     0.90445   0.25978   0.90383   0.00000  Uiso   1.00
H780   H     0.93066   0.26136   0.85992   0.00000  Uiso   1.00
H781   H     0.94976   0.19455   0.87310   0.00000  Uiso   1.00
H782   H     0.92250   0.19624   0.91470   0.00000  Uiso   1.00
H783   H     0.63333   0.29092   0.12379   0.00000  Uiso   1.00
H784   H     0.60588   0.29020   0.16747   0.00000  Uiso   1.00
H785   H     0.63357   0.25135   0.15490   0.00000  Uiso   1.00
H786   H     0.56934   0.23867   0.14014   0.00000  Uiso   1.00
H787   H     0.59551   0.24018   0.09619   0.00000  Uiso   1.00
H788   H     0.57751   0.30374   0.08530   0.00000  Uiso   1.00
N789   N     0.59642   0.48051   0.25895   0.00000  Uiso   1.00
N790   N     0.83395   0.41013   0.14857   0.00000  Uiso   1.00
N791   N     0.51949   0.40358   0.74106   0.00000  Uiso   1.00
N792   N     0.98051   0.09642   0.25897   0.00000  Uiso   1.00
N793   N     0.83396   0.41015   0.85143   0.00000  Uiso   1.00
N794   N     0.66604   0.08985   0.14857   0.00000  Uiso   1.00
N795   N     0.98051   0.09642   0.74105   0.00000  Uiso   1.00
N796   N     0.51949   0.40358   0.25895   0.00000  Uiso   1.00
N797   N     0.84642   0.23051   0.75895   0.00000  Uiso   1.00
N798   N     0.65358   0.26949   0.24105   0.00000  Uiso   1.00
N799   N     0.83986   0.41605   0.64857   0.00000  Uiso   1.00
N800   N     0.90358   0.01949   0.74104   0.00000  Uiso   1.00
N801   N     0.66015   0.08397   0.35143   0.00000  Uiso   1.00
N802   N     0.65358   0.26949   0.75893   0.00000  Uiso   1.00
N803   N     0.84642   0.23051   0.24104   0.00000  Uiso   1.00
N804   N     0.66016   0.08397   0.64856   0.00000  Uiso   1.00
N805   N     0.83988   0.41608   0.35143   0.00000  Uiso   1.00
N806   N     0.91605   0.33987   0.35143   0.00000  Uiso   1.00
N807   N     0.58397   0.16015   0.64857   0.00000  Uiso   1.00
N808   N     0.76949   0.15358   0.24103   0.00000  Uiso   1.00
N809   N     0.73051   0.34642   0.75894   0.00000  Uiso   1.00
N810   N     0.58396   0.16015   0.35143   0.00000  Uiso   1.00
N811   N     0.58985   0.16604   0.14857   0.00000  Uiso   1.00
N812   N     0.91604   0.33985   0.64857   0.00000  Uiso   1.00
N813   N     0.73051   0.34642   0.24105   0.00000  Uiso   1.00
N814   N     0.76949   0.15358   0.75895   0.00000  Uiso   1.00
N815   N     0.91015   0.33396   0.85143   0.00000  Uiso   1.00
N816   N     0.90357   0.01949   0.25901   0.00000  Uiso   1.00
N817   N     0.59642   0.48051   0.74107   0.00000  Uiso   1.00
N818   N     0.91013   0.33395   0.14857   0.00000  Uiso   1.00
N819   N     0.58985   0.16603   0.85143   0.00000  Uiso   1.00
N820   N     0.66603   0.08985   0.85143   0.00000  Uiso   1.00
O821   O     0.75000   0.00000   0.25000   0.00000  Uiso   1.00
O822   O     0.75000   0.46964   0.66245   0.00000  Uiso   1.00
O823   O     0.96963   0.25000   0.33755   0.00000  Uiso   1.00
O824   O     0.53036   0.25000   0.66245   0.00000  Uiso   1.00
O825   O     0.50000   0.21964   0.83755   0.00000  Uiso   1.00
O826   O     0.50000   0.28037   0.16245   0.00000  Uiso   1.00
O827   O     0.78036   0.00000   0.83755   0.00000  Uiso   1.00
O828   O     0.71963   0.00000   0.16245   0.00000  Uiso   1.00
O829   O     0.50000   0.28037   0.83755   0.00000  Uiso   1.00
O830   O     0.50000   0.21964   0.16245   0.00000  Uiso   1.00
O831   O     0.71963   0.00000   0.83755   0.00000  Uiso   1.00
O832   O     0.75000   0.00000   0.75000   0.00000  Uiso   1.00
O833   O     0.78036   0.00000   0.16245   0.00000  Uiso   1.00
O834   O     0.70724   0.07308   0.27302   0.00000  Uiso   1.00
O835   O     0.79275   0.42693   0.72698   0.00000  Uiso   1.00
O836   O     0.92692   0.20725   0.27302   0.00000  Uiso   1.00
O837   O     0.57307   0.29276   0.72698   0.00000  Uiso   1.00
O838   O     0.79275   0.42693   0.27302   0.00000  Uiso   1.00
O839   O     0.70724   0.07308   0.72698   0.00000  Uiso   1.00
O840   O     0.57307   0.29276   0.27302   0.00000  Uiso   1.00
O841   O     0.92692   0.20725   0.72698   0.00000  Uiso   1.00
O842   O     0.70724   0.42693   0.72698   0.00000  Uiso   1.00
O843   O     0.50000   0.25000   0.25000   0.00000  Uiso   1.00
O844   O     0.79275   0.07308   0.27302   0.00000  Uiso   1.00
O845   O     0.92692   0.29276   0.72698   0.00000  Uiso   1.00
O846   O     0.57307   0.20725   0.27302   0.00000  Uiso   1.00
O847   O     0.79275   0.07308   0.72698   0.00000  Uiso   1.00
O848   O     0.70724   0.42693   0.27302   0.00000  Uiso   1.00
O849   O     0.57307   0.20725   0.72698   0.00000  Uiso   1.00
O850   O     0.92692   0.29276   0.27302   0.00000  Uiso   1.00
O851   O     0.95724   0.32308   0.77302   0.00000  Uiso   1.00
O852   O     0.54275   0.17693   0.22698   0.00000  Uiso   1.00
O853   O     0.67692   0.45725   0.77302   0.00000  Uiso   1.00
O854   O     0.50000   0.25000   0.75000   0.00000  Uiso   1.00
O855   O     0.82307   0.04276   0.22698   0.00000  Uiso   1.00
O856   O     0.54275   0.17693   0.77302   0.00000  Uiso   1.00
O857   O     0.95724   0.32308   0.22698   0.00000  Uiso   1.00
O858   O     0.82307   0.04276   0.77302   0.00000  Uiso   1.00
O859   O     0.67692   0.45725   0.22698   0.00000  Uiso   1.00
O860   O     0.95724   0.17693   0.22698   0.00000  Uiso   1.00
O861   O     0.54275   0.32308   0.77302   0.00000  Uiso   1.00
O862   O     0.67692   0.04276   0.22698   0.00000  Uiso   1.00
O863   O     0.82307   0.45725   0.77302   0.00000  Uiso   1.00
O864   O     0.54275   0.32308   0.22698   0.00000  Uiso   1.00
O865   O     0.75000   0.46964   0.33755   0.00000  Uiso   1.00
O866   O     0.95724   0.17693   0.77302   0.00000  Uiso   1.00
O867   O     0.82307   0.45725   0.22698   0.00000  Uiso   1.00
O868   O     0.67692   0.04276   0.77302   0.00000  Uiso   1.00
O869   O     0.75000   0.03037   0.66245   0.00000  Uiso   1.00
O870   O     0.53036   0.25000   0.33755   0.00000  Uiso   1.00
O871   O     0.96963   0.25000   0.66245   0.00000  Uiso   1.00
O872   O     0.75000   0.03037   0.33755   0.00000  Uiso   1.00
Zn873  Zn    0.70659   0.00000   0.21735   0.00000  Uiso   1.00
Zn874  Zn    0.54340   0.25000   0.28265   0.00000  Uiso   1.00
Zn875  Zn    0.75000   0.45660   0.71735   0.00000  Uiso   1.00
Zn876  Zn    0.75000   0.04341   0.28265   0.00000  Uiso   1.00
Zn877  Zn    0.54340   0.25000   0.71735   0.00000  Uiso   1.00
Zn878  Zn    0.95659   0.25000   0.28265   0.00000  Uiso   1.00
Zn879  Zn    0.75000   0.04341   0.71735   0.00000  Uiso   1.00
Zn880  Zn    0.75000   0.45660   0.28265   0.00000  Uiso   1.00
Zn881  Zn    0.79340   0.00000   0.78265   0.00000  Uiso   1.00
Zn882  Zn    0.50000   0.20660   0.21735   0.00000  Uiso   1.00
Zn883  Zn    0.50000   0.29341   0.78265   0.00000  Uiso   1.00
Zn884  Zn    0.79340   0.00000   0.21735   0.00000  Uiso   1.00
Zn885  Zn    0.70659   0.00000   0.78265   0.00000  Uiso   1.00
Zn886  Zn    0.50000   0.29341   0.21735   0.00000  Uiso   1.00
Zn887  Zn    0.50000   0.20660   0.78265   0.00000  Uiso   1.00
Zn888  Zn    0.95659   0.25000   0.71735   0.00000  Uiso   1.00
C889   C     0.02060   0.77683   0.41825   0.00000  Uiso   1.00
C890   C     0.22940   0.97317   0.08175   0.00000  Uiso   1.00
C891   C     0.22644   0.97613   0.54105   0.00000  Uiso   1.00
C892   C     0.02386   0.77356   0.45895   0.00000  Uiso   1.00
C893   C     0.47614   0.72644   0.54105   0.00000  Uiso   1.00
C894   C     0.22644   0.97612   0.45895   0.00000  Uiso   1.00
C895   C     0.27356   0.52386   0.54105   0.00000  Uiso   1.00
C896   C     0.22613   0.97644   0.95895   0.00000  Uiso   1.00
C897   C     0.27386   0.52356   0.04105   0.00000  Uiso   1.00
C898   C     0.02356   0.77387   0.95895   0.00000  Uiso   1.00
C899   C     0.47644   0.72613   0.04105   0.00000  Uiso   1.00
C900   C     0.27386   0.52356   0.95895   0.00000  Uiso   1.00
C901   C     0.47317   0.72940   0.91825   0.00000  Uiso   1.00
C902   C     0.22614   0.97644   0.04105   0.00000  Uiso   1.00
C903   C     0.47644   0.72613   0.95895   0.00000  Uiso   1.00
C904   C     0.02356   0.77386   0.04105   0.00000  Uiso   1.00
C905   C     0.09806   0.84806   0.25000   0.00000  Uiso   1.00
C906   C     0.40194   0.65194   0.75000   0.00000  Uiso   1.00
C907   C     0.15193   0.59807   0.25000   0.00000  Uiso   1.00
C908   C     0.34807   0.90193   0.75000   0.00000  Uiso   1.00
C909   C     0.40194   0.65194   0.25000   0.00000  Uiso   1.00
C910   C     0.09806   0.84806   0.75000   0.00000  Uiso   1.00
C911   C     0.34807   0.90193   0.25000   0.00000  Uiso   1.00
C912   C     0.02683   0.77060   0.08175   0.00000  Uiso   1.00
C913   C     0.15193   0.59807   0.75000   0.00000  Uiso   1.00
C914   C     0.09807   0.65193   0.75000   0.00000  Uiso   1.00
C915   C     0.40193   0.84807   0.25000   0.00000  Uiso   1.00
C916   C     0.15194   0.90194   0.75000   0.00000  Uiso   1.00
C917   C     0.34806   0.59806   0.25000   0.00000  Uiso   1.00
C918   C     0.40193   0.84807   0.75000   0.00000  Uiso   1.00
C919   C     0.09807   0.65193   0.25000   0.00000  Uiso   1.00
C920   C     0.34806   0.59806   0.75000   0.00000  Uiso   1.00
C921   C     0.15194   0.90194   0.25000   0.00000  Uiso   1.00
C922   C     0.00000   0.75000   0.47940   0.00000  Uiso   1.00
C923   C     0.22940   0.97317   0.91825   0.00000  Uiso   1.00
C924   C     0.00000   0.75000   0.52060   0.00000  Uiso   1.00
C925   C     0.25001   0.99999   0.47940   0.00000  Uiso   1.00
C926   C     0.25001   0.99999   0.52059   0.00000  Uiso   1.00
C927   C     0.25000   0.50000   0.97940   0.00000  Uiso   1.00
C928   C     0.25000   0.50000   0.02060   0.00000  Uiso   1.00
C929   C     0.00000   0.75000   0.97940   0.00000  Uiso   1.00
C930   C     0.00000   0.75000   0.02060   0.00000  Uiso   1.00
C931   C     0.10462   0.95018   0.25602   0.00000  Uiso   1.00
C932   C     0.39537   0.54983   0.74397   0.00000  Uiso   1.00
C933   C     0.09968   0.65414   0.17782   0.00000  Uiso   1.00
C934   C     0.27060   0.52683   0.08175   0.00000  Uiso   1.00
C935   C     0.40032   0.84587   0.82218   0.00000  Uiso   1.00
C936   C     0.39537   0.54983   0.25606   0.00000  Uiso   1.00
C937   C     0.10462   0.95018   0.74399   0.00000  Uiso   1.00
C938   C     0.40031   0.84586   0.17782   0.00000  Uiso   1.00
C939   C     0.09968   0.65413   0.82218   0.00000  Uiso   1.00
C940   C     0.15413   0.59968   0.82218   0.00000  Uiso   1.00
C941   C     0.34585   0.90031   0.17782   0.00000  Uiso   1.00
C942   C     0.04982   0.89538   0.74399   0.00000  Uiso   1.00
C943   C     0.45017   0.60463   0.25604   0.00000  Uiso   1.00
C944   C     0.34586   0.90032   0.82218   0.00000  Uiso   1.00
C945   C     0.02683   0.77060   0.91825   0.00000  Uiso   1.00
C946   C     0.15413   0.59968   0.17782   0.00000  Uiso   1.00
C947   C     0.45017   0.60463   0.74398   0.00000  Uiso   1.00
C948   C     0.04982   0.89538   0.25602   0.00000  Uiso   1.00
C949   C     0.35462   0.70018   0.75602   0.00000  Uiso   1.00
C950   C     0.14538   0.79983   0.24398   0.00000  Uiso   1.00
C951   C     0.34969   0.90414   0.67782   0.00000  Uiso   1.00
C952   C     0.15032   0.59587   0.32218   0.00000  Uiso   1.00
C953   C     0.14538   0.79982   0.75601   0.00000  Uiso   1.00
C954   C     0.35463   0.70017   0.24397   0.00000  Uiso   1.00
C955   C     0.15032   0.59587   0.67782   0.00000  Uiso   1.00
C956   C     0.47317   0.72940   0.08175   0.00000  Uiso   1.00
C957   C     0.34970   0.90416   0.32218   0.00000  Uiso   1.00
C958   C     0.40415   0.84970   0.32218   0.00000  Uiso   1.00
C959   C     0.09587   0.65032   0.67782   0.00000  Uiso   1.00
C960   C     0.29983   0.64537   0.24397   0.00000  Uiso   1.00
C961   C     0.20017   0.85462   0.75601   0.00000  Uiso   1.00
C962   C     0.09586   0.65032   0.32218   0.00000  Uiso   1.00
C963   C     0.40413   0.84968   0.67782   0.00000  Uiso   1.00
C964   C     0.20017   0.85463   0.24398   0.00000  Uiso   1.00
C965   C     0.29982   0.64538   0.75602   0.00000  Uiso   1.00
C966   C     0.03681   0.80963   0.39632   0.00000  Uiso   1.00
C967   C     0.00000   0.75000   0.39812   0.00000  Uiso   1.00
C968   C     0.00698   0.83452   0.37967   0.00000  Uiso   1.00
C969   C     0.02351   0.86629   0.35701   0.00000  Uiso   1.00
C970   C     0.46319   0.69037   0.60367   0.00000  Uiso   1.00
C971   C     0.49303   0.66548   0.62032   0.00000  Uiso   1.00
C972   C     0.47650   0.63371   0.64300   0.00000  Uiso   1.00
C973   C     0.19037   0.96318   0.39632   0.00000  Uiso   1.00
C974   C     0.16547   0.99303   0.37969   0.00000  Uiso   1.00
C975   C     0.13373   0.97650   0.35697   0.00000  Uiso   1.00
C976   C     0.30963   0.53681   0.60367   0.00000  Uiso   1.00
C977   C     0.33452   0.50698   0.62034   0.00000  Uiso   1.00
C978   C     0.00000   0.75000   0.60187   0.00000  Uiso   1.00
C979   C     0.36632   0.52352   0.64295   0.00000  Uiso   1.00
C980   C     0.46319   0.69037   0.39633   0.00000  Uiso   1.00
C981   C     0.49303   0.66548   0.37967   0.00000  Uiso   1.00
C982   C     0.47649   0.63370   0.35702   0.00000  Uiso   1.00
C983   C     0.03681   0.80963   0.60367   0.00000  Uiso   1.00
C984   C     0.00697   0.83453   0.62032   0.00000  Uiso   1.00
C985   C     0.02350   0.86629   0.64300   0.00000  Uiso   1.00
C986   C     0.30965   0.53679   0.39632   0.00000  Uiso   1.00
C987   C     0.33451   0.50695   0.37960   0.00000  Uiso   1.00
C988   C     0.36648   0.52351   0.35726   0.00000  Uiso   1.00
C989   C     0.25000   0.99999   0.39812   0.00000  Uiso   1.00
C990   C     0.19037   0.96318   0.60367   0.00000  Uiso   1.00
C991   C     0.16547   0.99302   0.62030   0.00000  Uiso   1.00
C992   C     0.13375   0.97649   0.64306   0.00000  Uiso   1.00
C993   C     0.28681   0.55964   0.89632   0.00000  Uiso   1.00
C994   C     0.25697   0.58452   0.87967   0.00000  Uiso   1.00
C995   C     0.27350   0.61629   0.85701   0.00000  Uiso   1.00
C996   C     0.21318   0.94037   0.10368   0.00000  Uiso   1.00
C997   C     0.24302   0.91548   0.12033   0.00000  Uiso   1.00
C998   C     0.22649   0.88371   0.14299   0.00000  Uiso   1.00
C999   C     0.44037   0.71318   0.89633   0.00000  Uiso   1.00
C1000  C     0.47940   0.72317   0.58175   0.00000  Uiso   1.00
C1001  C     0.25000   0.50000   0.60187   0.00000  Uiso   1.00
C1002  C     0.41547   0.74302   0.87969   0.00000  Uiso   1.00
C1003  C     0.38374   0.72648   0.85696   0.00000  Uiso   1.00
C1004  C     0.05963   0.78681   0.10368   0.00000  Uiso   1.00
C1005  C     0.08452   0.75698   0.12033   0.00000  Uiso   1.00
C1006  C     0.11629   0.77351   0.14300   0.00000  Uiso   1.00
C1007  C     0.21318   0.94037   0.89632   0.00000  Uiso   1.00
C1008  C     0.24302   0.91547   0.87968   0.00000  Uiso   1.00
C1009  C     0.22649   0.88372   0.85699   0.00000  Uiso   1.00
C1010  C     0.28681   0.55963   0.10367   0.00000  Uiso   1.00
C1011  C     0.25698   0.58453   0.12032   0.00000  Uiso   1.00
C1012  C     0.25000   0.50000   0.89812   0.00000  Uiso   1.00
C1013  C     0.27351   0.61628   0.14300   0.00000  Uiso   1.00
C1014  C     0.05963   0.78682   0.89632   0.00000  Uiso   1.00
C1015  C     0.08453   0.75698   0.87969   0.00000  Uiso   1.00
C1016  C     0.11625   0.77352   0.85694   0.00000  Uiso   1.00
C1017  C     0.44037   0.71318   0.10367   0.00000  Uiso   1.00
C1018  C     0.41547   0.74302   0.12032   0.00000  Uiso   1.00
C1019  C     0.38372   0.72648   0.14301   0.00000  Uiso   1.00
C1020  C     0.25000   0.50000   0.10188   0.00000  Uiso   1.00
C1021  C     0.00000   0.75000   0.89813   0.00000  Uiso   1.00
C1022  C     0.00000   0.75000   0.10188   0.00000  Uiso   1.00
C1023  C     0.44942   0.70729   0.47995   0.00000  Uiso   1.00
C1024  C     0.05058   0.79271   0.52005   0.00000  Uiso   1.00
C1025  C     0.29271   0.55057   0.47994   0.00000  Uiso   1.00
C1026  C     0.20729   0.94941   0.52005   0.00000  Uiso   1.00
C1027  C     0.05058   0.79271   0.47994   0.00000  Uiso   1.00
C1028  C     0.22317   0.97939   0.41825   0.00000  Uiso   1.00
C1029  C     0.44942   0.70729   0.52005   0.00000  Uiso   1.00
C1030  C     0.20729   0.94941   0.47994   0.00000  Uiso   1.00
C1031  C     0.29271   0.55057   0.52005   0.00000  Uiso   1.00
C1032  C     0.19942   0.95729   0.97995   0.00000  Uiso   1.00
C1033  C     0.30058   0.54271   0.02005   0.00000  Uiso   1.00
C1034  C     0.04271   0.80058   0.97995   0.00000  Uiso   1.00
C1035  C     0.45730   0.69942   0.02005   0.00000  Uiso   1.00
C1036  C     0.30058   0.54271   0.97994   0.00000  Uiso   1.00
C1037  C     0.19942   0.95729   0.02006   0.00000  Uiso   1.00
C1038  C     0.45730   0.69942   0.97995   0.00000  Uiso   1.00
C1039  C     0.27683   0.52059   0.58175   0.00000  Uiso   1.00
C1040  C     0.04271   0.80058   0.02006   0.00000  Uiso   1.00
C1041  C     0.24999   0.50000   0.35577   0.00000  Uiso   1.00
C1042  C     0.25000   0.50000   0.64423   0.00000  Uiso   1.00
C1043  C    -0.00000   0.75000   0.35577   0.00000  Uiso   1.00
C1044  C     0.00000   0.75000   0.64423   0.00000  Uiso   1.00
C1045  C     0.00000   0.75000   0.85577   0.00000  Uiso   1.00
C1046  C    -0.00000   0.75000   0.14423   0.00000  Uiso   1.00
C1047  C     0.25000   0.50000   0.85577   0.00000  Uiso   1.00
C1048  C     0.25000   0.50000   0.14423   0.00000  Uiso   1.00
C1049  C     0.18003   0.56997   0.25000   0.00000  Uiso   1.00
C1050  C     0.47940   0.72317   0.41825   0.00000  Uiso   1.00
C1051  C     0.31997   0.93003   0.75000   0.00000  Uiso   1.00
C1052  C     0.43005   0.68005   0.25000   0.00000  Uiso   1.00
C1053  C     0.06995   0.81995   0.75000   0.00000  Uiso   1.00
C1054  C     0.31997   0.93003   0.25000   0.00000  Uiso   1.00
C1055  C     0.18003   0.56997   0.75000   0.00000  Uiso   1.00
C1056  C     0.06995   0.81995   0.25000   0.00000  Uiso   1.00
C1057  C     0.43005   0.68005   0.75000   0.00000  Uiso   1.00
C1058  C     0.18005   0.93005   0.75000   0.00000  Uiso   1.00
C1059  C     0.31995   0.56995   0.25000   0.00000  Uiso   1.00
C1060  C     0.43003   0.81997   0.75000   0.00000  Uiso   1.00
C1061  C     0.02060   0.77683   0.58175   0.00000  Uiso   1.00
C1062  C     0.06997   0.68003   0.25000   0.00000  Uiso   1.00
C1063  C     0.31995   0.56995   0.75000   0.00000  Uiso   1.00
C1064  C     0.18005   0.93005   0.25000   0.00000  Uiso   1.00
C1065  C     0.06997   0.68003   0.75000   0.00000  Uiso   1.00
C1066  C     0.43003   0.81997   0.25000   0.00000  Uiso   1.00
C1067  C     0.11493   0.91208   0.25234   0.00000  Uiso   1.00
C1068  C     0.38507   0.58792   0.74766   0.00000  Uiso   1.00
C1069  C     0.11207   0.63902   0.21446   0.00000  Uiso   1.00
C1070  C     0.38793   0.86098   0.78554   0.00000  Uiso   1.00
C1071  C     0.38507   0.58792   0.25235   0.00000  Uiso   1.00
C1072  C     0.27684   0.52058   0.41825   0.00000  Uiso   1.00
C1073  C     0.11493   0.91208   0.74767   0.00000  Uiso   1.00
C1074  C     0.38793   0.86098   0.21446   0.00000  Uiso   1.00
C1075  C     0.11207   0.63901   0.78554   0.00000  Uiso   1.00
C1076  C     0.13901   0.61207   0.78554   0.00000  Uiso   1.00
C1077  C     0.36098   0.88793   0.21446   0.00000  Uiso   1.00
C1078  C     0.08792   0.88507   0.74767   0.00000  Uiso   1.00
C1079  C     0.41208   0.61493   0.25235   0.00000  Uiso   1.00
C1080  C     0.36098   0.88793   0.78554   0.00000  Uiso   1.00
C1081  C     0.13902   0.61207   0.21446   0.00000  Uiso   1.00
C1082  C     0.41208   0.61493   0.74766   0.00000  Uiso   1.00
C1083  C     0.22317   0.97940   0.58175   0.00000  Uiso   1.00
C1084  C     0.08792   0.88507   0.25234   0.00000  Uiso   1.00
C1085  C     0.36493   0.66208   0.75234   0.00000  Uiso   1.00
C1086  C     0.13507   0.83792   0.24766   0.00000  Uiso   1.00
C1087  C     0.36207   0.88902   0.71446   0.00000  Uiso   1.00
C1088  C     0.13793   0.61098   0.28554   0.00000  Uiso   1.00
C1089  C     0.13507   0.83792   0.75233   0.00000  Uiso   1.00
C1090  C     0.36493   0.66208   0.24766   0.00000  Uiso   1.00
C1091  C     0.13793   0.61099   0.71446   0.00000  Uiso   1.00
C1092  C     0.36208   0.88903   0.28554   0.00000  Uiso   1.00
C1093  C     0.38902   0.86208   0.28554   0.00000  Uiso   1.00
C1094  C     0.27060   0.52683   0.91825   0.00000  Uiso   1.00
C1095  C     0.11099   0.63794   0.71446   0.00000  Uiso   1.00
C1096  C     0.33792   0.63507   0.24766   0.00000  Uiso   1.00
C1097  C     0.16208   0.86493   0.75233   0.00000  Uiso   1.00
C1098  C     0.11098   0.63793   0.28554   0.00000  Uiso   1.00
C1099  C     0.38902   0.86207   0.71446   0.00000  Uiso   1.00
C1100  C     0.16208   0.86493   0.24766   0.00000  Uiso   1.00
C1101  C     0.33792   0.63507   0.75234   0.00000  Uiso   1.00
C1102  C     0.47614   0.72644   0.45895   0.00000  Uiso   1.00
C1103  C     0.02386   0.77356   0.54105   0.00000  Uiso   1.00
C1104  C     0.27357   0.52385   0.45894   0.00000  Uiso   1.00
H1105  H     0.42701   0.69329   0.46614   0.00000  Uiso   1.00
H1106  H     0.32299   0.55671   0.03386   0.00000  Uiso   1.00
H1107  H     0.05024   0.80545   0.12690   0.00000  Uiso   1.00
H1108  H     0.20907   0.86668   0.87618   0.00000  Uiso   1.00
H1109  H     0.20981   0.89414   0.83251   0.00000  Uiso   1.00
H1110  H     0.24865   0.86644   0.84509   0.00000  Uiso   1.00
H1111  H     0.26134   0.93066   0.85988   0.00000  Uiso   1.00
H1112  H     0.25981   0.90448   0.90381   0.00000  Uiso   1.00
H1113  H     0.19625   0.92250   0.91470   0.00000  Uiso   1.00
H1114  H     0.19455   0.94976   0.87310   0.00000  Uiso   1.00
H1115  H     0.29018   0.60587   0.16749   0.00000  Uiso   1.00
H1116  H     0.29093   0.63332   0.12381   0.00000  Uiso   1.00
H1117  H     0.05671   0.82299   0.96614   0.00000  Uiso   1.00
H1118  H     0.25135   0.63356   0.15490   0.00000  Uiso   1.00
H1119  H     0.24019   0.59552   0.09618   0.00000  Uiso   1.00
H1120  H     0.23866   0.56934   0.14012   0.00000  Uiso   1.00
H1121  H     0.30544   0.55024   0.12690   0.00000  Uiso   1.00
H1122  H     0.30375   0.57750   0.08529   0.00000  Uiso   1.00
H1123  H     0.10579   0.79014   0.83243   0.00000  Uiso   1.00
H1124  H     0.13328   0.79100   0.87608   0.00000  Uiso   1.00
H1125  H     0.13354   0.75136   0.84507   0.00000  Uiso   1.00
H1126  H     0.09557   0.74023   0.90384   0.00000  Uiso   1.00
H1127  H     0.06934   0.73863   0.85994   0.00000  Uiso   1.00
H1128  H     0.44330   0.67701   0.03386   0.00000  Uiso   1.00
H1129  H     0.05024   0.80544   0.87310   0.00000  Uiso   1.00
H1130  H     0.07750   0.80376   0.91470   0.00000  Uiso   1.00
H1131  H     0.36669   0.70905   0.12382   0.00000  Uiso   1.00
H1132  H     0.39414   0.70981   0.16750   0.00000  Uiso   1.00
H1133  H     0.36644   0.74864   0.15491   0.00000  Uiso   1.00
H1134  H     0.43066   0.76134   0.14012   0.00000  Uiso   1.00
H1135  H     0.40447   0.75980   0.09618   0.00000  Uiso   1.00
H1136  H     0.42250   0.69625   0.08530   0.00000  Uiso   1.00
H1137  H     0.44976   0.69455   0.12690   0.00000  Uiso   1.00
H1138  H     0.32299   0.55671   0.96614   0.00000  Uiso   1.00
H1139  H     0.17701   0.94329   0.03386   0.00000  Uiso   1.00
H1140  H     0.44330   0.67701   0.96614   0.00000  Uiso   1.00
H1141  H     0.05671   0.82299   0.03386   0.00000  Uiso   1.00
H1142  H     0.04092   0.88333   0.37622   0.00000  Uiso   1.00
H1143  H     0.04021   0.85589   0.33253   0.00000  Uiso   1.00
H1144  H     0.00135   0.88357   0.34510   0.00000  Uiso   1.00
H1145  H     0.07299   0.80671   0.53386   0.00000  Uiso   1.00
H1146  H     0.48867   0.81934   0.35986   0.00000  Uiso   1.00
H1147  H     0.49017   0.84551   0.40380   0.00000  Uiso   1.00
H1148  H     0.05374   0.82751   0.41470   0.00000  Uiso   1.00
H1149  H     0.05545   0.80024   0.37310   0.00000  Uiso   1.00
H1150  H     0.45982   0.64412   0.66748   0.00000  Uiso   1.00
H1151  H     0.45908   0.61667   0.62380   0.00000  Uiso   1.00
H1152  H     0.49866   0.61643   0.65490   0.00000  Uiso   1.00
H1153  H     0.00983   0.65448   0.59619   0.00000  Uiso   1.00
H1154  H     0.01134   0.68066   0.64013   0.00000  Uiso   1.00
H1155  H     0.44456   0.69975   0.62690   0.00000  Uiso   1.00
H1156  H     0.30671   0.57298   0.46613   0.00000  Uiso   1.00
H1157  H     0.44626   0.67249   0.58530   0.00000  Uiso   1.00
H1158  H     0.14417   0.95986   0.33247   0.00000  Uiso   1.00
H1159  H     0.11670   0.95904   0.37613   0.00000  Uiso   1.00
H1160  H     0.11644   0.99866   0.34510   0.00000  Uiso   1.00
H1161  H     0.15445   0.50979   0.40384   0.00000  Uiso   1.00
H1162  H     0.18066   0.51137   0.35993   0.00000  Uiso   1.00
H1163  H     0.19975   0.94456   0.37309   0.00000  Uiso   1.00
H1164  H     0.17250   0.94624   0.41470   0.00000  Uiso   1.00
H1165  H     0.38336   0.54087   0.62370   0.00000  Uiso   1.00
H1166  H     0.35595   0.54026   0.66740   0.00000  Uiso   1.00
H1167  H     0.19329   0.92701   0.53386   0.00000  Uiso   1.00
H1168  H     0.38358   0.50136   0.65489   0.00000  Uiso   1.00
H1169  H     0.31934   0.98871   0.64020   0.00000  Uiso   1.00
H1170  H     0.34547   0.99014   0.59622   0.00000  Uiso   1.00
H1171  H     0.32751   0.55373   0.58529   0.00000  Uiso   1.00
H1172  H     0.30025   0.55545   0.62688   0.00000  Uiso   1.00
H1173  H     0.45910   0.61666   0.37624   0.00000  Uiso   1.00
H1174  H     0.45978   0.64409   0.33255   0.00000  Uiso   1.00
H1175  H     0.49865   0.61643   0.34511   0.00000  Uiso   1.00
H1176  H     0.01132   0.68066   0.35985   0.00000  Uiso   1.00
H1177  H     0.00984   0.65450   0.40381   0.00000  Uiso   1.00
H1178  H     0.07299   0.80671   0.46614   0.00000  Uiso   1.00
H1179  H     0.44626   0.67249   0.41471   0.00000  Uiso   1.00
H1180  H     0.44455   0.69975   0.37310   0.00000  Uiso   1.00
H1181  H     0.04017   0.85587   0.66749   0.00000  Uiso   1.00
H1182  H     0.04093   0.88332   0.62381   0.00000  Uiso   1.00
H1183  H     0.00134   0.88357   0.65489   0.00000  Uiso   1.00
H1184  H     0.49018   0.84552   0.59618   0.00000  Uiso   1.00
H1185  H     0.48866   0.81934   0.64012   0.00000  Uiso   1.00
H1186  H     0.05544   0.80025   0.62690   0.00000  Uiso   1.00
H1187  H     0.05374   0.82751   0.58530   0.00000  Uiso   1.00
H1188  H     0.35629   0.54053   0.33291   0.00000  Uiso   1.00
H1189  H     0.42701   0.69329   0.53386   0.00000  Uiso   1.00
H1190  H     0.38356   0.54062   0.37676   0.00000  Uiso   1.00
H1191  H     0.38366   0.50135   0.34519   0.00000  Uiso   1.00
H1192  H     0.34529   0.98993   0.40368   0.00000  Uiso   1.00
H1193  H     0.31935   0.98886   0.35954   0.00000  Uiso   1.00
H1194  H     0.30027   0.55546   0.37313   0.00000  Uiso   1.00
H1195  H     0.32755   0.55366   0.41474   0.00000  Uiso   1.00
H1196  H     0.11672   0.95900   0.62392   0.00000  Uiso   1.00
H1197  H     0.14422   0.95988   0.66757   0.00000  Uiso   1.00
H1198  H     0.11645   0.99865   0.65492   0.00000  Uiso   1.00
H1199  H     0.18066   0.51138   0.64005   0.00000  Uiso   1.00
H1200  H     0.19329   0.92701   0.46614   0.00000  Uiso   1.00
H1201  H     0.15443   0.50977   0.59615   0.00000  Uiso   1.00
H1202  H     0.17250   0.94624   0.58530   0.00000  Uiso   1.00
H1203  H     0.19976   0.94456   0.62691   0.00000  Uiso   1.00
H1204  H     0.29091   0.63333   0.87622   0.00000  Uiso   1.00
H1205  H     0.29020   0.60589   0.83253   0.00000  Uiso   1.00
H1206  H     0.25134   0.63357   0.84510   0.00000  Uiso   1.00
H1207  H     0.23867   0.56934   0.85986   0.00000  Uiso   1.00
H1208  H     0.24017   0.59551   0.90381   0.00000  Uiso   1.00
H1209  H     0.30374   0.57751   0.91470   0.00000  Uiso   1.00
H1210  H     0.30544   0.55025   0.87310   0.00000  Uiso   1.00
H1211  H     0.30671   0.57298   0.53385   0.00000  Uiso   1.00
H1212  H     0.20980   0.89411   0.16747   0.00000  Uiso   1.00
H1213  H     0.20907   0.86667   0.12379   0.00000  Uiso   1.00
H1214  H     0.24865   0.86643   0.15490   0.00000  Uiso   1.00
H1215  H     0.25982   0.90449   0.09619   0.00000  Uiso   1.00
H1216  H     0.26133   0.93066   0.14014   0.00000  Uiso   1.00
H1217  H     0.19455   0.94976   0.12690   0.00000  Uiso   1.00
H1218  H     0.19626   0.92250   0.08530   0.00000  Uiso   1.00
H1219  H     0.39419   0.70984   0.83246   0.00000  Uiso   1.00
H1220  H     0.36671   0.70902   0.87612   0.00000  Uiso   1.00
H1221  H     0.36645   0.74864   0.84508   0.00000  Uiso   1.00
H1222  H     0.17701   0.94329   0.96614   0.00000  Uiso   1.00
H1223  H     0.40445   0.75978   0.90383   0.00000  Uiso   1.00
H1224  H     0.43066   0.76136   0.85992   0.00000  Uiso   1.00
H1225  H     0.44976   0.69455   0.87310   0.00000  Uiso   1.00
H1226  H     0.42250   0.69624   0.91470   0.00000  Uiso   1.00
H1227  H     0.13333   0.79092   0.12379   0.00000  Uiso   1.00
H1228  H     0.10588   0.79020   0.16747   0.00000  Uiso   1.00
H1229  H     0.13357   0.75135   0.15490   0.00000  Uiso   1.00
H1230  H     0.06934   0.73867   0.14014   0.00000  Uiso   1.00
H1231  H     0.09551   0.74018   0.09619   0.00000  Uiso   1.00
H1232  H     0.07751   0.80374   0.08530   0.00000  Uiso   1.00
N1233  N     0.09642   0.98051   0.25895   0.00000  Uiso   1.00
N1234  N     0.33395   0.91013   0.14857   0.00000  Uiso   1.00
N1235  N     0.01949   0.90358   0.74106   0.00000  Uiso   1.00
N1236  N     0.48051   0.59642   0.25897   0.00000  Uiso   1.00
N1237  N     0.33396   0.91015   0.85143   0.00000  Uiso   1.00
N1238  N     0.16604   0.58985   0.14857   0.00000  Uiso   1.00
N1239  N     0.48051   0.59642   0.74105   0.00000  Uiso   1.00
N1240  N     0.01949   0.90358   0.25895   0.00000  Uiso   1.00
N1241  N     0.34642   0.73051   0.75895   0.00000  Uiso   1.00
N1242  N     0.15358   0.76949   0.24105   0.00000  Uiso   1.00
N1243  N     0.33986   0.91605   0.64857   0.00000  Uiso   1.00
N1244  N     0.40358   0.51949   0.74104   0.00000  Uiso   1.00
N1245  N     0.16015   0.58397   0.35143   0.00000  Uiso   1.00
N1246  N     0.15358   0.76949   0.75893   0.00000  Uiso   1.00
N1247  N     0.34642   0.73051   0.24104   0.00000  Uiso   1.00
N1248  N     0.16016   0.58397   0.64856   0.00000  Uiso   1.00
N1249  N     0.33988   0.91608   0.35143   0.00000  Uiso   1.00
N1250  N     0.41605   0.83987   0.35143   0.00000  Uiso   1.00
N1251  N     0.08397   0.66015   0.64857   0.00000  Uiso   1.00
N1252  N     0.26949   0.65358   0.24103   0.00000  Uiso   1.00
N1253  N     0.23051   0.84642   0.75894   0.00000  Uiso   1.00
N1254  N     0.08396   0.66015   0.35143   0.00000  Uiso   1.00
N1255  N     0.08985   0.66604   0.14857   0.00000  Uiso   1.00
N1256  N     0.41604   0.83985   0.64857   0.00000  Uiso   1.00
N1257  N     0.23051   0.84642   0.24105   0.00000  Uiso   1.00
N1258  N     0.26949   0.65358   0.75895   0.00000  Uiso   1.00
N1259  N     0.41015   0.83396   0.85143   0.00000  Uiso   1.00
N1260  N     0.40357   0.51949   0.25901   0.00000  Uiso   1.00
N1261  N     0.09642   0.98051   0.74107   0.00000  Uiso   1.00
N1262  N     0.41013   0.83395   0.14857   0.00000  Uiso   1.00
N1263  N     0.08985   0.66603   0.85143   0.00000  Uiso   1.00
N1264  N     0.16603   0.58985   0.85143   0.00000  Uiso   1.00
O1265  O     0.25000   0.50000   0.25000   0.00000  Uiso   1.00
O1266  O     0.25000   0.96964   0.66245   0.00000  Uiso   1.00
O1267  O     0.46963   0.75000   0.33755   0.00000  Uiso   1.00
O1268  O     0.03036   0.75000   0.66245   0.00000  Uiso   1.00
O1269  O    -0.00000   0.71964   0.83755   0.00000  Uiso   1.00
O1270  O    -0.00000   0.78037   0.16245   0.00000  Uiso   1.00
O1271  O     0.28036   0.50000   0.83755   0.00000  Uiso   1.00
O1272  O     0.21963   0.50000   0.16245   0.00000  Uiso   1.00
O1273  O    -0.00000   0.78037   0.83755   0.00000  Uiso   1.00
O1274  O     0.00000   0.71964   0.16245   0.00000  Uiso   1.00
O1275  O     0.21963   0.50000   0.83755   0.00000  Uiso   1.00
O1276  O     0.25000   0.50000   0.75000   0.00000  Uiso   1.00
O1277  O     0.28036   0.50000   0.16245   0.00000  Uiso   1.00
O1278  O     0.20724   0.57308   0.27302   0.00000  Uiso   1.00
O1279  O     0.29275   0.92693   0.72698   0.00000  Uiso   1.00
O1280  O     0.42692   0.70725   0.27302   0.00000  Uiso   1.00
O1281  O     0.07307   0.79276   0.72698   0.00000  Uiso   1.00
O1282  O     0.29275   0.92693   0.27302   0.00000  Uiso   1.00
O1283  O     0.20724   0.57308   0.72698   0.00000  Uiso   1.00
O1284  O     0.07307   0.79276   0.27302   0.00000  Uiso   1.00
O1285  O     0.42692   0.70725   0.72698   0.00000  Uiso   1.00
O1286  O     0.20724   0.92693   0.72698   0.00000  Uiso   1.00
O1287  O     0.00000   0.75000   0.25000   0.00000  Uiso   1.00
O1288  O     0.29275   0.57308   0.27302   0.00000  Uiso   1.00
O1289  O     0.42692   0.79276   0.72698   0.00000  Uiso   1.00
O1290  O     0.07307   0.70725   0.27302   0.00000  Uiso   1.00
O1291  O     0.29275   0.57308   0.72698   0.00000  Uiso   1.00
O1292  O     0.20724   0.92693   0.27302   0.00000  Uiso   1.00
O1293  O     0.07307   0.70725   0.72698   0.00000  Uiso   1.00
O1294  O     0.42692   0.79276   0.27302   0.00000  Uiso   1.00
O1295  O     0.45724   0.82308   0.77302   0.00000  Uiso   1.00
O1296  O     0.04275   0.67693   0.22698   0.00000  Uiso   1.00
O1297  O     0.17692   0.95725   0.77302   0.00000  Uiso   1.00
O1298  O     0.00000   0.75000   0.75000   0.00000  Uiso   1.00
O1299  O     0.32307   0.54276   0.22698   0.00000  Uiso   1.00
O1300  O     0.04275   0.67693   0.77302   0.00000  Uiso   1.00
O1301  O     0.45724   0.82308   0.22698   0.00000  Uiso   1.00
O1302  O     0.32307   0.54276   0.77302   0.00000  Uiso   1.00
O1303  O     0.17692   0.95725   0.22698   0.00000  Uiso   1.00
O1304  O     0.45724   0.67693   0.22698   0.00000  Uiso   1.00
O1305  O     0.04275   0.82308   0.77302   0.00000  Uiso   1.00
O1306  O     0.17692   0.54276   0.22698   0.00000  Uiso   1.00
O1307  O     0.32307   0.95725   0.77302   0.00000  Uiso   1.00
O1308  O     0.04275   0.82308   0.22698   0.00000  Uiso   1.00
O1309  O     0.25000   0.96964   0.33755   0.00000  Uiso   1.00
O1310  O     0.45724   0.67693   0.77302   0.00000  Uiso   1.00
O1311  O     0.32307   0.95725   0.22698   0.00000  Uiso   1.00
O1312  O     0.17692   0.54276   0.77302   0.00000  Uiso   1.00
O1313  O     0.25000   0.53037   0.66245   0.00000  Uiso   1.00
O1314  O     0.03036   0.75000   0.33755   0.00000  Uiso   1.00
O1315  O     0.46963   0.75000   0.66245   0.00000  Uiso   1.00
O1316  O     0.25000   0.53037   0.33755   0.00000  Uiso   1.00
Zn1317 Zn    0.20659   0.50000   0.21735   0.00000  Uiso   1.00
Zn1318 Zn    0.04340   0.75000   0.28265   0.00000  Uiso   1.00
Zn1319 Zn    0.25000   0.95660   0.71735   0.00000  Uiso   1.00
Zn1320 Zn    0.25000   0.54341   0.28265   0.00000  Uiso   1.00
Zn1321 Zn    0.04340   0.75000   0.71735   0.00000  Uiso   1.00
Zn1322 Zn    0.45659   0.75000   0.28265   0.00000  Uiso   1.00
Zn1323 Zn    0.25000   0.54341   0.71735   0.00000  Uiso   1.00
Zn1324 Zn    0.25000   0.95660   0.28265   0.00000  Uiso   1.00
Zn1325 Zn    0.29340   0.50000   0.78265   0.00000  Uiso   1.00
Zn1326 Zn    0.00000   0.70660   0.21735   0.00000  Uiso   1.00
Zn1327 Zn    0.00000   0.79341   0.78265   0.00000  Uiso   1.00
Zn1328 Zn    0.29340   0.50000   0.21735   0.00000  Uiso   1.00
Zn1329 Zn    0.20659   0.50000   0.78265   0.00000  Uiso   1.00
Zn1330 Zn    0.00000   0.79341   0.21735   0.00000  Uiso   1.00
Zn1331 Zn   -0.00000   0.70660   0.78265   0.00000  Uiso   1.00
Zn1332 Zn    0.45659   0.75000   0.71735   0.00000  Uiso   1.00
C1333  C     0.52060   0.77683   0.41825   0.00000  Uiso   1.00
C1334  C     0.72940   0.97317   0.08175   0.00000  Uiso   1.00
C1335  C     0.72644   0.97613   0.54105   0.00000  Uiso   1.00
C1336  C     0.52386   0.77356   0.45895   0.00000  Uiso   1.00
C1337  C     0.97614   0.72644   0.54105   0.00000  Uiso   1.00
C1338  C     0.72644   0.97612   0.45895   0.00000  Uiso   1.00
C1339  C     0.77356   0.52386   0.54105   0.00000  Uiso   1.00
C1340  C     0.72613   0.97644   0.95895   0.00000  Uiso   1.00
C1341  C     0.77386   0.52356   0.04105   0.00000  Uiso   1.00
C1342  C     0.52356   0.77387   0.95895   0.00000  Uiso   1.00
C1343  C     0.97644   0.72613   0.04105   0.00000  Uiso   1.00
C1344  C     0.77386   0.52356   0.95895   0.00000  Uiso   1.00
C1345  C     0.97317   0.72940   0.91825   0.00000  Uiso   1.00
C1346  C     0.72614   0.97644   0.04105   0.00000  Uiso   1.00
C1347  C     0.97644   0.72613   0.95895   0.00000  Uiso   1.00
C1348  C     0.52356   0.77386   0.04105   0.00000  Uiso   1.00
C1349  C     0.59806   0.84806   0.25000   0.00000  Uiso   1.00
C1350  C     0.90194   0.65194   0.75000   0.00000  Uiso   1.00
C1351  C     0.65193   0.59807   0.25000   0.00000  Uiso   1.00
C1352  C     0.84807   0.90193   0.75000   0.00000  Uiso   1.00
C1353  C     0.90194   0.65194   0.25000   0.00000  Uiso   1.00
C1354  C     0.59806   0.84806   0.75000   0.00000  Uiso   1.00
C1355  C     0.84807   0.90193   0.25000   0.00000  Uiso   1.00
C1356  C     0.52683   0.77060   0.08175   0.00000  Uiso   1.00
C1357  C     0.65193   0.59807   0.75000   0.00000  Uiso   1.00
C1358  C     0.59807   0.65193   0.75000   0.00000  Uiso   1.00
C1359  C     0.90193   0.84807   0.25000   0.00000  Uiso   1.00
C1360  C     0.65194   0.90194   0.75000   0.00000  Uiso   1.00
C1361  C     0.84806   0.59806   0.25000   0.00000  Uiso   1.00
C1362  C     0.90193   0.84807   0.75000   0.00000  Uiso   1.00
C1363  C     0.59807   0.65193   0.25000   0.00000  Uiso   1.00
C1364  C     0.84806   0.59806   0.75000   0.00000  Uiso   1.00
C1365  C     0.65194   0.90194   0.25000   0.00000  Uiso   1.00
C1366  C     0.50000   0.75000   0.47940   0.00000  Uiso   1.00
C1367  C     0.72940   0.97317   0.91825   0.00000  Uiso   1.00
C1368  C     0.50000   0.75000   0.52060   0.00000  Uiso   1.00
C1369  C     0.75001   0.99999   0.47940   0.00000  Uiso   1.00
C1370  C     0.75001   0.99999   0.52059   0.00000  Uiso   1.00
C1371  C     0.75000   0.50000   0.97940   0.00000  Uiso   1.00
C1372  C     0.75000   0.50000   0.02060   0.00000  Uiso   1.00
C1373  C     0.50000   0.75000   0.97940   0.00000  Uiso   1.00
C1374  C     0.50000   0.75000   0.02060   0.00000  Uiso   1.00
C1375  C     0.60462   0.95018   0.25602   0.00000  Uiso   1.00
C1376  C     0.89537   0.54983   0.74397   0.00000  Uiso   1.00
C1377  C     0.59968   0.65414   0.17782   0.00000  Uiso   1.00
C1378  C     0.77060   0.52683   0.08175   0.00000  Uiso   1.00
C1379  C     0.90032   0.84587   0.82218   0.00000  Uiso   1.00
C1380  C     0.89537   0.54983   0.25606   0.00000  Uiso   1.00
C1381  C     0.60462   0.95018   0.74399   0.00000  Uiso   1.00
C1382  C     0.90031   0.84586   0.17782   0.00000  Uiso   1.00
C1383  C     0.59968   0.65413   0.82218   0.00000  Uiso   1.00
C1384  C     0.65413   0.59968   0.82218   0.00000  Uiso   1.00
C1385  C     0.84585   0.90031   0.17782   0.00000  Uiso   1.00
C1386  C     0.54982   0.89538   0.74399   0.00000  Uiso   1.00
C1387  C     0.95017   0.60463   0.25604   0.00000  Uiso   1.00
C1388  C     0.84586   0.90032   0.82218   0.00000  Uiso   1.00
C1389  C     0.52683   0.77060   0.91825   0.00000  Uiso   1.00
C1390  C     0.65413   0.59968   0.17782   0.00000  Uiso   1.00
C1391  C     0.95017   0.60463   0.74398   0.00000  Uiso   1.00
C1392  C     0.54982   0.89538   0.25602   0.00000  Uiso   1.00
C1393  C     0.85462   0.70018   0.75602   0.00000  Uiso   1.00
C1394  C     0.64538   0.79983   0.24398   0.00000  Uiso   1.00
C1395  C     0.84969   0.90414   0.67782   0.00000  Uiso   1.00
C1396  C     0.65032   0.59587   0.32218   0.00000  Uiso   1.00
C1397  C     0.64538   0.79982   0.75601   0.00000  Uiso   1.00
C1398  C     0.85463   0.70017   0.24397   0.00000  Uiso   1.00
C1399  C     0.65032   0.59587   0.67782   0.00000  Uiso   1.00
C1400  C     0.97317   0.72940   0.08175   0.00000  Uiso   1.00
C1401  C     0.84970   0.90416   0.32218   0.00000  Uiso   1.00
C1402  C     0.90415   0.84970   0.32218   0.00000  Uiso   1.00
C1403  C     0.59587   0.65032   0.67782   0.00000  Uiso   1.00
C1404  C     0.79983   0.64537   0.24397   0.00000  Uiso   1.00
C1405  C     0.70017   0.85462   0.75601   0.00000  Uiso   1.00
C1406  C     0.59586   0.65032   0.32218   0.00000  Uiso   1.00
C1407  C     0.90413   0.84968   0.67782   0.00000  Uiso   1.00
C1408  C     0.70017   0.85463   0.24398   0.00000  Uiso   1.00
C1409  C     0.79982   0.64538   0.75602   0.00000  Uiso   1.00
C1410  C     0.53681   0.80963   0.39632   0.00000  Uiso   1.00
C1411  C     0.50000   0.75000   0.39812   0.00000  Uiso   1.00
C1412  C     0.50698   0.83452   0.37967   0.00000  Uiso   1.00
C1413  C     0.52351   0.86629   0.35701   0.00000  Uiso   1.00
C1414  C     0.96319   0.69037   0.60367   0.00000  Uiso   1.00
C1415  C     0.99303   0.66548   0.62032   0.00000  Uiso   1.00
C1416  C     0.97650   0.63371   0.64300   0.00000  Uiso   1.00
C1417  C     0.69037   0.96318   0.39632   0.00000  Uiso   1.00
C1418  C     0.66547   0.99303   0.37969   0.00000  Uiso   1.00
C1419  C     0.63373   0.97650   0.35697   0.00000  Uiso   1.00
C1420  C     0.80963   0.53681   0.60367   0.00000  Uiso   1.00
C1421  C     0.83452   0.50698   0.62034   0.00000  Uiso   1.00
C1422  C     0.50000   0.75000   0.60187   0.00000  Uiso   1.00
C1423  C     0.86632   0.52352   0.64295   0.00000  Uiso   1.00
C1424  C     0.96319   0.69037   0.39633   0.00000  Uiso   1.00
C1425  C     0.99303   0.66548   0.37967   0.00000  Uiso   1.00
C1426  C     0.97649   0.63370   0.35702   0.00000  Uiso   1.00
C1427  C     0.53681   0.80963   0.60367   0.00000  Uiso   1.00
C1428  C     0.50697   0.83453   0.62032   0.00000  Uiso   1.00
C1429  C     0.52350   0.86629   0.64300   0.00000  Uiso   1.00
C1430  C     0.80965   0.53679   0.39632   0.00000  Uiso   1.00
C1431  C     0.83451   0.50695   0.37960   0.00000  Uiso   1.00
C1432  C     0.86648   0.52351   0.35726   0.00000  Uiso   1.00
C1433  C     0.75000   0.99999   0.39812   0.00000  Uiso   1.00
C1434  C     0.69037   0.96318   0.60367   0.00000  Uiso   1.00
C1435  C     0.66547   0.99302   0.62030   0.00000  Uiso   1.00
C1436  C     0.63375   0.97649   0.64306   0.00000  Uiso   1.00
C1437  C     0.78681   0.55964   0.89632   0.00000  Uiso   1.00
C1438  C     0.75697   0.58452   0.87967   0.00000  Uiso   1.00
C1439  C     0.77350   0.61629   0.85701   0.00000  Uiso   1.00
C1440  C     0.71318   0.94037   0.10368   0.00000  Uiso   1.00
C1441  C     0.74302   0.91548   0.12033   0.00000  Uiso   1.00
C1442  C     0.72649   0.88371   0.14299   0.00000  Uiso   1.00
C1443  C     0.94037   0.71318   0.89633   0.00000  Uiso   1.00
C1444  C     0.97940   0.72317   0.58175   0.00000  Uiso   1.00
C1445  C     0.75000   0.50000   0.60187   0.00000  Uiso   1.00
C1446  C     0.91547   0.74302   0.87969   0.00000  Uiso   1.00
C1447  C     0.88374   0.72648   0.85696   0.00000  Uiso   1.00
C1448  C     0.55963   0.78681   0.10368   0.00000  Uiso   1.00
C1449  C     0.58452   0.75698   0.12033   0.00000  Uiso   1.00
C1450  C     0.61629   0.77351   0.14300   0.00000  Uiso   1.00
C1451  C     0.71318   0.94037   0.89632   0.00000  Uiso   1.00
C1452  C     0.74302   0.91547   0.87968   0.00000  Uiso   1.00
C1453  C     0.72649   0.88372   0.85699   0.00000  Uiso   1.00
C1454  C     0.78681   0.55963   0.10367   0.00000  Uiso   1.00
C1455  C     0.75698   0.58453   0.12032   0.00000  Uiso   1.00
C1456  C     0.75000   0.50000   0.89812   0.00000  Uiso   1.00
C1457  C     0.77351   0.61628   0.14300   0.00000  Uiso   1.00
C1458  C     0.55963   0.78682   0.89632   0.00000  Uiso   1.00
C1459  C     0.58453   0.75698   0.87969   0.00000  Uiso   1.00
C1460  C     0.61625   0.77352   0.85694   0.00000  Uiso   1.00
C1461  C     0.94037   0.71318   0.10367   0.00000  Uiso   1.00
C1462  C     0.91547   0.74302   0.12032   0.00000  Uiso   1.00
C1463  C     0.88372   0.72648   0.14301   0.00000  Uiso   1.00
C1464  C     0.75000   0.50000   0.10188   0.00000  Uiso   1.00
C1465  C     0.50000   0.75000   0.89813   0.00000  Uiso   1.00
C1466  C     0.50000   0.75000   0.10188   0.00000  Uiso   1.00
C1467  C     0.94942   0.70729   0.47995   0.00000  Uiso   1.00
C1468  C     0.55058   0.79271   0.52005   0.00000  Uiso   1.00
C1469  C     0.79271   0.55057   0.47994   0.00000  Uiso   1.00
C1470  C     0.70729   0.94941   0.52005   0.00000  Uiso   1.00
C1471  C     0.55058   0.79271   0.47994   0.00000  Uiso   1.00
C1472  C     0.72317   0.97939   0.41825   0.00000  Uiso   1.00
C1473  C     0.94942   0.70729   0.52005   0.00000  Uiso   1.00
C1474  C     0.70729   0.94941   0.47994   0.00000  Uiso   1.00
C1475  C     0.79271   0.55057   0.52005   0.00000  Uiso   1.00
C1476  C     0.69942   0.95729   0.97995   0.00000  Uiso   1.00
C1477  C     0.80058   0.54271   0.02005   0.00000  Uiso   1.00
C1478  C     0.54271   0.80058   0.97995   0.00000  Uiso   1.00
C1479  C     0.95730   0.69942   0.02005   0.00000  Uiso   1.00
C1480  C     0.80058   0.54271   0.97994   0.00000  Uiso   1.00
C1481  C     0.69942   0.95729   0.02006   0.00000  Uiso   1.00
C1482  C     0.95730   0.69942   0.97995   0.00000  Uiso   1.00
C1483  C     0.77683   0.52059   0.58175   0.00000  Uiso   1.00
C1484  C     0.54271   0.80058   0.02006   0.00000  Uiso   1.00
C1485  C     0.74999   0.50000   0.35577   0.00000  Uiso   1.00
C1486  C     0.75000   0.50000   0.64423   0.00000  Uiso   1.00
C1487  C     0.50000   0.75000   0.35577   0.00000  Uiso   1.00
C1488  C     0.50000   0.75000   0.64423   0.00000  Uiso   1.00
C1489  C     0.50000   0.75000   0.85577   0.00000  Uiso   1.00
C1490  C     0.50000   0.75000   0.14423   0.00000  Uiso   1.00
C1491  C     0.75000   0.50000   0.85577   0.00000  Uiso   1.00
C1492  C     0.75000   0.50000   0.14423   0.00000  Uiso   1.00
C1493  C     0.68003   0.56997   0.25000   0.00000  Uiso   1.00
C1494  C     0.97940   0.72317   0.41825   0.00000  Uiso   1.00
C1495  C     0.81997   0.93003   0.75000   0.00000  Uiso   1.00
C1496  C     0.93005   0.68005   0.25000   0.00000  Uiso   1.00
C1497  C     0.56995   0.81995   0.75000   0.00000  Uiso   1.00
C1498  C     0.81997   0.93003   0.25000   0.00000  Uiso   1.00
C1499  C     0.68003   0.56997   0.75000   0.00000  Uiso   1.00
C1500  C     0.56995   0.81995   0.25000   0.00000  Uiso   1.00
C1501  C     0.93005   0.68005   0.75000   0.00000  Uiso   1.00
C1502  C     0.68005   0.93005   0.75000   0.00000  Uiso   1.00
C1503  C     0.81995   0.56995   0.25000   0.00000  Uiso   1.00
C1504  C     0.93003   0.81997   0.75000   0.00000  Uiso   1.00
C1505  C     0.52060   0.77683   0.58175   0.00000  Uiso   1.00
C1506  C     0.56997   0.68003   0.25000   0.00000  Uiso   1.00
C1507  C     0.81995   0.56995   0.75000   0.00000  Uiso   1.00
C1508  C     0.68005   0.93005   0.25000   0.00000  Uiso   1.00
C1509  C     0.56997   0.68003   0.75000   0.00000  Uiso   1.00
C1510  C     0.93003   0.81997   0.25000   0.00000  Uiso   1.00
C1511  C     0.61493   0.91208   0.25234   0.00000  Uiso   1.00
C1512  C     0.88507   0.58792   0.74766   0.00000  Uiso   1.00
C1513  C     0.61207   0.63902   0.21446   0.00000  Uiso   1.00
C1514  C     0.88793   0.86098   0.78554   0.00000  Uiso   1.00
C1515  C     0.88507   0.58792   0.25235   0.00000  Uiso   1.00
C1516  C     0.77684   0.52058   0.41825   0.00000  Uiso   1.00
C1517  C     0.61493   0.91208   0.74767   0.00000  Uiso   1.00
C1518  C     0.88793   0.86098   0.21446   0.00000  Uiso   1.00
C1519  C     0.61207   0.63901   0.78554   0.00000  Uiso   1.00
C1520  C     0.63901   0.61207   0.78554   0.00000  Uiso   1.00
C1521  C     0.86098   0.88793   0.21446   0.00000  Uiso   1.00
C1522  C     0.58792   0.88507   0.74767   0.00000  Uiso   1.00
C1523  C     0.91208   0.61493   0.25235   0.00000  Uiso   1.00
C1524  C     0.86098   0.88793   0.78554   0.00000  Uiso   1.00
C1525  C     0.63902   0.61207   0.21446   0.00000  Uiso   1.00
C1526  C     0.91208   0.61493   0.74766   0.00000  Uiso   1.00
C1527  C     0.72317   0.97940   0.58175   0.00000  Uiso   1.00
C1528  C     0.58792   0.88507   0.25234   0.00000  Uiso   1.00
C1529  C     0.86493   0.66208   0.75234   0.00000  Uiso   1.00
C1530  C     0.63507   0.83792   0.24766   0.00000  Uiso   1.00
C1531  C     0.86207   0.88902   0.71446   0.00000  Uiso   1.00
C1532  C     0.63793   0.61098   0.28554   0.00000  Uiso   1.00
C1533  C     0.63507   0.83792   0.75233   0.00000  Uiso   1.00
C1534  C     0.86493   0.66208   0.24766   0.00000  Uiso   1.00
C1535  C     0.63793   0.61099   0.71446   0.00000  Uiso   1.00
C1536  C     0.86208   0.88903   0.28554   0.00000  Uiso   1.00
C1537  C     0.88902   0.86208   0.28554   0.00000  Uiso   1.00
C1538  C     0.77060   0.52683   0.91825   0.00000  Uiso   1.00
C1539  C     0.61099   0.63794   0.71446   0.00000  Uiso   1.00
C1540  C     0.83792   0.63507   0.24766   0.00000  Uiso   1.00
C1541  C     0.66208   0.86493   0.75233   0.00000  Uiso   1.00
C1542  C     0.61098   0.63793   0.28554   0.00000  Uiso   1.00
C1543  C     0.88902   0.86207   0.71446   0.00000  Uiso   1.00
C1544  C     0.66208   0.86493   0.24766   0.00000  Uiso   1.00
C1545  C     0.83792   0.63507   0.75234   0.00000  Uiso   1.00
C1546  C     0.97614   0.72644   0.45895   0.00000  Uiso   1.00
C1547  C     0.52386   0.77356   0.54105   0.00000  Uiso   1.00
C1548  C     0.77357   0.52385   0.45894   0.00000  Uiso   1.00
H1549  H     0.92701   0.69329   0.46614   0.00000  Uiso   1.00
H1550  H     0.82299   0.55671   0.03386   0.00000  Uiso   1.00
H1551  H     0.55024   0.80545   0.12690   0.00000  Uiso   1.00
H1552  H     0.70907   0.86668   0.87618   0.00000  Uiso   1.00
H1553  H     0.70981   0.89414   0.83251   0.00000  Uiso   1.00
H1554  H     0.74865   0.86644   0.84509   0.00000  Uiso   1.00
H1555  H     0.76134   0.93066   0.85988   0.00000  Uiso   1.00
H1556  H     0.75981   0.90448   0.90381   0.00000  Uiso   1.00
H1557  H     0.69625   0.92250   0.91470   0.00000  Uiso   1.00
H1558  H     0.69455   0.94976   0.87310   0.00000  Uiso   1.00
H1559  H     0.79018   0.60587   0.16749   0.00000  Uiso   1.00
H1560  H     0.79093   0.63332   0.12381   0.00000  Uiso   1.00
H1561  H     0.55671   0.82299   0.96614   0.00000  Uiso   1.00
H1562  H     0.75135   0.63356   0.15490   0.00000  Uiso   1.00
H1563  H     0.74019   0.59552   0.09618   0.00000  Uiso   1.00
H1564  H     0.73866   0.56934   0.14012   0.00000  Uiso   1.00
H1565  H     0.80544   0.55024   0.12690   0.00000  Uiso   1.00
H1566  H     0.80375   0.57750   0.08529   0.00000  Uiso   1.00
H1567  H     0.60579   0.79014   0.83243   0.00000  Uiso   1.00
H1568  H     0.63328   0.79100   0.87608   0.00000  Uiso   1.00
H1569  H     0.63354   0.75136   0.84507   0.00000  Uiso   1.00
H1570  H     0.59557   0.74023   0.90384   0.00000  Uiso   1.00
H1571  H     0.56934   0.73863   0.85994   0.00000  Uiso   1.00
H1572  H     0.94330   0.67701   0.03386   0.00000  Uiso   1.00
H1573  H     0.55024   0.80544   0.87310   0.00000  Uiso   1.00
H1574  H     0.57750   0.80376   0.91470   0.00000  Uiso   1.00
H1575  H     0.86669   0.70905   0.12382   0.00000  Uiso   1.00
H1576  H     0.89414   0.70981   0.16750   0.00000  Uiso   1.00
H1577  H     0.86644   0.74864   0.15491   0.00000  Uiso   1.00
H1578  H     0.93066   0.76134   0.14012   0.00000  Uiso   1.00
H1579  H     0.90447   0.75980   0.09618   0.00000  Uiso   1.00
H1580  H     0.92250   0.69625   0.08530   0.00000  Uiso   1.00
H1581  H     0.94976   0.69455   0.12690   0.00000  Uiso   1.00
H1582  H     0.82299   0.55671   0.96614   0.00000  Uiso   1.00
H1583  H     0.67701   0.94329   0.03386   0.00000  Uiso   1.00
H1584  H     0.94330   0.67701   0.96614   0.00000  Uiso   1.00
H1585  H     0.55671   0.82299   0.03386   0.00000  Uiso   1.00
H1586  H     0.54092   0.88333   0.37622   0.00000  Uiso   1.00
H1587  H     0.54021   0.85589   0.33253   0.00000  Uiso   1.00
H1588  H     0.50135   0.88357   0.34510   0.00000  Uiso   1.00
H1589  H     0.57299   0.80671   0.53386   0.00000  Uiso   1.00
H1590  H     0.98867   0.81934   0.35986   0.00000  Uiso   1.00
H1591  H     0.99017   0.84551   0.40380   0.00000  Uiso   1.00
H1592  H     0.55374   0.82751   0.41470   0.00000  Uiso   1.00
H1593  H     0.55545   0.80024   0.37310   0.00000  Uiso   1.00
H1594  H     0.95982   0.64412   0.66748   0.00000  Uiso   1.00
H1595  H     0.95908   0.61667   0.62380   0.00000  Uiso   1.00
H1596  H     0.99866   0.61643   0.65490   0.00000  Uiso   1.00
H1597  H     0.50983   0.65448   0.59619   0.00000  Uiso   1.00
H1598  H     0.51134   0.68066   0.64013   0.00000  Uiso   1.00
H1599  H     0.94456   0.69975   0.62690   0.00000  Uiso   1.00
H1600  H     0.80671   0.57298   0.46613   0.00000  Uiso   1.00
H1601  H     0.94626   0.67249   0.58530   0.00000  Uiso   1.00
H1602  H     0.64417   0.95986   0.33247   0.00000  Uiso   1.00
H1603  H     0.61670   0.95904   0.37613   0.00000  Uiso   1.00
H1604  H     0.61644   0.99866   0.34510   0.00000  Uiso   1.00
H1605  H     0.65445   0.50979   0.40384   0.00000  Uiso   1.00
H1606  H     0.68066   0.51137   0.35993   0.00000  Uiso   1.00
H1607  H     0.69975   0.94456   0.37309   0.00000  Uiso   1.00
H1608  H     0.67250   0.94624   0.41470   0.00000  Uiso   1.00
H1609  H     0.88336   0.54087   0.62370   0.00000  Uiso   1.00
H1610  H     0.85595   0.54026   0.66740   0.00000  Uiso   1.00
H1611  H     0.69329   0.92701   0.53386   0.00000  Uiso   1.00
H1612  H     0.88358   0.50136   0.65489   0.00000  Uiso   1.00
H1613  H     0.81934   0.98871   0.64020   0.00000  Uiso   1.00
H1614  H     0.84547   0.99014   0.59622   0.00000  Uiso   1.00
H1615  H     0.82751   0.55373   0.58529   0.00000  Uiso   1.00
H1616  H     0.80025   0.55545   0.62688   0.00000  Uiso   1.00
H1617  H     0.95910   0.61666   0.37624   0.00000  Uiso   1.00
H1618  H     0.95978   0.64409   0.33255   0.00000  Uiso   1.00
H1619  H     0.99865   0.61643   0.34511   0.00000  Uiso   1.00
H1620  H     0.51132   0.68066   0.35985   0.00000  Uiso   1.00
H1621  H     0.50984   0.65450   0.40381   0.00000  Uiso   1.00
H1622  H     0.57299   0.80671   0.46614   0.00000  Uiso   1.00
H1623  H     0.94626   0.67249   0.41471   0.00000  Uiso   1.00
H1624  H     0.94455   0.69975   0.37310   0.00000  Uiso   1.00
H1625  H     0.54017   0.85587   0.66749   0.00000  Uiso   1.00
H1626  H     0.54093   0.88332   0.62381   0.00000  Uiso   1.00
H1627  H     0.50134   0.88357   0.65489   0.00000  Uiso   1.00
H1628  H     0.99018   0.84552   0.59618   0.00000  Uiso   1.00
H1629  H     0.98866   0.81934   0.64012   0.00000  Uiso   1.00
H1630  H     0.55544   0.80025   0.62690   0.00000  Uiso   1.00
H1631  H     0.55374   0.82751   0.58530   0.00000  Uiso   1.00
H1632  H     0.85629   0.54053   0.33291   0.00000  Uiso   1.00
H1633  H     0.92701   0.69329   0.53386   0.00000  Uiso   1.00
H1634  H     0.88356   0.54062   0.37676   0.00000  Uiso   1.00
H1635  H     0.88366   0.50135   0.34519   0.00000  Uiso   1.00
H1636  H     0.84529   0.98993   0.40368   0.00000  Uiso   1.00
H1637  H     0.81935   0.98886   0.35954   0.00000  Uiso   1.00
H1638  H     0.80027   0.55546   0.37313   0.00000  Uiso   1.00
H1639  H     0.82755   0.55366   0.41474   0.00000  Uiso   1.00
H1640  H     0.61672   0.95900   0.62392   0.00000  Uiso   1.00
H1641  H     0.64422   0.95988   0.66757   0.00000  Uiso   1.00
H1642  H     0.61645   0.99865   0.65492   0.00000  Uiso   1.00
H1643  H     0.68066   0.51138   0.64005   0.00000  Uiso   1.00
H1644  H     0.69329   0.92701   0.46614   0.00000  Uiso   1.00
H1645  H     0.65443   0.50977   0.59615   0.00000  Uiso   1.00
H1646  H     0.67250   0.94624   0.58530   0.00000  Uiso   1.00
H1647  H     0.69976   0.94456   0.62691   0.00000  Uiso   1.00
H1648  H     0.79091   0.63333   0.87622   0.00000  Uiso   1.00
H1649  H     0.79020   0.60589   0.83253   0.00000  Uiso   1.00
H1650  H     0.75134   0.63357   0.84510   0.00000  Uiso   1.00
H1651  H     0.73867   0.56934   0.85986   0.00000  Uiso   1.00
H1652  H     0.74017   0.59551   0.90381   0.00000  Uiso   1.00
H1653  H     0.80374   0.57751   0.91470   0.00000  Uiso   1.00
H1654  H     0.80544   0.55025   0.87310   0.00000  Uiso   1.00
H1655  H     0.80671   0.57298   0.53385   0.00000  Uiso   1.00
H1656  H     0.70980   0.89411   0.16747   0.00000  Uiso   1.00
H1657  H     0.70907   0.86667   0.12379   0.00000  Uiso   1.00
H1658  H     0.74865   0.86643   0.15490   0.00000  Uiso   1.00
H1659  H     0.75982   0.90449   0.09619   0.00000  Uiso   1.00
H1660  H     0.76133   0.93066   0.14014   0.00000  Uiso   1.00
H1661  H     0.69455   0.94976   0.12690   0.00000  Uiso   1.00
H1662  H     0.69626   0.92250   0.08530   0.00000  Uiso   1.00
H1663  H     0.89419   0.70984   0.83246   0.00000  Uiso   1.00
H1664  H     0.86671   0.70902   0.87612   0.00000  Uiso   1.00
H1665  H     0.86645   0.74864   0.84508   0.00000  Uiso   1.00
H1666  H     0.67701   0.94329   0.96614   0.00000  Uiso   1.00
H1667  H     0.90445   0.75978   0.90383   0.00000  Uiso   1.00
H1668  H     0.93066   0.76136   0.85992   0.00000  Uiso   1.00
H1669  H     0.94976   0.69455   0.87310   0.00000  Uiso   1.00
H1670  H     0.92250   0.69624   0.91470   0.00000  Uiso   1.00
H1671  H     0.63333   0.79092   0.12379   0.00000  Uiso   1.00
H1672  H     0.60588   0.79020   0.16747   0.00000  Uiso   1.00
H1673  H     0.63357   0.75135   0.15490   0.00000  Uiso   1.00
H1674  H     0.56934   0.73867   0.14014   0.00000  Uiso   1.00
H1675  H     0.59551   0.74018   0.09619   0.00000  Uiso   1.00
H1676  H     0.57751   0.80374   0.08530   0.00000  Uiso   1.00
N1677  N     0.59642   0.98051   0.25895   0.00000  Uiso   1.00
N1678  N     0.83395   0.91013   0.14857   0.00000  Uiso   1.00
N1679  N     0.51949   0.90358   0.74106   0.00000  Uiso   1.00
N1680  N     0.98051   0.59642   0.25897   0.00000  Uiso   1.00
N1681  N     0.83396   0.91015   0.85143   0.00000  Uiso   1.00
N1682  N     0.66604   0.58985   0.14857   0.00000  Uiso   1.00
N1683  N     0.98051   0.59642   0.74105   0.00000  Uiso   1.00
N1684  N     0.51949   0.90358   0.25895   0.00000  Uiso   1.00
N1685  N     0.84642   0.73051   0.75895   0.00000  Uiso   1.00
N1686  N     0.65358   0.76949   0.24105   0.00000  Uiso   1.00
N1687  N     0.83986   0.91605   0.64857   0.00000  Uiso   1.00
N1688  N     0.90358   0.51949   0.74104   0.00000  Uiso   1.00
N1689  N     0.66015   0.58397   0.35143   0.00000  Uiso   1.00
N1690  N     0.65358   0.76949   0.75893   0.00000  Uiso   1.00
N1691  N     0.84642   0.73051   0.24104   0.00000  Uiso   1.00
N1692  N     0.66016   0.58397   0.64856   0.00000  Uiso   1.00
N1693  N     0.83988   0.91608   0.35143   0.00000  Uiso   1.00
N1694  N     0.91605   0.83987   0.35143   0.00000  Uiso   1.00
N1695  N     0.58397   0.66015   0.64857   0.00000  Uiso   1.00
N1696  N     0.76949   0.65358   0.24103   0.00000  Uiso   1.00
N1697  N     0.73051   0.84642   0.75894   0.00000  Uiso   1.00
N1698  N     0.58396   0.66015   0.35143   0.00000  Uiso   1.00
N1699  N     0.58985   0.66604   0.14857   0.00000  Uiso   1.00
N1700  N     0.91604   0.83985   0.64857   0.00000  Uiso   1.00
N1701  N     0.73051   0.84642   0.24105   0.00000  Uiso   1.00
N1702  N     0.76949   0.65358   0.75895   0.00000  Uiso   1.00
N1703  N     0.91015   0.83396   0.85143   0.00000  Uiso   1.00
N1704  N     0.90357   0.51949   0.25901   0.00000  Uiso   1.00
N1705  N     0.59642   0.98051   0.74107   0.00000  Uiso   1.00
N1706  N     0.91013   0.83395   0.14857   0.00000  Uiso   1.00
N1707  N     0.58985   0.66603   0.85143   0.00000  Uiso   1.00
N1708  N     0.66603   0.58985   0.85143   0.00000  Uiso   1.00
O1709  O     0.75000   0.50000   0.25000   0.00000  Uiso   1.00
O1710  O     0.75000   0.96964   0.66245   0.00000  Uiso   1.00
O1711  O     0.96963   0.75000   0.33755   0.00000  Uiso   1.00
O1712  O     0.53036   0.75000   0.66245   0.00000  Uiso   1.00
O1713  O     0.50000   0.71964   0.83755   0.00000  Uiso   1.00
O1714  O     0.50000   0.78037   0.16245   0.00000  Uiso   1.00
O1715  O     0.78036   0.50000   0.83755   0.00000  Uiso   1.00
O1716  O     0.71963   0.50000   0.16245   0.00000  Uiso   1.00
O1717  O     0.50000   0.78037   0.83755   0.00000  Uiso   1.00
O1718  O     0.50000   0.71964   0.16245   0.00000  Uiso   1.00
O1719  O     0.71963   0.50000   0.83755   0.00000  Uiso   1.00
O1720  O     0.75000   0.50000   0.75000   0.00000  Uiso   1.00
O1721  O     0.78036   0.50000   0.16245   0.00000  Uiso   1.00
O1722  O     0.70724   0.57308   0.27302   0.00000  Uiso   1.00
O1723  O     0.79275   0.92693   0.72698   0.00000  Uiso   1.00
O1724  O     0.92692   0.70725   0.27302   0.00000  Uiso   1.00
O1725  O     0.57307   0.79276   0.72698   0.00000  Uiso   1.00
O1726  O     0.79275   0.92693   0.27302   0.00000  Uiso   1.00
O1727  O     0.70724   0.57308   0.72698   0.00000  Uiso   1.00
O1728  O     0.57307   0.79276   0.27302   0.00000  Uiso   1.00
O1729  O     0.92692   0.70725   0.72698   0.00000  Uiso   1.00
O1730  O     0.70724   0.92693   0.72698   0.00000  Uiso   1.00
O1731  O     0.50000   0.75000   0.25000   0.00000  Uiso   1.00
O1732  O     0.79275   0.57308   0.27302   0.00000  Uiso   1.00
O1733  O     0.92692   0.79276   0.72698   0.00000  Uiso   1.00
O1734  O     0.57307   0.70725   0.27302   0.00000  Uiso   1.00
O1735  O     0.79275   0.57308   0.72698   0.00000  Uiso   1.00
O1736  O     0.70724   0.92693   0.27302   0.00000  Uiso   1.00
O1737  O     0.57307   0.70725   0.72698   0.00000  Uiso   1.00
O1738  O     0.92692   0.79276   0.27302   0.00000  Uiso   1.00
O1739  O     0.95724   0.82308   0.77302   0.00000  Uiso   1.00
O1740  O     0.54275   0.67693   0.22698   0.00000  Uiso   1.00
O1741  O     0.67692   0.95725   0.77302   0.00000  Uiso   1.00
O1742  O     0.50000   0.75000   0.75000   0.00000  Uiso   1.00
O1743  O     0.82307   0.54276   0.22698   0.00000  Uiso   1.00
O1744  O     0.54275   0.67693   0.77302   0.00000  Uiso   1.00
O1745  O     0.95724   0.82308   0.22698   0.00000  Uiso   1.00
O1746  O     0.82307   0.54276   0.77302   0.00000  Uiso   1.00
O1747  O     0.67692   0.95725   0.22698   0.00000  Uiso   1.00
O1748  O     0.95724   0.67693   0.22698   0.00000  Uiso   1.00
O1749  O     0.54275   0.82308   0.77302   0.00000  Uiso   1.00
O1750  O     0.67692   0.54276   0.22698   0.00000  Uiso   1.00
O1751  O     0.82307   0.95725   0.77302   0.00000  Uiso   1.00
O1752  O     0.54275   0.82308   0.22698   0.00000  Uiso   1.00
O1753  O     0.75000   0.96964   0.33755   0.00000  Uiso   1.00
O1754  O     0.95724   0.67693   0.77302   0.00000  Uiso   1.00
O1755  O     0.82307   0.95725   0.22698   0.00000  Uiso   1.00
O1756  O     0.67692   0.54276   0.77302   0.00000  Uiso   1.00
O1757  O     0.75000   0.53037   0.66245   0.00000  Uiso   1.00
O1758  O     0.53036   0.75000   0.33755   0.00000  Uiso   1.00
O1759  O     0.96963   0.75000   0.66245   0.00000  Uiso   1.00
O1760  O     0.75000   0.53037   0.33755   0.00000  Uiso   1.00
Zn1761 Zn    0.70659   0.50000   0.21735   0.00000  Uiso   1.00
Zn1762 Zn    0.54340   0.75000   0.28265   0.00000  Uiso   1.00
Zn1763 Zn    0.75000   0.95660   0.71735   0.00000  Uiso   1.00
Zn1764 Zn    0.75000   0.54341   0.28265   0.00000  Uiso   1.00
Zn1765 Zn    0.54340   0.75000   0.71735   0.00000  Uiso   1.00
Zn1766 Zn    0.95659   0.75000   0.28265   0.00000  Uiso   1.00
Zn1767 Zn    0.75000   0.54341   0.71735   0.00000  Uiso   1.00
Zn1768 Zn    0.75000   0.95660   0.28265   0.00000  Uiso   1.00
Zn1769 Zn    0.79340   0.50000   0.78265   0.00000  Uiso   1.00
Zn1770 Zn    0.50000   0.70660   0.21735   0.00000  Uiso   1.00
Zn1771 Zn    0.50000   0.79341   0.78265   0.00000  Uiso   1.00
Zn1772 Zn    0.79340   0.50000   0.21735   0.00000  Uiso   1.00
Zn1773 Zn    0.70659   0.50000   0.78265   0.00000  Uiso   1.00
Zn1774 Zn    0.50000   0.79341   0.21735   0.00000  Uiso   1.00
Zn1775 Zn    0.50000   0.70660   0.78265   0.00000  Uiso   1.00
Zn1776 Zn    0.95659   0.75000   0.71735   0.00000  Uiso   1.00
loop_
_geom_bond_atom_site_label_1
_geom_bond_atom_site_label_2
_geom_bond_distance
_geom_bond_site_symmetry_2
_ccdc_geom_bond_type
C1     C79     1.419   .     A
C1     C78     1.539   .     S
C1     C4      1.414   .     A
C2     C108    1.539   .     S
C2     C14     1.414   .     A
C2     C1020   1.419   .     A
C3     C195    1.414   .     A
C3     C38     1.416   .     A
C3     C138    1.404   .     A
C4     C139    1.404   .     A
C4     C34     1.416   .     A
C5     C112    1.414   .     A
C5     C141    1.404   .     A
C5     C480    1.416   .     S
C6     C142    1.404   .     A
C6     C140    1.414   .     A
C6     C37     1.416   .     A
C7     C143    1.404   .     A
C7     C151    1.414   .     A
C7     C926    1.416   1_545 S
C8     C35     1.414   .     A
C8     C927    1.416   .     A
C8     C144    1.404   .     A
C9     C46     1.414   .     A
C9     C145    1.404   .     A
C9     C40     1.416   .     S
C10    C41     1.416   .     A
C10    C146    1.404   .     A
C10    C57     1.414   .     A
C11    C68     1.414   .     A
C11    C147    1.404   .     A
C11    C486    1.416   .     S
C12    C148    1.404   .     A
C12    C206    1.414   .     A
C12    C39     1.416   .     S
C13    C111    1.539   .     S
C13    C15     1.414   .     A
C13    C577    1.419   .     S
C14    C149    1.404   .     A
C14    C928    1.416   .     A
C15    C150    1.404   .     A
C15    C485    1.416   .     S
C16    C152    1.404   .     A
C16    C24     1.414   .     A
C16    C42     1.416   .     A
C17    C168    1.455   .     S
C17    C196    1.410   .     A
C17    C198    1.410   .     A
C18    C197    1.410   .     A
C18    C194    1.410   .     A
C18    C169    1.455   .     S
C19    C200    1.411   .     A
C19    C161    1.459   .     S
C19    C193    1.411   .     A
C20    C163    1.459   .     S
C20    C192    1.411   .     A
C20    C199    1.411   .     A
C21    C191    1.410   .     A
C21    C164    1.455   .     S
C21    C202    1.410   .     A
C22    C201    1.410   .     A
C22    C190    1.410   .     A
C22    C165    1.455   .     S
C23    C204    1.411   .     A
C23    C166    1.459   .     S
C23    C189    1.411   .     A
C24    C134    1.419   .     A
C24    C116    1.539   .     S
C25    C203    1.411   .     A
C25    C167    1.459   .     S
C25    C188    1.411   .     A
C26    C177    1.459   .     S
C26    C207    1.411   .     A
C26    C187    1.411   .     A
C27    C205    1.411   .     A
C27    C178    1.459   .     S
C27    C186    1.411   .     A
C28    C170    1.455   .     S
C28    C209    1.410   .     A
C28    C185    1.410   .     A
C29    C208    1.410   .     A
C29    C171    1.455   .     S
C29    C183    1.410   .     A
C30    C182    1.411   .     A
C30    C211    1.411   .     A
C30    C172    1.459   .     S
C31    C181    1.411   .     A
C31    C210    1.411   .     A
C31    C174    1.459   .     S
C32    C175    1.455   .     S
C32    C180    1.410   .     A
C32    C213    1.410   .     A
C33    C179    1.410   .     A
C33    C212    1.410   .     A
C33    C176    1.455   .     S
C34    C36     1.421   .     A
C34    C658    1.416   1_455 S
C35    C1012   1.419   .     A
C35    C119    1.539   .     S
C36    C215    1.416   .     A
C36    C449    1.416   1_455 S
C37    C38     1.421   .     A
C37    C1104   1.416   .     S
C38    C895    1.416   .     S
C39    C896    1.416   1_545 A
C39    C40     1.421   1_556 S
C40    C902    1.416   1_545 A
C40    C39     1.421   1_554 S
C41    C459    1.416   1_455 S
C41    C42     1.421   1_556 S
C42    C455    1.416   1_455 S
C42    C41     1.421   1_554 S
C43    C179    1.454   .     S
C43    N345    1.157   .     T
C44    N356    1.157   .     T
C44    C180    1.453   .     S
C45    N367    1.157   .     T
C45    C181    1.453   .     S
C46    C122    1.539   .     S
C46    C132    1.419   .     S
C47    N371    1.157   .     T
C47    C182    1.453   .     S
C48    N372    1.157   .     T
C48    C183    1.454   .     S
C49    C185    1.454   .     S
C49    N373    1.157   .     T
C50    C186    1.453   .     S
C50    N374    1.157   .     T
C51    N375    1.157   .     T
C51    C187    1.453   .     S
C52    N376    1.157   .     T
C52    C188    1.453   .     S
C53    N346    1.157   .     T
C53    C189    1.453   .     S
C54    N347    1.157   .     T
C54    C190    1.454   .     S
C55    C191    1.453   .     S
C55    N348    1.157   .     T
C56    N349    1.157   .     T
C56    C192    1.453   .     S
C57    C133    1.419   .     A
C57    C126    1.539   .     S
C58    C193    1.453   .     S
C58    N350    1.157   .     T
C59    N351    1.157   .     T
C59    C194    1.453   .     S
C60    N352    1.157   .     T
C60    C196    1.453   .     S
C61    N353    1.157   .     T
C61    C197    1.454   .     S
C62    N354    1.157   .     T
C62    C198    1.454   .     S
C63    N355    1.157   .     T
C63    C199    1.453   .     S
C64    C200    1.453   .     S
C64    N357    1.157   .     T
C65    N358    1.157   .     T
C65    C201    1.454   .     S
C66    C202    1.454   .     S
C66    N359    1.157   .     T
C67    N360    1.157   .     T
C67    C203    1.453   .     S
C68    C129    1.539   .     S
C68    C578    1.419   .     S
C69    C204    1.453   .     S
C69    N361    1.157   .     T
C70    C205    1.453   .     S
C70    N362    1.157   .     T
C71    C207    1.453   .     S
C71    N363    1.157   .     T
C72    C208    1.453   .     S
C72    N364    1.157   .     T
C73    C209    1.453   .     S
C73    N365    1.158   .     T
C74    C210    1.453   .     S
C74    N366    1.157   .     T
C75    C211    1.453   .     S
C75    N368    1.157   .     T
C76    C212    1.453   .     S
C76    N369    1.157   .     T
C77    N370    1.157   .     T
C77    C213    1.454   .     S
C78    C80     1.538   .     S
C78    H261    1.108   .     S
C78    H260    1.102   .     S
C79    C155    1.461   .     S
C79    C606    1.419   1_455 S
C80    C81     1.527   .     S
C80    H702    1.107   1_455 S
C80    H703    1.112   1_455 S
C81    H255    1.111   .     S
C81    H254    1.111   .     S
C81    H256    1.110   .     S
C82    H267    1.108   .     S
C82    H269    1.102   .     S
C82    C112    1.539   .     S
C82    C83     1.538   .     S
C83    C84     1.527   .     S
C83    H709    1.112   .     S
C83    H710    1.107   .     S
C84    H264    1.111   .     S
C84    H262    1.111   .     S
C84    H263    1.111   .     S
C85    H276    1.102   .     S
C85    C86     1.538   .     S
C85    C140    1.539   .     S
C85    H275    1.108   .     S
C86    C87     1.527   .     S
C86    H1161   1.112   .     S
C86    H1162   1.107   .     S
C87    H272    1.110   .     S
C87    H270    1.111   .     S
C87    H271    1.111   .     S
C88    C89     1.538   .     S
C88    H284    1.108   .     S
C88    C151    1.539   .     S
C88    H283    1.102   .     S
C89    C91     1.527   .     S
C89    H1169   1.107   1_545 S
C89    H1170   1.112   1_545 S
C90    C156    1.461   .     S
C90    C173    1.419   .     A
C90    C556    1.419   1_455 S
C91    H278    1.111   .     S
C91    H277    1.111   .     S
C91    H280    1.110   .     S
C92    H292    1.108   .     S
C92    C162    1.539   .     S
C92    C93     1.538   .     S
C92    H291    1.102   .     S
C93    C94     1.527   .     S
C93    H732    1.107   .     S
C93    H733    1.112   .     S
C94    H287    1.111   .     S
C94    H285    1.111   .     S
C94    H286    1.111   .     S
C95    C173    1.539   .     S
C95    H298    1.108   .     S
C95    C96     1.538   .     S
C95    H299    1.102   .     S
C96    C97     1.527   .     S
C96    H740    1.112   1_455 S
C96    H741    1.107   1_455 S
C97    H293    1.111   .     S
C97    H294    1.111   .     S
C97    H295    1.110   .     S
C98    H307    1.102   .     S
C98    C99     1.538   .     S
C98    C184    1.539   .     S
C98    H306    1.108   .     S
C99    C100    1.527   .     S
C99    H1192   1.112   1_545 S
C99    H1193   1.107   1_545 S
C100   H303    1.111   .     S
C100   H302    1.111   .     S
C100   H300    1.112   .     S
C101   C140    1.419   .     A
C101   C1041   1.461   .     S
C101   C1072   1.419   .     S
C102   H314    1.102   .     S
C102   C103    1.538   .     S
C102   C195    1.539   .     S
C102   H315    1.108   .     S
C103   C104    1.527   .     S
C103   H1199   1.107   .     S
C103   H1201   1.112   .     S
C104   H310    1.111   .     S
C104   H308    1.111   .     S
C104   H309    1.111   .     S
C105   H322    1.108   .     S
C105   C206    1.539   .     S
C105   H321    1.102   .     S
C105   C106    1.538   .     S
C106   C107    1.527   .     S
C106   H320    1.112   .     S
C106   H319    1.107   .     S
C107   H317    1.111   .     S
C107   H318    1.110   .     S
C107   H316    1.111   .     S
C108   C109    1.538   .     S
C108   H330    1.102   .     S
C108   H329    1.108   .     S
C109   H328    1.107   .     S
C109   C110    1.527   .     S
C109   H327    1.112   .     S
C110   H326    1.111   .     S
C110   H324    1.111   .     S
C110   H325    1.111   .     S
C111   H337    1.108   .     S
C111   H338    1.102   .     S
C111   C114    1.538   .     S
C112   C534    1.419   .     S
C113   C154    1.461   .     S
C113   C1083   1.419   1_545 A
C113   C151    1.419   .     S
C114   C115    1.527   .     S
C114   H335    1.112   .     S
C114   H336    1.107   .     S
C115   H333    1.111   .     S
C115   H332    1.111   .     S
C115   H331    1.111   .     S
C116   H344    1.102   .     S
C116   C117    1.538   .     S
C116   H219    1.108   .     S
C117   H343    1.112   .     S
C117   C118    1.527   .     S
C117   H342    1.107   .     S
C118   H340    1.111   .     S
C118   H339    1.111   .     S
C118   H341    1.111   .     S
C119   H226    1.108   .     S
C119   C120    1.538   .     S
C119   H225    1.102   .     S
C120   H224    1.112   .     S
C120   C121    1.527   .     S
C120   H223    1.107   .     S
C121   H220    1.111   .     S
C121   H222    1.110   .     S
C121   H221    1.111   .     S
C122   H234    1.102   .     S
C122   H233    1.108   .     S
C122   C123    1.538   .     S
C123   H232    1.107   .     S
C123   C125    1.527   .     S
C123   H231    1.112   .     S
C124   C923    1.419   1_545 A
C124   C159    1.461   .     S
C124   C206    1.419   .     S
C125   H228    1.111   .     S
C125   H227    1.111   .     S
C125   H230    1.110   .     S
C126   C127    1.538   .     S
C126   H242    1.102   .     S
C126   H241    1.108   .     S
C127   H238    1.112   .     S
C127   H239    1.107   .     S
C127   C128    1.527   .     S
C128   H236    1.111   .     S
C128   H237    1.111   .     S
C128   H235    1.111   .     S
C129   H249    1.108   .     S
C129   C130    1.538   .     S
C129   H248    1.102   .     S
C130   H247    1.112   .     S
C130   C131    1.527   .     S
C130   H246    1.107   .     S
C131   H244    1.111   .     S
C131   H245    1.111   .     S
C131   H243    1.111   .     S
C132   C890    1.419   1_545 A
C132   C160    1.461   .     S
C133   C157    1.461   .     S
C133   C457    1.419   1_455 S
C134   C512    1.419   1_455 S
C134   C158    1.461   .     S
C135   H217    1.078   .     S
C135   C141    1.383   .     A
C135   C214    1.404   .     A
C136   H257    1.078   .     S
C136   C215    1.404   .     A
C136   C139    1.383   .     A
C137   C216    1.404   .     A
C137   C143    1.383   .     A
C137   H268    1.078   .     S
C138   C142    1.383   .     A
C138   H279    1.078   .     S
C139   H290    1.078   .     S
C141   H301    1.078   .     S
C142   H312    1.078   .     S
C143   H323    1.078   .     S
C144   H334    1.078   .     S
C144   C149    1.383   1_556 S
C145   H218    1.078   .     S
C145   C148    1.383   1_554 S
C146   H229    1.078   .     S
C146   C152    1.383   1_556 S
C147   H240    1.078   .     S
C147   C150    1.383   1_554 S
C148   H250    1.078   .     S
C148   C145    1.383   1_556 S
C149   H251    1.078   .     S
C149   C144    1.383   1_554 S
C150   H252    1.078   .     S
C150   C147    1.383   1_556 S
C152   H253    1.078   .     S
C152   C146    1.383   1_554 S
C153   O1309   1.278   1_545 A
C153   C989    1.461   1_545 S
C153   O428    1.278   .     S
C154   O1266   1.278   1_545 A
C154   O425    1.278   .     S
C155   O823    1.278   1_455 A
C155   O426    1.278   .     S
C156   O380    1.278   .     A
C156   O871    1.278   1_455 S
C157   O381    1.278   .     S
C157   O385    1.278   .     S
C158   O382    1.278   .     A
C158   O386    1.278   .     S
C159   O387    1.278   .     A
C159   O383    1.278   .     A
C160   O384    1.278   .     S
C160   O389    1.278   .     S
C161   O418    1.280   .     A
C161   O390    1.280   .     A
C162   C214    1.414   .     A
C162   C523    1.419   .     S
C163   O419    1.280   .     A
C163   O391    1.280   .     A
C164   O392    1.280   .     A
C164   O416    1.280   .     A
C165   O393    1.280   .     A
C165   O417    1.280   .     A
C166   O423    1.280   .     A
C166   O394    1.280   .     A
C167   O424    1.280   .     A
C167   O395    1.280   .     A
C168   O396    1.280   .     A
C168   O420    1.280   .     A
C169   O422    1.280   .     A
C169   O397    1.280   .     A
C170   O398    1.280   .     A
C170   O409    1.280   .     A
C171   O411    1.280   .     A
C171   O400    1.280   .     A
C172   O407    1.280   .     A
C172   O401    1.280   .     A
C173   C215    1.414   .     A
C174   O402    1.280   .     A
C174   O408    1.280   .     A
C175   O403    1.280   .     A
C175   O414    1.280   .     A
C176   O415    1.280   .     A
C176   O404    1.280   .     A
C177   O412    1.280   .     A
C177   O405    1.280   .     A
C178   O413    1.280   .     A
C178   O406    1.280   .     A
C179   C196    1.399   .     A
C180   C194    1.399   .     A
C181   C193    1.400   .     A
C182   C192    1.400   .     A
C183   C191    1.399   .     A
C184   C216    1.414   .     A
C184   C989    1.419   1_545 S
C185   C190    1.399   .     A
C186   C189    1.400   .     A
C187   C188    1.400   .     A
C195   C1001   1.419   .     A
C197   C213    1.399   .     A
C198   C212    1.399   .     A
C199   C211    1.400   .     A
C200   C210    1.400   .     A
C201   C209    1.399   .     A
C202   C208    1.399   .     A
C203   C207    1.400   .     A
C204   C205    1.400   .     A
C214   C478    1.416   .     S
C216   C925    1.416   1_545 S
H258   C524    1.107   .     S
H259   C524    1.112   .     S
H265   C527    1.112   1_455 S
H266   C527    1.107   1_455 S
H273   C974    1.112   1_545 S
H274   C974    1.107   1_545 S
H281   C977    1.107   .     S
H282   C977    1.112   .     S
H288   C537    1.107   1_455 S
H289   C537    1.112   1_455 S
H296   C540    1.112   .     S
H297   C540    1.107   .     S
H304   C987    1.112   .     S
H305   C987    1.107   .     S
H311   C991    1.107   1_545 S
H313   C991    1.112   1_545 S
O377   Zn432   1.949   .     S
O377   Zn429   1.949   .     S
O377   Zn440   1.949   .     S
O377   Zn1324  1.949   1_545 S
O378   Zn431   1.953   .     S
O378   C1042   1.278   .     A
O379   Zn434   1.953   .     S
O379   C599    1.278   .     A
O380   Zn433   1.953   .     S
O381   Zn443   1.953   .     S
O382   Zn442   1.953   .     S
O383   Zn437   1.953   .     S
O384   Zn429   1.953   .     S
O385   Zn439   1.953   .     S
O386   Zn438   1.953   .     S
O387   Zn441   1.953   .     S
O388   Zn435   1.949   .     S
O388   Zn1319  1.949   1_545 S
O388   Zn437   1.949   .     S
O388   Zn441   1.949   .     S
O389   Zn440   1.953   .     S
O390   Zn432   1.940   .     S
O391   Zn431   1.940   .     S
O392   Zn434   1.934   .     S
O393   Zn433   1.934   .     S
O394   Zn436   1.940   .     S
O395   Zn435   1.940   .     S
O396   Zn430   1.934   .     S
O397   Zn444   1.934   .     S
O398   Zn431   1.934   .     S
O399   Zn442   1.949   .     S
O399   Zn438   1.949   .     S
O399   Zn430   1.949   .     S
O399   Zn878   1.949   1_455 S
O400   Zn432   1.934   .     S
O401   Zn444   1.940   .     S
O402   Zn430   1.940   .     S
O403   Zn435   1.934   .     S
O404   Zn436   1.934   .     S
O405   Zn433   1.940   .     S
O406   Zn434   1.940   .     S
O407   Zn883   1.940   .     S
O408   Zn438   1.940   .     S
O409   Zn1329  1.934   .     S
O410   Zn433   1.949   .     S
O410   Zn439   1.949   .     S
O410   Zn443   1.949   .     S
O410   Zn888   1.949   1_455 S
O411   Zn440   1.934   .     S
O412   Zn443   1.940   .     S
O413   Zn886   1.940   .     S
O414   Zn437   1.934   .     S
O415   Zn1317  1.934   .     S
O416   Zn882   1.934   .     S
O417   Zn439   1.934   .     S
O418   Zn429   1.940   .     S
O419   Zn1325  1.940   .     S
O420   Zn442   1.934   .     S
O421   C1041   1.278   .     A
O421   Zn436   1.953   .     S
O422   Zn887   1.934   .     S
O423   Zn1328  1.940   .     S
O424   Zn441   1.940   .     S
O425   Zn435   1.953   .     S
O426   Zn430   1.953   .     S
O427   Zn444   1.953   .     S
O427   C600    1.278   .     S
O428   Zn432   1.953   .     S
Zn429  O1303   1.934   1_545 S
Zn431  O1276   1.949   .     S
Zn434  O843    1.949   .     S
Zn436  O1265   1.949   .     S
Zn437  O1307   1.940   1_545 S
Zn438  O860    1.934   1_455 S
Zn439  O851    1.940   1_455 S
Zn440  O1311   1.940   1_545 S
Zn441  O1297   1.934   1_545 S
Zn442  O857    1.940   1_455 S
Zn443  O866    1.934   1_455 S
Zn444  O854    1.949   .     S
C445   C523    1.419   .     A
C445   C522    1.539   .     S
C445   C448    1.414   .     A
C446   C552    1.539   .     S
C446   C458    1.414   .     A
C446   C1464   1.419   .     A
C447   C639    1.414   .     A
C447   C482    1.416   .     A
C447   C582    1.404   .     A
C448   C583    1.404   .     A
C448   C478    1.416   .     A
C449   C556    1.414   .     A
C449   C585    1.404   .     A
C449   C36     1.416   1_655 S
C450   C586    1.404   .     A
C450   C584    1.414   .     A
C450   C481    1.416   .     A
C451   C587    1.404   .     A
C451   C595    1.414   .     A
C451   C1370   1.416   1_545 S
C452   C479    1.414   .     A
C452   C1371   1.416   .     A
C452   C588    1.404   .     A
C453   C490    1.414   .     A
C453   C589    1.404   .     A
C453   C484    1.416   .     S
C454   C485    1.416   .     A
C454   C590    1.404   .     A
C454   C501    1.414   .     A
C455   C512    1.414   .     A
C455   C591    1.404   .     A
C455   C42     1.416   1_655 S
C456   C592    1.404   .     A
C456   C650    1.414   .     A
C456   C483    1.416   .     S
C457   C555    1.539   .     S
C457   C459    1.414   .     A
C457   C133    1.419   1_655 S
C458   C593    1.404   .     A
C458   C1372   1.416   .     A
C459   C594    1.404   .     A
C459   C41     1.416   1_655 S
C460   C596    1.404   .     A
C460   C468    1.414   .     A
C460   C486    1.416   .     A
C461   C612    1.455   .     S
C461   C640    1.410   .     A
C461   C642    1.410   .     A
C462   C641    1.410   .     A
C462   C638    1.410   .     A
C462   C613    1.455   .     S
C463   C644    1.411   .     A
C463   C605    1.459   .     S
C463   C637    1.411   .     A
C464   C607    1.459   .     S
C464   C636    1.411   .     A
C464   C643    1.411   .     A
C465   C635    1.410   .     A
C465   C608    1.455   .     S
C465   C646    1.410   .     A
C466   C645    1.410   .     A
C466   C634    1.410   .     A
C466   C609    1.455   .     S
C467   C648    1.411   .     A
C467   C610    1.459   .     S
C467   C633    1.411   .     A
C468   C578    1.419   .     A
C468   C560    1.539   .     S
C469   C647    1.411   .     A
C469   C611    1.459   .     S
C469   C632    1.411   .     A
C470   C621    1.459   .     S
C470   C651    1.411   .     A
C470   C631    1.411   .     A
C471   C649    1.411   .     A
C471   C622    1.459   .     S
C471   C630    1.411   .     A
C472   C614    1.455   .     S
C472   C653    1.410   .     A
C472   C629    1.410   .     A
C473   C652    1.410   .     A
C473   C615    1.455   .     S
C473   C627    1.410   .     A
C474   C626    1.411   .     A
C474   C655    1.411   .     A
C474   C616    1.459   .     S
C475   C625    1.411   .     A
C475   C654    1.411   .     A
C475   C618    1.459   .     S
C476   C619    1.455   .     S
C476   C624    1.410   .     A
C476   C657    1.410   .     A
C477   C623    1.410   .     A
C477   C656    1.410   .     A
C477   C620    1.455   .     S
C478   C480    1.421   .     A
C479   C1456   1.419   .     A
C479   C563    1.539   .     S
C480   C659    1.416   .     A
C481   C482    1.421   .     A
C481   C1548   1.416   .     S
C482   C1339   1.416   .     S
C483   C1340   1.416   1_545 A
C483   C484    1.421   1_556 S
C484   C1346   1.416   1_545 A
C484   C483    1.421   1_554 S
C485   C486    1.421   1_556 S
C486   C485    1.421   1_554 S
C487   C623    1.454   .     S
C487   N789    1.157   .     T
C488   N800    1.157   .     T
C488   C624    1.453   .     S
C489   N811    1.157   .     T
C489   C625    1.453   .     S
C490   C566    1.539   .     S
C490   C576    1.419   .     S
C491   N815    1.157   .     T
C491   C626    1.453   .     S
C492   N816    1.157   .     T
C492   C627    1.454   .     S
C493   C629    1.454   .     S
C493   N817    1.157   .     T
C494   C630    1.453   .     S
C494   N818    1.157   .     T
C495   N819    1.157   .     T
C495   C631    1.453   .     S
C496   N820    1.157   .     T
C496   C632    1.453   .     S
C497   N790    1.157   .     T
C497   C633    1.453   .     S
C498   N791    1.157   .     T
C498   C634    1.454   .     S
C499   C635    1.453   .     S
C499   N792    1.157   .     T
C500   N793    1.157   .     T
C500   C636    1.453   .     S
C501   C577    1.419   .     A
C501   C570    1.539   .     S
C502   C637    1.453   .     S
C502   N794    1.157   .     T
C503   N795    1.157   .     T
C503   C638    1.453   .     S
C504   N796    1.157   .     T
C504   C640    1.453   .     S
C505   N797    1.157   .     T
C505   C641    1.454   .     S
C506   N798    1.157   .     T
C506   C642    1.454   .     S
C507   N799    1.157   .     T
C507   C643    1.453   .     S
C508   C644    1.453   .     S
C508   N801    1.157   .     T
C509   N802    1.157   .     T
C509   C645    1.454   .     S
C510   C646    1.454   .     S
C510   N803    1.157   .     T
C511   N804    1.157   .     T
C511   C647    1.453   .     S
C512   C573    1.539   .     S
C512   C134    1.419   1_655 S
C513   C648    1.453   .     S
C513   N805    1.157   .     T
C514   C649    1.453   .     S
C514   N806    1.157   .     T
C515   C651    1.453   .     S
C515   N807    1.157   .     T
C516   C652    1.453   .     S
C516   N808    1.157   .     T
C517   C653    1.453   .     S
C517   N809    1.158   .     T
C518   C654    1.453   .     S
C518   N810    1.157   .     T
C519   C655    1.453   .     S
C519   N812    1.157   .     T
C520   C656    1.453   .     S
C520   N813    1.157   .     T
C521   N814    1.157   .     T
C521   C657    1.454   .     S
C522   C524    1.538   .     S
C522   H705    1.108   .     S
C522   H704    1.102   .     S
C523   C599    1.461   .     S
C524   C525    1.527   .     S
C525   H699    1.111   .     S
C525   H698    1.111   .     S
C525   H700    1.110   .     S
C526   H711    1.108   .     S
C526   H713    1.102   .     S
C526   C556    1.539   .     S
C526   C527    1.538   .     S
C527   C528    1.527   .     S
C527   H265    1.112   1_655 S
C527   H266    1.107   1_655 S
C528   H708    1.111   .     S
C528   H706    1.111   .     S
C528   H707    1.111   .     S
C529   H720    1.102   .     S
C529   C530    1.538   .     S
C529   C584    1.539   .     S
C529   H719    1.108   .     S
C530   C531    1.527   .     S
C530   H1605   1.112   .     S
C530   H1606   1.107   .     S
C531   H716    1.110   .     S
C531   H714    1.111   .     S
C531   H715    1.111   .     S
C532   C533    1.538   .     S
C532   H728    1.108   .     S
C532   C595    1.539   .     S
C532   H727    1.102   .     S
C533   C535    1.527   .     S
C533   H1613   1.107   1_545 S
C533   H1614   1.112   1_545 S
C534   C600    1.461   .     S
C534   C617    1.419   .     A
C535   H722    1.111   .     S
C535   H721    1.111   .     S
C535   H724    1.110   .     S
C536   H736    1.108   .     S
C536   C606    1.539   .     S
C536   C537    1.538   .     S
C536   H735    1.102   .     S
C537   C538    1.527   .     S
C537   H288    1.107   1_655 S
C537   H289    1.112   1_655 S
C538   H731    1.111   .     S
C538   H729    1.111   .     S
C538   H730    1.111   .     S
C539   C617    1.539   .     S
C539   H742    1.108   .     S
C539   C540    1.538   .     S
C539   H743    1.102   .     S
C540   C541    1.527   .     S
C541   H737    1.111   .     S
C541   H738    1.111   .     S
C541   H739    1.110   .     S
C542   H751    1.102   .     S
C542   C543    1.538   .     S
C542   C628    1.539   .     S
C542   H750    1.108   .     S
C543   C544    1.527   .     S
C543   H1636   1.112   1_545 S
C543   H1637   1.107   1_545 S
C544   H747    1.111   .     S
C544   H746    1.111   .     S
C544   H744    1.112   .     S
C545   C584    1.419   .     A
C545   C1485   1.461   .     S
C545   C1516   1.419   .     S
C546   H758    1.102   .     S
C546   C547    1.538   .     S
C546   C639    1.539   .     S
C546   H759    1.108   .     S
C547   C548    1.527   .     S
C547   H1643   1.107   .     S
C547   H1645   1.112   .     S
C548   H754    1.111   .     S
C548   H752    1.111   .     S
C548   H753    1.111   .     S
C549   H766    1.108   .     S
C549   C650    1.539   .     S
C549   H765    1.102   .     S
C549   C550    1.538   .     S
C550   C551    1.527   .     S
C550   H764    1.112   .     S
C550   H763    1.107   .     S
C551   H761    1.111   .     S
C551   H762    1.110   .     S
C551   H760    1.111   .     S
C552   C553    1.538   .     S
C552   H774    1.102   .     S
C552   H773    1.108   .     S
C553   H772    1.107   .     S
C553   C554    1.527   .     S
C553   H771    1.112   .     S
C554   H770    1.111   .     S
C554   H768    1.111   .     S
C554   H769    1.111   .     S
C555   H781    1.108   .     S
C555   H782    1.102   .     S
C555   C558    1.538   .     S
C556   C90     1.419   1_655 S
C557   C598    1.461   .     S
C557   C1527   1.419   1_545 A
C557   C595    1.419   .     S
C558   C559    1.527   .     S
C558   H779    1.112   .     S
C558   H780    1.107   .     S
C559   H777    1.111   .     S
C559   H776    1.111   .     S
C559   H775    1.111   .     S
C560   H788    1.102   .     S
C560   C561    1.538   .     S
C560   H663    1.108   .     S
C561   H787    1.112   .     S
C561   C562    1.527   .     S
C561   H786    1.107   .     S
C562   H784    1.111   .     S
C562   H783    1.111   .     S
C562   H785    1.111   .     S
C563   H670    1.108   .     S
C563   C564    1.538   .     S
C563   H669    1.102   .     S
C564   H668    1.112   .     S
C564   C565    1.527   .     S
C564   H667    1.107   .     S
C565   H664    1.111   .     S
C565   H666    1.110   .     S
C565   H665    1.111   .     S
C566   H678    1.102   .     S
C566   H677    1.108   .     S
C566   C567    1.538   .     S
C567   H676    1.107   .     S
C567   C569    1.527   .     S
C567   H675    1.112   .     S
C568   C1367   1.419   1_545 A
C568   C603    1.461   .     S
C568   C650    1.419   .     S
C569   H672    1.111   .     S
C569   H671    1.111   .     S
C569   H674    1.110   .     S
C570   C571    1.538   .     S
C570   H686    1.102   .     S
C570   H685    1.108   .     S
C571   H682    1.112   .     S
C571   H683    1.107   .     S
C571   C572    1.527   .     S
C572   H680    1.111   .     S
C572   H681    1.111   .     S
C572   H679    1.111   .     S
C573   H693    1.108   .     S
C573   C574    1.538   .     S
C573   H692    1.102   .     S
C574   H691    1.112   .     S
C574   C575    1.527   .     S
C574   H690    1.107   .     S
C575   H688    1.111   .     S
C575   H689    1.111   .     S
C575   H687    1.111   .     S
C576   C1334   1.419   1_545 A
C576   C604    1.461   .     S
C577   C601    1.461   .     S
C578   C602    1.461   .     S
C579   H661    1.078   .     S
C579   C585    1.383   .     A
C579   C658    1.404   .     A
C580   H701    1.078   .     S
C580   C659    1.404   .     A
C580   C583    1.383   .     A
C581   C660    1.404   .     A
C581   C587    1.383   .     A
C581   H712    1.078   .     S
C582   C586    1.383   .     A
C582   H723    1.078   .     S
C583   H734    1.078   .     S
C585   H745    1.078   .     S
C586   H756    1.078   .     S
C587   H767    1.078   .     S
C588   H778    1.078   .     S
C588   C593    1.383   1_556 S
C589   H662    1.078   .     S
C589   C592    1.383   1_554 S
C590   H673    1.078   .     S
C590   C596    1.383   1_556 S
C591   H684    1.078   .     S
C591   C594    1.383   1_554 S
C592   H694    1.078   .     S
C592   C589    1.383   1_556 S
C593   H695    1.078   .     S
C593   C588    1.383   1_554 S
C594   H696    1.078   .     S
C594   C591    1.383   1_556 S
C596   H697    1.078   .     S
C596   C590    1.383   1_554 S
C597   O1753   1.278   1_545 A
C597   C1433   1.461   1_545 S
C597   O872    1.278   .     S
C598   O1710   1.278   1_545 A
C598   O869    1.278   .     S
C599   O870    1.278   .     S
C600   O824    1.278   .     A
C601   O825    1.278   .     S
C601   O829    1.278   .     S
C602   O826    1.278   .     A
C602   O830    1.278   .     S
C603   O831    1.278   .     A
C603   O827    1.278   .     A
C604   O828    1.278   .     S
C604   O833    1.278   .     S
C605   O862    1.280   .     A
C605   O834    1.280   .     A
C606   C658    1.414   .     A
C606   C79     1.419   1_655 S
C607   O863    1.280   .     A
C607   O835    1.280   .     A
C608   O836    1.280   .     A
C608   O860    1.280   .     A
C609   O837    1.280   .     A
C609   O861    1.280   .     A
C610   O867    1.280   .     A
C610   O838    1.280   .     A
C611   O868    1.280   .     A
C611   O839    1.280   .     A
C612   O840    1.280   .     A
C612   O864    1.280   .     A
C613   O866    1.280   .     A
C613   O841    1.280   .     A
C614   O842    1.280   .     A
C614   O853    1.280   .     A
C615   O855    1.280   .     A
C615   O844    1.280   .     A
C616   O851    1.280   .     A
C616   O845    1.280   .     A
C617   C659    1.414   .     A
C618   O846    1.280   .     A
C618   O852    1.280   .     A
C619   O847    1.280   .     A
C619   O858    1.280   .     A
C620   O859    1.280   .     A
C620   O848    1.280   .     A
C621   O856    1.280   .     A
C621   O849    1.280   .     A
C622   O857    1.280   .     A
C622   O850    1.280   .     A
C623   C640    1.399   .     A
C624   C638    1.399   .     A
C625   C637    1.400   .     A
C626   C636    1.400   .     A
C627   C635    1.399   .     A
C628   C660    1.414   .     A
C628   C1433   1.419   1_545 S
C629   C634    1.399   .     A
C630   C633    1.400   .     A
C631   C632    1.400   .     A
C639   C1445   1.419   .     A
C641   C657    1.399   .     A
C642   C656    1.399   .     A
C643   C655    1.400   .     A
C644   C654    1.400   .     A
C645   C653    1.399   .     A
C646   C652    1.399   .     A
C647   C651    1.400   .     A
C648   C649    1.400   .     A
C658   C34     1.416   1_655 S
C660   C1369   1.416   1_545 S
H702   C80     1.107   1_655 S
H703   C80     1.112   1_655 S
H717   C1418   1.112   1_545 S
H718   C1418   1.107   1_545 S
H725   C1421   1.107   .     S
H726   C1421   1.112   .     S
H740   C96     1.112   1_655 S
H741   C96     1.107   1_655 S
H748   C1431   1.112   .     S
H749   C1431   1.107   .     S
H755   C1435   1.107   1_545 S
H757   C1435   1.112   1_545 S
O821   Zn876   1.949   .     S
O821   Zn873   1.949   .     S
O821   Zn884   1.949   .     S
O821   Zn1768  1.949   1_545 S
O822   Zn875   1.953   .     S
O822   C1486   1.278   .     A
O823   Zn878   1.953   .     S
O823   C155    1.278   1_655 A
O824   Zn877   1.953   .     S
O825   Zn887   1.953   .     S
O826   Zn886   1.953   .     S
O827   Zn881   1.953   .     S
O828   Zn873   1.953   .     S
O829   Zn883   1.953   .     S
O830   Zn882   1.953   .     S
O831   Zn885   1.953   .     S
O832   Zn879   1.949   .     S
O832   Zn1763  1.949   1_545 S
O832   Zn881   1.949   .     S
O832   Zn885   1.949   .     S
O833   Zn884   1.953   .     S
O834   Zn876   1.940   .     S
O835   Zn875   1.940   .     S
O836   Zn878   1.934   .     S
O837   Zn877   1.934   .     S
O838   Zn880   1.940   .     S
O839   Zn879   1.940   .     S
O840   Zn874   1.934   .     S
O841   Zn888   1.934   .     S
O842   Zn875   1.934   .     S
O843   Zn886   1.949   .     S
O843   Zn882   1.949   .     S
O843   Zn874   1.949   .     S
O844   Zn876   1.934   .     S
O845   Zn888   1.940   .     S
O846   Zn874   1.940   .     S
O847   Zn879   1.934   .     S
O848   Zn880   1.934   .     S
O849   Zn877   1.940   .     S
O850   Zn878   1.940   .     S
O851   Zn439   1.940   1_655 S
O852   Zn882   1.940   .     S
O853   Zn1773  1.934   .     S
O854   Zn877   1.949   .     S
O854   Zn883   1.949   .     S
O854   Zn887   1.949   .     S
O855   Zn884   1.934   .     S
O856   Zn887   1.940   .     S
O857   Zn442   1.940   1_655 S
O858   Zn881   1.934   .     S
O859   Zn1761  1.934   .     S
O860   Zn438   1.934   1_655 S
O861   Zn883   1.934   .     S
O862   Zn873   1.940   .     S
O863   Zn1769  1.940   .     S
O864   Zn886   1.934   .     S
O865   C1485   1.278   .     A
O865   Zn880   1.953   .     S
O866   Zn443   1.934   1_655 S
O867   Zn1772  1.940   .     S
O868   Zn885   1.940   .     S
O869   Zn879   1.953   .     S
O870   Zn874   1.953   .     S
O871   Zn888   1.953   .     S
O871   C156    1.278   1_655 S
O872   Zn876   1.953   .     S
Zn873  O1747   1.934   1_545 S
Zn875  O1720   1.949   .     S
Zn878  O399    1.949   1_655 S
Zn880  O1709   1.949   .     S
Zn881  O1751   1.940   1_545 S
Zn884  O1755   1.940   1_545 S
Zn885  O1741   1.934   1_545 S
Zn888  O410    1.949   1_655 S
C889   C967    1.419   .     A
C889   C966    1.539   .     S
C889   C892    1.414   .     A
C890   C996    1.539   .     S
C890   C902    1.414   .     A
C890   C132    1.419   1_565 A
C891   C1083   1.414   .     A
C891   C926    1.416   .     A
C891   C1026   1.404   .     A
C892   C1027   1.404   .     A
C892   C922    1.416   .     A
C893   C1000   1.414   .     A
C893   C1029   1.404   .     A
C893   C1368   1.416   .     S
C894   C1030   1.404   .     A
C894   C1028   1.414   .     A
C894   C925    1.416   .     A
C895   C1031   1.404   .     A
C895   C1039   1.414   .     A
C896   C923    1.414   .     A
C896   C39     1.416   1_565 A
C896   C1032   1.404   .     A
C897   C934    1.414   .     A
C897   C1033   1.404   .     A
C897   C928    1.416   .     S
C898   C929    1.416   .     A
C898   C1034   1.404   .     A
C898   C945    1.414   .     A
C899   C956    1.414   .     A
C899   C1035   1.404   .     A
C899   C1374   1.416   .     S
C900   C1036   1.404   .     A
C900   C1094   1.414   .     A
C900   C927    1.416   .     S
C901   C999    1.539   .     S
C901   C903    1.414   .     A
C901   C1465   1.419   .     S
C902   C1037   1.404   .     A
C902   C40     1.416   1_565 A
C903   C1038   1.404   .     A
C903   C1373   1.416   .     S
C904   C1040   1.404   .     A
C904   C912    1.414   .     A
C904   C930    1.416   .     A
C905   C1056   1.455   .     S
C905   C1084   1.410   .     A
C905   C1086   1.410   .     A
C906   C1085   1.410   .     A
C906   C1082   1.410   .     A
C906   C1057   1.455   .     S
C907   C1088   1.411   .     A
C907   C1049   1.459   .     S
C907   C1081   1.411   .     A
C908   C1051   1.459   .     S
C908   C1080   1.411   .     A
C908   C1087   1.411   .     A
C909   C1079   1.410   .     A
C909   C1052   1.455   .     S
C909   C1090   1.410   .     A
C910   C1089   1.410   .     A
C910   C1078   1.410   .     A
C910   C1053   1.455   .     S
C911   C1092   1.411   .     A
C911   C1054   1.459   .     S
C911   C1077   1.411   .     A
C912   C1022   1.419   .     A
C912   C1004   1.539   .     S
C913   C1091   1.411   .     A
C913   C1055   1.459   .     S
C913   C1076   1.411   .     A
C914   C1065   1.459   .     S
C914   C1095   1.411   .     A
C914   C1075   1.411   .     A
C915   C1093   1.411   .     A
C915   C1066   1.459   .     S
C915   C1074   1.411   .     A
C916   C1058   1.455   .     S
C916   C1097   1.410   .     A
C916   C1073   1.410   .     A
C917   C1096   1.410   .     A
C917   C1059   1.455   .     S
C917   C1071   1.410   .     A
C918   C1070   1.411   .     A
C918   C1099   1.411   .     A
C918   C1060   1.459   .     S
C919   C1069   1.411   .     A
C919   C1098   1.411   .     A
C919   C1062   1.459   .     S
C920   C1063   1.455   .     S
C920   C1068   1.410   .     A
C920   C1101   1.410   .     A
C921   C1067   1.410   .     A
C921   C1100   1.410   .     A
C921   C1064   1.455   .     S
C922   C924    1.421   .     A
C922   C1546   1.416   1_455 S
C923   C124    1.419   1_565 A
C923   C1007   1.539   .     S
C924   C1103   1.416   .     A
C924   C1337   1.416   1_455 S
C925   C926    1.421   .     A
C925   C216    1.416   1_565 S
C926   C7      1.416   1_565 S
C927   C928    1.421   1_556 S
C928   C927    1.421   1_554 S
C929   C1347   1.416   1_455 S
C929   C930    1.421   1_556 S
C930   C1343   1.416   1_455 S
C930   C929    1.421   1_554 S
C931   C1067   1.454   .     S
C931   N1233   1.157   .     T
C932   N1244   1.157   .     T
C932   C1068   1.453   .     S
C933   N1255   1.157   .     T
C933   C1069   1.453   .     S
C934   C1010   1.539   .     S
C934   C1020   1.419   .     S
C935   N1259   1.157   .     T
C935   C1070   1.453   .     S
C936   N1260   1.157   .     T
C936   C1071   1.454   .     S
C937   C1073   1.454   .     S
C937   N1261   1.157   .     T
C938   C1074   1.453   .     S
C938   N1262   1.157   .     T
C939   N1263   1.157   .     T
C939   C1075   1.453   .     S
C940   N1264   1.157   .     T
C940   C1076   1.453   .     S
C941   N1234   1.157   .     T
C941   C1077   1.453   .     S
C942   N1235   1.157   .     T
C942   C1078   1.454   .     S
C943   C1079   1.453   .     S
C943   N1236   1.157   .     T
C944   N1237   1.157   .     T
C944   C1080   1.453   .     S
C945   C1021   1.419   .     A
C945   C1014   1.539   .     S
C946   C1081   1.453   .     S
C946   N1238   1.157   .     T
C947   N1239   1.157   .     T
C947   C1082   1.453   .     S
C948   N1240   1.157   .     T
C948   C1084   1.453   .     S
C949   N1241   1.157   .     T
C949   C1085   1.454   .     S
C950   N1242   1.157   .     T
C950   C1086   1.454   .     S
C951   N1243   1.157   .     T
C951   C1087   1.453   .     S
C952   C1088   1.453   .     S
C952   N1245   1.157   .     T
C953   N1246   1.157   .     T
C953   C1089   1.454   .     S
C954   C1090   1.454   .     S
C954   N1247   1.157   .     T
C955   N1248   1.157   .     T
C955   C1091   1.453   .     S
C956   C1017   1.539   .     S
C956   C1466   1.419   .     S
C957   C1092   1.453   .     S
C957   N1249   1.157   .     T
C958   C1093   1.453   .     S
C958   N1250   1.157   .     T
C959   C1095   1.453   .     S
C959   N1251   1.157   .     T
C960   C1096   1.453   .     S
C960   N1252   1.157   .     T
C961   C1097   1.453   .     S
C961   N1253   1.158   .     T
C962   C1098   1.453   .     S
C962   N1254   1.157   .     T
C963   C1099   1.453   .     S
C963   N1256   1.157   .     T
C964   C1100   1.453   .     S
C964   N1257   1.157   .     T
C965   N1258   1.157   .     T
C965   C1101   1.454   .     S
C966   C968    1.538   .     S
C966   H1149   1.108   .     S
C966   H1148   1.102   .     S
C967   C1043   1.461   .     S
C967   C1494   1.419   1_455 S
C968   C969    1.527   .     S
C968   H1590   1.107   1_455 S
C968   H1591   1.112   1_455 S
C969   H1143   1.111   .     S
C969   H1142   1.111   .     S
C969   H1144   1.110   .     S
C970   H1155   1.108   .     S
C970   H1157   1.102   .     S
C970   C1000   1.539   .     S
C970   C971    1.538   .     S
C971   C972    1.527   .     S
C971   H1597   1.112   .     S
C971   H1598   1.107   .     S
C972   H1152   1.111   .     S
C972   H1150   1.111   .     S
C972   H1151   1.111   .     S
C973   H1164   1.102   .     S
C973   C974    1.538   .     S
C973   C1028   1.539   .     S
C973   H1163   1.108   .     S
C974   C975    1.527   .     S
C974   H273    1.112   1_565 S
C974   H274    1.107   1_565 S
C975   H1160   1.110   .     S
C975   H1158   1.111   .     S
C975   H1159   1.111   .     S
C976   C977    1.538   .     S
C976   H1172   1.108   .     S
C976   C1039   1.539   .     S
C976   H1171   1.102   .     S
C977   C979    1.527   .     S
C978   C1044   1.461   .     S
C978   C1061   1.419   .     A
C978   C1444   1.419   1_455 S
C979   H1166   1.111   .     S
C979   H1165   1.111   .     S
C979   H1168   1.110   .     S
C980   H1180   1.108   .     S
C980   C1050   1.539   .     S
C980   C981    1.538   .     S
C980   H1179   1.102   .     S
C981   C982    1.527   .     S
C981   H1620   1.107   .     S
C981   H1621   1.112   .     S
C982   H1175   1.111   .     S
C982   H1173   1.111   .     S
C982   H1174   1.111   .     S
C983   C1061   1.539   .     S
C983   H1186   1.108   .     S
C983   C984    1.538   .     S
C983   H1187   1.102   .     S
C984   C985    1.527   .     S
C984   H1628   1.112   1_455 S
C984   H1629   1.107   1_455 S
C985   H1181   1.111   .     S
C985   H1182   1.111   .     S
C985   H1183   1.110   .     S
C986   H1195   1.102   .     S
C986   C987    1.538   .     S
C986   C1072   1.539   .     S
C986   H1194   1.108   .     S
C987   C988    1.527   .     S
C988   H1191   1.111   .     S
C988   H1190   1.111   .     S
C988   H1188   1.112   .     S
C989   C1028   1.419   .     A
C989   C153    1.461   1_565 S
C989   C184    1.419   1_565 S
C990   H1202   1.102   .     S
C990   C991    1.538   .     S
C990   C1083   1.539   .     S
C990   H1203   1.108   .     S
C991   C992    1.527   .     S
C991   H311    1.107   1_565 S
C991   H313    1.112   1_565 S
C992   H1198   1.111   .     S
C992   H1196   1.111   .     S
C992   H1197   1.111   .     S
C993   H1210   1.108   .     S
C993   C1094   1.539   .     S
C993   H1209   1.102   .     S
C993   C994    1.538   .     S
C994   C995    1.527   .     S
C994   H1208   1.112   .     S
C994   H1207   1.107   .     S
C995   H1205   1.111   .     S
C995   H1206   1.110   .     S
C995   H1204   1.111   .     S
C996   C997    1.538   .     S
C996   H1218   1.102   .     S
C996   H1217   1.108   .     S
C997   H1216   1.107   .     S
C997   C998    1.527   .     S
C997   H1215   1.112   .     S
C998   H1214   1.111   .     S
C998   H1212   1.111   .     S
C998   H1213   1.111   .     S
C999   H1225   1.108   .     S
C999   H1226   1.102   .     S
C999   C1002   1.538   .     S
C1000  C1422   1.419   .     S
C1001  C1042   1.461   .     S
C1001  C1039   1.419   .     S
C1002  C1003   1.527   .     S
C1002  H1223   1.112   .     S
C1002  H1224   1.107   .     S
C1003  H1221   1.111   .     S
C1003  H1220   1.111   .     S
C1003  H1219   1.111   .     S
C1004  H1232   1.102   .     S
C1004  C1005   1.538   .     S
C1004  H1107   1.108   .     S
C1005  H1231   1.112   .     S
C1005  C1006   1.527   .     S
C1005  H1230   1.107   .     S
C1006  H1228   1.111   .     S
C1006  H1227   1.111   .     S
C1006  H1229   1.111   .     S
C1007  H1114   1.108   .     S
C1007  C1008   1.538   .     S
C1007  H1113   1.102   .     S
C1008  H1112   1.112   .     S
C1008  C1009   1.527   .     S
C1008  H1111   1.107   .     S
C1009  H1108   1.111   .     S
C1009  H1110   1.110   .     S
C1009  H1109   1.111   .     S
C1010  H1122   1.102   .     S
C1010  H1121   1.108   .     S
C1010  C1011   1.538   .     S
C1011  H1120   1.107   .     S
C1011  C1013   1.527   .     S
C1011  H1119   1.112   .     S
C1012  C1047   1.461   .     S
C1012  C1094   1.419   .     S
C1013  H1116   1.111   .     S
C1013  H1115   1.111   .     S
C1013  H1118   1.110   .     S
C1014  C1015   1.538   .     S
C1014  H1130   1.102   .     S
C1014  H1129   1.108   .     S
C1015  H1126   1.112   .     S
C1015  H1127   1.107   .     S
C1015  C1016   1.527   .     S
C1016  H1124   1.111   .     S
C1016  H1125   1.111   .     S
C1016  H1123   1.111   .     S
C1017  H1137   1.108   .     S
C1017  C1018   1.538   .     S
C1017  H1136   1.102   .     S
C1018  H1135   1.112   .     S
C1018  C1019   1.527   .     S
C1018  H1134   1.107   .     S
C1019  H1132   1.111   .     S
C1019  H1133   1.111   .     S
C1019  H1131   1.111   .     S
C1020  C1048   1.461   .     S
C1021  C1045   1.461   .     S
C1021  C1345   1.419   1_455 S
C1022  C1400   1.419   1_455 S
C1022  C1046   1.461   .     S
C1023  H1105   1.078   .     S
C1023  C1029   1.383   .     A
C1023  C1102   1.404   .     A
C1024  H1145   1.078   .     S
C1024  C1103   1.404   .     A
C1024  C1027   1.383   .     A
C1025  C1104   1.404   .     A
C1025  C1031   1.383   .     A
C1025  H1156   1.078   .     S
C1026  C1030   1.383   .     A
C1026  H1167   1.078   .     S
C1027  H1178   1.078   .     S
C1029  H1189   1.078   .     S
C1030  H1200   1.078   .     S
C1031  H1211   1.078   .     S
C1032  H1222   1.078   .     S
C1032  C1037   1.383   1_556 S
C1033  H1106   1.078   .     S
C1033  C1036   1.383   1_554 S
C1034  H1117   1.078   .     S
C1034  C1040   1.383   1_556 S
C1035  H1128   1.078   .     S
C1035  C1038   1.383   1_554 S
C1036  H1138   1.078   .     S
C1036  C1033   1.383   1_556 S
C1037  H1139   1.078   .     S
C1037  C1032   1.383   1_554 S
C1038  H1140   1.078   .     S
C1038  C1035   1.383   1_556 S
C1040  H1141   1.078   .     S
C1040  C1034   1.383   1_554 S
C1041  O1316   1.278   .     S
C1042  O1313   1.278   .     S
C1043  O1711   1.278   1_455 A
C1043  O1314   1.278   .     S
C1044  O1268   1.278   .     A
C1044  O1759   1.278   1_455 S
C1045  O1269   1.278   .     S
C1045  O1273   1.278   .     S
C1046  O1270   1.278   .     A
C1046  O1274   1.278   .     S
C1047  O1275   1.278   .     A
C1047  O1271   1.278   .     A
C1048  O1272   1.278   .     S
C1048  O1277   1.278   .     S
C1049  O1306   1.280   .     A
C1049  O1278   1.280   .     A
C1050  C1102   1.414   .     A
C1050  C1411   1.419   .     S
C1051  O1307   1.280   .     A
C1051  O1279   1.280   .     A
C1052  O1280   1.280   .     A
C1052  O1304   1.280   .     A
C1053  O1281   1.280   .     A
C1053  O1305   1.280   .     A
C1054  O1311   1.280   .     A
C1054  O1282   1.280   .     A
C1055  O1312   1.280   .     A
C1055  O1283   1.280   .     A
C1056  O1284   1.280   .     A
C1056  O1308   1.280   .     A
C1057  O1310   1.280   .     A
C1057  O1285   1.280   .     A
C1058  O1286   1.280   .     A
C1058  O1297   1.280   .     A
C1059  O1299   1.280   .     A
C1059  O1288   1.280   .     A
C1060  O1295   1.280   .     A
C1060  O1289   1.280   .     A
C1061  C1103   1.414   .     A
C1062  O1290   1.280   .     A
C1062  O1296   1.280   .     A
C1063  O1291   1.280   .     A
C1063  O1302   1.280   .     A
C1064  O1303   1.280   .     A
C1064  O1292   1.280   .     A
C1065  O1300   1.280   .     A
C1065  O1293   1.280   .     A
C1066  O1301   1.280   .     A
C1066  O1294   1.280   .     A
C1067  C1084   1.399   .     A
C1068  C1082   1.399   .     A
C1069  C1081   1.400   .     A
C1070  C1080   1.400   .     A
C1071  C1079   1.399   .     A
C1072  C1104   1.414   .     A
C1073  C1078   1.399   .     A
C1074  C1077   1.400   .     A
C1075  C1076   1.400   .     A
C1083  C113    1.419   1_565 A
C1085  C1101   1.399   .     A
C1086  C1100   1.399   .     A
C1087  C1099   1.400   .     A
C1088  C1098   1.400   .     A
C1089  C1097   1.399   .     A
C1090  C1096   1.399   .     A
C1091  C1095   1.400   .     A
C1092  C1093   1.400   .     A
C1102  C1366   1.416   .     S
H1146  C1412   1.107   .     S
H1147  C1412   1.112   .     S
H1153  C1415   1.112   1_455 S
H1154  C1415   1.107   1_455 S
H1169  C89     1.107   1_565 S
H1170  C89     1.112   1_565 S
H1176  C1425   1.107   1_455 S
H1177  C1425   1.112   1_455 S
H1184  C1428   1.112   .     S
H1185  C1428   1.107   .     S
H1192  C99     1.112   1_565 S
H1193  C99     1.107   1_565 S
O1265  Zn1320  1.949   .     S
O1265  Zn1317  1.949   .     S
O1265  Zn1328  1.949   .     S
O1266  Zn1319  1.953   .     S
O1266  C154    1.278   1_565 A
O1267  Zn1322  1.953   .     S
O1267  C1487   1.278   .     A
O1268  Zn1321  1.953   .     S
O1269  Zn1331  1.953   .     S
O1270  Zn1330  1.953   .     S
O1271  Zn1325  1.953   .     S
O1272  Zn1317  1.953   .     S
O1273  Zn1327  1.953   .     S
O1274  Zn1326  1.953   .     S
O1275  Zn1329  1.953   .     S
O1276  Zn1323  1.949   .     S
O1276  Zn1325  1.949   .     S
O1276  Zn1329  1.949   .     S
O1277  Zn1328  1.953   .     S
O1278  Zn1320  1.940   .     S
O1279  Zn1319  1.940   .     S
O1280  Zn1322  1.934   .     S
O1281  Zn1321  1.934   .     S
O1282  Zn1324  1.940   .     S
O1283  Zn1323  1.940   .     S
O1284  Zn1318  1.934   .     S
O1285  Zn1332  1.934   .     S
O1286  Zn1319  1.934   .     S
O1287  Zn1330  1.949   .     S
O1287  Zn1326  1.949   .     S
O1287  Zn1318  1.949   .     S
O1287  Zn1766  1.949   1_455 S
O1288  Zn1320  1.934   .     S
O1289  Zn1332  1.940   .     S
O1290  Zn1318  1.940   .     S
O1291  Zn1323  1.934   .     S
O1292  Zn1324  1.934   .     S
O1293  Zn1321  1.940   .     S
O1294  Zn1322  1.940   .     S
O1295  Zn1771  1.940   .     S
O1296  Zn1326  1.940   .     S
O1297  Zn441   1.934   1_565 S
O1298  Zn1321  1.949   .     S
O1298  Zn1327  1.949   .     S
O1298  Zn1331  1.949   .     S
O1298  Zn1776  1.949   1_455 S
O1299  Zn1328  1.934   .     S
O1300  Zn1331  1.940   .     S
O1301  Zn1774  1.940   .     S
O1302  Zn1325  1.934   .     S
O1303  Zn429   1.934   1_565 S
O1304  Zn1770  1.934   .     S
O1305  Zn1327  1.934   .     S
O1306  Zn1317  1.940   .     S
O1307  Zn437   1.940   1_565 S
O1308  Zn1330  1.934   .     S
O1309  C153    1.278   1_565 A
O1309  Zn1324  1.953   .     S
O1310  Zn1775  1.934   .     S
O1311  Zn440   1.940   1_565 S
O1312  Zn1329  1.940   .     S
O1313  Zn1323  1.953   .     S
O1314  Zn1318  1.953   .     S
O1315  Zn1332  1.953   .     S
O1315  C1488   1.278   .     S
O1316  Zn1320  1.953   .     S
Zn1319 O388    1.949   1_565 S
Zn1322 O1731   1.949   .     S
Zn1324 O377    1.949   1_565 S
Zn1326 O1748   1.934   1_455 S
Zn1327 O1739   1.940   1_455 S
Zn1330 O1745   1.940   1_455 S
Zn1331 O1754   1.934   1_455 S
Zn1332 O1742   1.949   .     S
C1333  C1411   1.419   .     A
C1333  C1410   1.539   .     S
C1333  C1336   1.414   .     A
C1334  C1440   1.539   .     S
C1334  C1346   1.414   .     A
C1334  C576    1.419   1_565 A
C1335  C1527   1.414   .     A
C1335  C1370   1.416   .     A
C1335  C1470   1.404   .     A
C1336  C1471   1.404   .     A
C1336  C1366   1.416   .     A
C1337  C1444   1.414   .     A
C1337  C1473   1.404   .     A
C1337  C924    1.416   1_655 S
C1338  C1474   1.404   .     A
C1338  C1472   1.414   .     A
C1338  C1369   1.416   .     A
C1339  C1475   1.404   .     A
C1339  C1483   1.414   .     A
C1340  C1367   1.414   .     A
C1340  C483    1.416   1_565 A
C1340  C1476   1.404   .     A
C1341  C1378   1.414   .     A
C1341  C1477   1.404   .     A
C1341  C1372   1.416   .     S
C1342  C1373   1.416   .     A
C1342  C1478   1.404   .     A
C1342  C1389   1.414   .     A
C1343  C1400   1.414   .     A
C1343  C1479   1.404   .     A
C1343  C930    1.416   1_655 S
C1344  C1480   1.404   .     A
C1344  C1538   1.414   .     A
C1344  C1371   1.416   .     S
C1345  C1443   1.539   .     S
C1345  C1347   1.414   .     A
C1345  C1021   1.419   1_655 S
C1346  C1481   1.404   .     A
C1346  C484    1.416   1_565 A
C1347  C1482   1.404   .     A
C1347  C929    1.416   1_655 S
C1348  C1484   1.404   .     A
C1348  C1356   1.414   .     A
C1348  C1374   1.416   .     A
C1349  C1500   1.455   .     S
C1349  C1528   1.410   .     A
C1349  C1530   1.410   .     A
C1350  C1529   1.410   .     A
C1350  C1526   1.410   .     A
C1350  C1501   1.455   .     S
C1351  C1532   1.411   .     A
C1351  C1493   1.459   .     S
C1351  C1525   1.411   .     A
C1352  C1495   1.459   .     S
C1352  C1524   1.411   .     A
C1352  C1531   1.411   .     A
C1353  C1523   1.410   .     A
C1353  C1496   1.455   .     S
C1353  C1534   1.410   .     A
C1354  C1533   1.410   .     A
C1354  C1522   1.410   .     A
C1354  C1497   1.455   .     S
C1355  C1536   1.411   .     A
C1355  C1498   1.459   .     S
C1355  C1521   1.411   .     A
C1356  C1466   1.419   .     A
C1356  C1448   1.539   .     S
C1357  C1535   1.411   .     A
C1357  C1499   1.459   .     S
C1357  C1520   1.411   .     A
C1358  C1509   1.459   .     S
C1358  C1539   1.411   .     A
C1358  C1519   1.411   .     A
C1359  C1537   1.411   .     A
C1359  C1510   1.459   .     S
C1359  C1518   1.411   .     A
C1360  C1502   1.455   .     S
C1360  C1541   1.410   .     A
C1360  C1517   1.410   .     A
C1361  C1540   1.410   .     A
C1361  C1503   1.455   .     S
C1361  C1515   1.410   .     A
C1362  C1514   1.411   .     A
C1362  C1543   1.411   .     A
C1362  C1504   1.459   .     S
C1363  C1513   1.411   .     A
C1363  C1542   1.411   .     A
C1363  C1506   1.459   .     S
C1364  C1507   1.455   .     S
C1364  C1512   1.410   .     A
C1364  C1545   1.410   .     A
C1365  C1511   1.410   .     A
C1365  C1544   1.410   .     A
C1365  C1508   1.455   .     S
C1366  C1368   1.421   .     A
C1367  C568    1.419   1_565 A
C1367  C1451   1.539   .     S
C1368  C1547   1.416   .     A
C1369  C1370   1.421   .     A
C1369  C660    1.416   1_565 S
C1370  C451    1.416   1_565 S
C1371  C1372   1.421   1_556 S
C1372  C1371   1.421   1_554 S
C1373  C1374   1.421   1_556 S
C1374  C1373   1.421   1_554 S
C1375  C1511   1.454   .     S
C1375  N1677   1.157   .     T
C1376  N1688   1.157   .     T
C1376  C1512   1.453   .     S
C1377  N1699   1.157   .     T
C1377  C1513   1.453   .     S
C1378  C1454   1.539   .     S
C1378  C1464   1.419   .     S
C1379  N1703   1.157   .     T
C1379  C1514   1.453   .     S
C1380  N1704   1.157   .     T
C1380  C1515   1.454   .     S
C1381  C1517   1.454   .     S
C1381  N1705   1.157   .     T
C1382  C1518   1.453   .     S
C1382  N1706   1.157   .     T
C1383  N1707   1.157   .     T
C1383  C1519   1.453   .     S
C1384  N1708   1.157   .     T
C1384  C1520   1.453   .     S
C1385  N1678   1.157   .     T
C1385  C1521   1.453   .     S
C1386  N1679   1.157   .     T
C1386  C1522   1.454   .     S
C1387  C1523   1.453   .     S
C1387  N1680   1.157   .     T
C1388  N1681   1.157   .     T
C1388  C1524   1.453   .     S
C1389  C1465   1.419   .     A
C1389  C1458   1.539   .     S
C1390  C1525   1.453   .     S
C1390  N1682   1.157   .     T
C1391  N1683   1.157   .     T
C1391  C1526   1.453   .     S
C1392  N1684   1.157   .     T
C1392  C1528   1.453   .     S
C1393  N1685   1.157   .     T
C1393  C1529   1.454   .     S
C1394  N1686   1.157   .     T
C1394  C1530   1.454   .     S
C1395  N1687   1.157   .     T
C1395  C1531   1.453   .     S
C1396  C1532   1.453   .     S
C1396  N1689   1.157   .     T
C1397  N1690   1.157   .     T
C1397  C1533   1.454   .     S
C1398  C1534   1.454   .     S
C1398  N1691   1.157   .     T
C1399  N1692   1.157   .     T
C1399  C1535   1.453   .     S
C1400  C1461   1.539   .     S
C1400  C1022   1.419   1_655 S
C1401  C1536   1.453   .     S
C1401  N1693   1.157   .     T
C1402  C1537   1.453   .     S
C1402  N1694   1.157   .     T
C1403  C1539   1.453   .     S
C1403  N1695   1.157   .     T
C1404  C1540   1.453   .     S
C1404  N1696   1.157   .     T
C1405  C1541   1.453   .     S
C1405  N1697   1.158   .     T
C1406  C1542   1.453   .     S
C1406  N1698   1.157   .     T
C1407  C1543   1.453   .     S
C1407  N1700   1.157   .     T
C1408  C1544   1.453   .     S
C1408  N1701   1.157   .     T
C1409  N1702   1.157   .     T
C1409  C1545   1.454   .     S
C1410  C1412   1.538   .     S
C1410  H1593   1.108   .     S
C1410  H1592   1.102   .     S
C1411  C1487   1.461   .     S
C1412  C1413   1.527   .     S
C1413  H1587   1.111   .     S
C1413  H1586   1.111   .     S
C1413  H1588   1.110   .     S
C1414  H1599   1.108   .     S
C1414  H1601   1.102   .     S
C1414  C1444   1.539   .     S
C1414  C1415   1.538   .     S
C1415  C1416   1.527   .     S
C1415  H1153   1.112   1_655 S
C1415  H1154   1.107   1_655 S
C1416  H1596   1.111   .     S
C1416  H1594   1.111   .     S
C1416  H1595   1.111   .     S
C1417  H1608   1.102   .     S
C1417  C1418   1.538   .     S
C1417  C1472   1.539   .     S
C1417  H1607   1.108   .     S
C1418  C1419   1.527   .     S
C1418  H717    1.112   1_565 S
C1418  H718    1.107   1_565 S
C1419  H1604   1.110   .     S
C1419  H1602   1.111   .     S
C1419  H1603   1.111   .     S
C1420  C1421   1.538   .     S
C1420  H1616   1.108   .     S
C1420  C1483   1.539   .     S
C1420  H1615   1.102   .     S
C1421  C1423   1.527   .     S
C1422  C1488   1.461   .     S
C1422  C1505   1.419   .     A
C1423  H1610   1.111   .     S
C1423  H1609   1.111   .     S
C1423  H1612   1.110   .     S
C1424  H1624   1.108   .     S
C1424  C1494   1.539   .     S
C1424  C1425   1.538   .     S
C1424  H1623   1.102   .     S
C1425  C1426   1.527   .     S
C1425  H1176   1.107   1_655 S
C1425  H1177   1.112   1_655 S
C1426  H1619   1.111   .     S
C1426  H1617   1.111   .     S
C1426  H1618   1.111   .     S
C1427  C1505   1.539   .     S
C1427  H1630   1.108   .     S
C1427  C1428   1.538   .     S
C1427  H1631   1.102   .     S
C1428  C1429   1.527   .     S
C1429  H1625   1.111   .     S
C1429  H1626   1.111   .     S
C1429  H1627   1.110   .     S
C1430  H1639   1.102   .     S
C1430  C1431   1.538   .     S
C1430  C1516   1.539   .     S
C1430  H1638   1.108   .     S
C1431  C1432   1.527   .     S
C1432  H1635   1.111   .     S
C1432  H1634   1.111   .     S
C1432  H1632   1.112   .     S
C1433  C1472   1.419   .     A
C1433  C597    1.461   1_565 S
C1433  C628    1.419   1_565 S
C1434  H1646   1.102   .     S
C1434  C1435   1.538   .     S
C1434  C1527   1.539   .     S
C1434  H1647   1.108   .     S
C1435  C1436   1.527   .     S
C1435  H755    1.107   1_565 S
C1435  H757    1.112   1_565 S
C1436  H1642   1.111   .     S
C1436  H1640   1.111   .     S
C1436  H1641   1.111   .     S
C1437  H1654   1.108   .     S
C1437  C1538   1.539   .     S
C1437  H1653   1.102   .     S
C1437  C1438   1.538   .     S
C1438  C1439   1.527   .     S
C1438  H1652   1.112   .     S
C1438  H1651   1.107   .     S
C1439  H1649   1.111   .     S
C1439  H1650   1.110   .     S
C1439  H1648   1.111   .     S
C1440  C1441   1.538   .     S
C1440  H1662   1.102   .     S
C1440  H1661   1.108   .     S
C1441  H1660   1.107   .     S
C1441  C1442   1.527   .     S
C1441  H1659   1.112   .     S
C1442  H1658   1.111   .     S
C1442  H1656   1.111   .     S
C1442  H1657   1.111   .     S
C1443  H1669   1.108   .     S
C1443  H1670   1.102   .     S
C1443  C1446   1.538   .     S
C1444  C978    1.419   1_655 S
C1445  C1486   1.461   .     S
C1445  C1483   1.419   .     S
C1446  C1447   1.527   .     S
C1446  H1667   1.112   .     S
C1446  H1668   1.107   .     S
C1447  H1665   1.111   .     S
C1447  H1664   1.111   .     S
C1447  H1663   1.111   .     S
C1448  H1676   1.102   .     S
C1448  C1449   1.538   .     S
C1448  H1551   1.108   .     S
C1449  H1675   1.112   .     S
C1449  C1450   1.527   .     S
C1449  H1674   1.107   .     S
C1450  H1672   1.111   .     S
C1450  H1671   1.111   .     S
C1450  H1673   1.111   .     S
C1451  H1558   1.108   .     S
C1451  C1452   1.538   .     S
C1451  H1557   1.102   .     S
C1452  H1556   1.112   .     S
C1452  C1453   1.527   .     S
C1452  H1555   1.107   .     S
C1453  H1552   1.111   .     S
C1453  H1554   1.110   .     S
C1453  H1553   1.111   .     S
C1454  H1566   1.102   .     S
C1454  H1565   1.108   .     S
C1454  C1455   1.538   .     S
C1455  H1564   1.107   .     S
C1455  C1457   1.527   .     S
C1455  H1563   1.112   .     S
C1456  C1491   1.461   .     S
C1456  C1538   1.419   .     S
C1457  H1560   1.111   .     S
C1457  H1559   1.111   .     S
C1457  H1562   1.110   .     S
C1458  C1459   1.538   .     S
C1458  H1574   1.102   .     S
C1458  H1573   1.108   .     S
C1459  H1570   1.112   .     S
C1459  H1571   1.107   .     S
C1459  C1460   1.527   .     S
C1460  H1568   1.111   .     S
C1460  H1569   1.111   .     S
C1460  H1567   1.111   .     S
C1461  H1581   1.108   .     S
C1461  C1462   1.538   .     S
C1461  H1580   1.102   .     S
C1462  H1579   1.112   .     S
C1462  C1463   1.527   .     S
C1462  H1578   1.107   .     S
C1463  H1576   1.111   .     S
C1463  H1577   1.111   .     S
C1463  H1575   1.111   .     S
C1464  C1492   1.461   .     S
C1465  C1489   1.461   .     S
C1466  C1490   1.461   .     S
C1467  H1549   1.078   .     S
C1467  C1473   1.383   .     A
C1467  C1546   1.404   .     A
C1468  H1589   1.078   .     S
C1468  C1547   1.404   .     A
C1468  C1471   1.383   .     A
C1469  C1548   1.404   .     A
C1469  C1475   1.383   .     A
C1469  H1600   1.078   .     S
C1470  C1474   1.383   .     A
C1470  H1611   1.078   .     S
C1471  H1622   1.078   .     S
C1473  H1633   1.078   .     S
C1474  H1644   1.078   .     S
C1475  H1655   1.078   .     S
C1476  H1666   1.078   .     S
C1476  C1481   1.383   1_556 S
C1477  H1550   1.078   .     S
C1477  C1480   1.383   1_554 S
C1478  H1561   1.078   .     S
C1478  C1484   1.383   1_556 S
C1479  H1572   1.078   .     S
C1479  C1482   1.383   1_554 S
C1480  H1582   1.078   .     S
C1480  C1477   1.383   1_556 S
C1481  H1583   1.078   .     S
C1481  C1476   1.383   1_554 S
C1482  H1584   1.078   .     S
C1482  C1479   1.383   1_556 S
C1484  H1585   1.078   .     S
C1484  C1478   1.383   1_554 S
C1485  O1760   1.278   .     S
C1486  O1757   1.278   .     S
C1487  O1758   1.278   .     S
C1488  O1712   1.278   .     A
C1489  O1713   1.278   .     S
C1489  O1717   1.278   .     S
C1490  O1714   1.278   .     A
C1490  O1718   1.278   .     S
C1491  O1719   1.278   .     A
C1491  O1715   1.278   .     A
C1492  O1716   1.278   .     S
C1492  O1721   1.278   .     S
C1493  O1750   1.280   .     A
C1493  O1722   1.280   .     A
C1494  C1546   1.414   .     A
C1494  C967    1.419   1_655 S
C1495  O1751   1.280   .     A
C1495  O1723   1.280   .     A
C1496  O1724   1.280   .     A
C1496  O1748   1.280   .     A
C1497  O1725   1.280   .     A
C1497  O1749   1.280   .     A
C1498  O1755   1.280   .     A
C1498  O1726   1.280   .     A
C1499  O1756   1.280   .     A
C1499  O1727   1.280   .     A
C1500  O1728   1.280   .     A
C1500  O1752   1.280   .     A
C1501  O1754   1.280   .     A
C1501  O1729   1.280   .     A
C1502  O1730   1.280   .     A
C1502  O1741   1.280   .     A
C1503  O1743   1.280   .     A
C1503  O1732   1.280   .     A
C1504  O1739   1.280   .     A
C1504  O1733   1.280   .     A
C1505  C1547   1.414   .     A
C1506  O1734   1.280   .     A
C1506  O1740   1.280   .     A
C1507  O1735   1.280   .     A
C1507  O1746   1.280   .     A
C1508  O1747   1.280   .     A
C1508  O1736   1.280   .     A
C1509  O1744   1.280   .     A
C1509  O1737   1.280   .     A
C1510  O1745   1.280   .     A
C1510  O1738   1.280   .     A
C1511  C1528   1.399   .     A
C1512  C1526   1.399   .     A
C1513  C1525   1.400   .     A
C1514  C1524   1.400   .     A
C1515  C1523   1.399   .     A
C1516  C1548   1.414   .     A
C1517  C1522   1.399   .     A
C1518  C1521   1.400   .     A
C1519  C1520   1.400   .     A
C1527  C557    1.419   1_565 A
C1529  C1545   1.399   .     A
C1530  C1544   1.399   .     A
C1531  C1543   1.400   .     A
C1532  C1542   1.400   .     A
C1533  C1541   1.399   .     A
C1534  C1540   1.399   .     A
C1535  C1539   1.400   .     A
C1536  C1537   1.400   .     A
C1546  C922    1.416   1_655 S
H1590  C968    1.107   1_655 S
H1591  C968    1.112   1_655 S
H1613  C533    1.107   1_565 S
H1614  C533    1.112   1_565 S
H1628  C984    1.112   1_655 S
H1629  C984    1.107   1_655 S
H1636  C543    1.112   1_565 S
H1637  C543    1.107   1_565 S
O1709  Zn1764  1.949   .     S
O1709  Zn1761  1.949   .     S
O1709  Zn1772  1.949   .     S
O1710  Zn1763  1.953   .     S
O1710  C598    1.278   1_565 A
O1711  Zn1766  1.953   .     S
O1711  C1043   1.278   1_655 A
O1712  Zn1765  1.953   .     S
O1713  Zn1775  1.953   .     S
O1714  Zn1774  1.953   .     S
O1715  Zn1769  1.953   .     S
O1716  Zn1761  1.953   .     S
O1717  Zn1771  1.953   .     S
O1718  Zn1770  1.953   .     S
O1719  Zn1773  1.953   .     S
O1720  Zn1767  1.949   .     S
O1720  Zn1769  1.949   .     S
O1720  Zn1773  1.949   .     S
O1721  Zn1772  1.953   .     S
O1722  Zn1764  1.940   .     S
O1723  Zn1763  1.940   .     S
O1724  Zn1766  1.934   .     S
O1725  Zn1765  1.934   .     S
O1726  Zn1768  1.940   .     S
O1727  Zn1767  1.940   .     S
O1728  Zn1762  1.934   .     S
O1729  Zn1776  1.934   .     S
O1730  Zn1763  1.934   .     S
O1731  Zn1774  1.949   .     S
O1731  Zn1770  1.949   .     S
O1731  Zn1762  1.949   .     S
O1732  Zn1764  1.934   .     S
O1733  Zn1776  1.940   .     S
O1734  Zn1762  1.940   .     S
O1735  Zn1767  1.934   .     S
O1736  Zn1768  1.934   .     S
O1737  Zn1765  1.940   .     S
O1738  Zn1766  1.940   .     S
O1739  Zn1327  1.940   1_655 S
O1740  Zn1770  1.940   .     S
O1741  Zn885   1.934   1_565 S
O1742  Zn1765  1.949   .     S
O1742  Zn1771  1.949   .     S
O1742  Zn1775  1.949   .     S
O1743  Zn1772  1.934   .     S
O1744  Zn1775  1.940   .     S
O1745  Zn1330  1.940   1_655 S
O1746  Zn1769  1.934   .     S
O1747  Zn873   1.934   1_565 S
O1748  Zn1326  1.934   1_655 S
O1749  Zn1771  1.934   .     S
O1750  Zn1761  1.940   .     S
O1751  Zn881   1.940   1_565 S
O1752  Zn1774  1.934   .     S
O1753  C597    1.278   1_565 A
O1753  Zn1768  1.953   .     S
O1754  Zn1331  1.934   1_655 S
O1755  Zn884   1.940   1_565 S
O1756  Zn1773  1.940   .     S
O1757  Zn1767  1.953   .     S
O1758  Zn1762  1.953   .     S
O1759  Zn1776  1.953   .     S
O1759  C1044   1.278   1_655 S
O1760  Zn1764  1.953   .     S
Zn1763 O832    1.949   1_565 S
Zn1766 O1287   1.949   1_655 S
Zn1768 O821    1.949   1_565 S
Zn1776 O1298   1.949   1_655 S
