data_str_m3_o1_o18_pcu_sym.180
_audit_creation_date              2020-01-03
_audit_creation_method            'Materials Studio'
_symmetry_space_group_name_H-M    'P1'
_symmetry_Int_Tables_number       1
_symmetry_cell_setting            triclinic
loop_
_symmetry_equiv_pos_as_xyz
  x,y,z
_cell_length_a                    29.6958
_cell_length_b                    32.1303
_cell_length_c                    30.5621
_cell_angle_alpha                 90.4960
_cell_angle_beta                  67.4645
_cell_angle_gamma                 89.5937
loop_
_atom_site_label
_atom_site_type_symbol
_atom_site_fract_x
_atom_site_fract_y
_atom_site_fract_z
_atom_site_U_iso_or_equiv
_atom_site_adp_type
_atom_site_occupancy
C1     C     0.16651   0.24665   0.25018   0.00000  Uiso   1.00
C2     C     0.16682   0.08668   0.24984   0.00000  Uiso   1.00
C3     C     0.12602   0.10613   0.04181   0.00000  Uiso   1.00
C4     C     0.23363   0.14446   0.44068   0.00000  Uiso   1.00
C5     C     0.09122   0.10367   0.02151   0.00000  Uiso   1.00
C6     C     0.26601   0.15351   0.46230   0.00000  Uiso   1.00
C7     C     0.20247   0.31187   0.26030   0.00000  Uiso   1.00
C8     C     0.13084   0.02147   0.23974   0.00000  Uiso   1.00
C9     C     0.20275   0.02117   0.25997   0.00000  Uiso   1.00
C10    C     0.13055   0.31217   0.24009   0.00000  Uiso   1.00
C11    C     0.16691   0.04251   0.24974   0.00000  Uiso   1.00
C12    C     0.16640   0.29084   0.25030   0.00000  Uiso   1.00
C13    C     0.32360   0.14496   0.21589   0.00000  Uiso   1.00
C14    C     0.00965   0.18797   0.28443   0.00000  Uiso   1.00
C15    C     0.03790   0.14518   0.21627   0.00000  Uiso   1.00
C16    C     0.29542   0.18805   0.28383   0.00000  Uiso   1.00
C17    C     0.13615   0.16597   0.33844   0.00000  Uiso   1.00
C18    C     0.19724   0.16619   0.16158   0.00000  Uiso   1.00
C19    C     0.11839   0.15700   0.38910   0.00000  Uiso   1.00
C20    C     0.21674   0.16174   0.10997   0.00000  Uiso   1.00
C21    C     0.06446   0.11985   0.45752   0.00000  Uiso   1.00
C22    C     0.28175   0.16787   0.03292   0.00000  Uiso   1.00
C23    C     0.07430   0.13655   0.41270   0.00000  Uiso   1.00
C24    C     0.26510   0.17144   0.08206   0.00000  Uiso   1.00
C25    C     0.15174   0.16091   0.41086   0.00000  Uiso   1.00
C26    C     0.18586   0.14706   0.08855   0.00000  Uiso   1.00
C27    C     0.14588   0.13898   0.45182   0.00000  Uiso   1.00
C28    C     0.20252   0.14097   0.03952   0.00000  Uiso   1.00
C29    C     0.10010   0.12101   0.47733   0.00000  Uiso   1.00
C30    C     0.25042   0.15385   0.01144   0.00000  Uiso   1.00
C31    C     0.18366   0.13674   0.46921   0.00000  Uiso   1.00
C32    C     0.17084   0.12725   0.01752   0.00000  Uiso   1.00
H33    H     0.05715   0.08799   0.04043   0.00000  Uiso   1.00
H34    H     0.30322   0.16133   0.44046   0.00000  Uiso   1.00
H35    H     0.14794   0.14225   0.11041   0.00000  Uiso   1.00
H36    H     0.18369   0.17977   0.39413   0.00000  Uiso   1.00
H37    H     0.28935   0.18333   0.09798   0.00000  Uiso   1.00
H38    H     0.04858   0.13213   0.39585   0.00000  Uiso   1.00
H39    H     0.02993   0.10469   0.47582   0.00000  Uiso   1.00
H40    H     0.31860   0.17729   0.01170   0.00000  Uiso   1.00
H41    H     0.23019   0.29552   0.26860   0.00000  Uiso   1.00
H42    H     0.10313   0.03783   0.23142   0.00000  Uiso   1.00
H43    H     0.23060   0.03730   0.26807   0.00000  Uiso   1.00
H44    H     0.10269   0.29605   0.23200   0.00000  Uiso   1.00
H45    H     0.06736   0.12821   0.18940   0.00000  Uiso   1.00
H46    H     0.26592   0.20485   0.31084   0.00000  Uiso   1.00
N47    N     0.04759   0.16668   0.25001   0.00000  Uiso   1.00
N48    N     0.28574   0.16666   0.24999   0.00000  Uiso   1.00
O49    O     0.12846   0.22775   0.25000   0.00000  Uiso   1.00
O50    O     0.20488   0.10558   0.24999   0.00000  Uiso   1.00
O51    O     0.20490   0.22774   0.25000   0.00000  Uiso   1.00
O52    O     0.12843   0.10559   0.25000   0.00000  Uiso   1.00
O53    O     0.10661   0.16667   0.31612   0.00000  Uiso   1.00
O54    O     0.22672   0.16666   0.18387   0.00000  Uiso   1.00
O55    O     0.18305   0.16666   0.31612   0.00000  Uiso   1.00
O56    O     0.15028   0.16667   0.18388   0.00000  Uiso   1.00
Zn57   Zn    0.11562   0.16667   0.25000   0.00000  Uiso   1.00
Zn58   Zn    0.21771   0.16666   0.25000   0.00000  Uiso   1.00
O59    O     0.11664   0.08425   0.08294   0.00000  Uiso   1.00
H60    H     0.14825   0.07478   0.08351   0.00000  Uiso   1.00
O61    O     0.25305   0.14048   0.39197   0.00000  Uiso   1.00
H62    H     0.23344   0.11990   0.38280   0.00000  Uiso   1.00
C63    C     0.31627   0.12131   0.17662   0.00000  Uiso   1.00
H64    H     0.01550   0.10205   0.15591   0.00000  Uiso   1.00
H65    H     0.28538   0.09977   0.19068   0.00000  Uiso   1.00
H66    H     0.31077   0.14340   0.15159   0.00000  Uiso   1.00
C67    C     0.01677   0.21042   0.32453   0.00000  Uiso   1.00
H68    H     0.31765   0.22973   0.34542   0.00000  Uiso   1.00
H69    H     0.02173   0.18751   0.34921   0.00000  Uiso   1.00
H70    H     0.04802   0.23170   0.31124   0.00000  Uiso   1.00
C71    C     0.49984   0.24665   0.25018   0.00000  Uiso   1.00
C72    C     0.50015   0.08668   0.24984   0.00000  Uiso   1.00
C73    C     0.45935   0.10613   0.04181   0.00000  Uiso   1.00
C74    C     0.56696   0.14446   0.44068   0.00000  Uiso   1.00
C75    C     0.42455   0.10367   0.02151   0.00000  Uiso   1.00
C76    C     0.59934   0.15351   0.46230   0.00000  Uiso   1.00
C77    C     0.53580   0.31187   0.26030   0.00000  Uiso   1.00
C78    C     0.46417   0.02147   0.23974   0.00000  Uiso   1.00
C79    C     0.53608   0.02117   0.25997   0.00000  Uiso   1.00
C80    C     0.46389   0.31217   0.24009   0.00000  Uiso   1.00
C81    C     0.50024   0.04251   0.24974   0.00000  Uiso   1.00
C82    C     0.49974   0.29084   0.25030   0.00000  Uiso   1.00
C83    C     0.65693   0.14496   0.21589   0.00000  Uiso   1.00
C84    C     0.34298   0.18797   0.28443   0.00000  Uiso   1.00
C85    C     0.37123   0.14518   0.21627   0.00000  Uiso   1.00
C86    C     0.62875   0.18805   0.28383   0.00000  Uiso   1.00
C87    C     0.46949   0.16597   0.33844   0.00000  Uiso   1.00
C88    C     0.53058   0.16619   0.16158   0.00000  Uiso   1.00
C89    C     0.45172   0.15700   0.38910   0.00000  Uiso   1.00
C90    C     0.55008   0.16174   0.10997   0.00000  Uiso   1.00
C91    C     0.39780   0.11985   0.45752   0.00000  Uiso   1.00
C92    C     0.61509   0.16787   0.03292   0.00000  Uiso   1.00
C93    C     0.40764   0.13655   0.41270   0.00000  Uiso   1.00
C94    C     0.59844   0.17144   0.08206   0.00000  Uiso   1.00
C95    C     0.48507   0.16091   0.41086   0.00000  Uiso   1.00
C96    C     0.51919   0.14706   0.08855   0.00000  Uiso   1.00
C97    C     0.47921   0.13898   0.45182   0.00000  Uiso   1.00
C98    C     0.53586   0.14097   0.03952   0.00000  Uiso   1.00
C99    C     0.43343   0.12101   0.47733   0.00000  Uiso   1.00
C100   C     0.58375   0.15385   0.01144   0.00000  Uiso   1.00
C101   C     0.51699   0.13674   0.46921   0.00000  Uiso   1.00
C102   C     0.50418   0.12725   0.01752   0.00000  Uiso   1.00
H103   H     0.39048   0.08799   0.04043   0.00000  Uiso   1.00
H104   H     0.63656   0.16133   0.44046   0.00000  Uiso   1.00
H105   H     0.48127   0.14225   0.11041   0.00000  Uiso   1.00
H106   H     0.51702   0.17977   0.39413   0.00000  Uiso   1.00
H107   H     0.62269   0.18333   0.09798   0.00000  Uiso   1.00
H108   H     0.38191   0.13213   0.39585   0.00000  Uiso   1.00
H109   H     0.36326   0.10469   0.47582   0.00000  Uiso   1.00
H110   H     0.65193   0.17729   0.01170   0.00000  Uiso   1.00
H111   H     0.56353   0.29552   0.26860   0.00000  Uiso   1.00
H112   H     0.43646   0.03783   0.23142   0.00000  Uiso   1.00
H113   H     0.56393   0.03730   0.26807   0.00000  Uiso   1.00
H114   H     0.43603   0.29605   0.23200   0.00000  Uiso   1.00
H115   H     0.40070   0.12821   0.18940   0.00000  Uiso   1.00
H116   H     0.59926   0.20485   0.31084   0.00000  Uiso   1.00
N117   N     0.38093   0.16668   0.25001   0.00000  Uiso   1.00
N118   N     0.61907   0.16666   0.24999   0.00000  Uiso   1.00
O119   O     0.46179   0.22775   0.25000   0.00000  Uiso   1.00
O120   O     0.53821   0.10558   0.24999   0.00000  Uiso   1.00
O121   O     0.53823   0.22774   0.25000   0.00000  Uiso   1.00
O122   O     0.46177   0.10559   0.25000   0.00000  Uiso   1.00
O123   O     0.43994   0.16667   0.31612   0.00000  Uiso   1.00
O124   O     0.56006   0.16666   0.18387   0.00000  Uiso   1.00
O125   O     0.51639   0.16666   0.31612   0.00000  Uiso   1.00
O126   O     0.48361   0.16667   0.18388   0.00000  Uiso   1.00
Zn127  Zn    0.44896   0.16667   0.25000   0.00000  Uiso   1.00
Zn128  Zn    0.55104   0.16666   0.25000   0.00000  Uiso   1.00
O129   O     0.44997   0.08425   0.08294   0.00000  Uiso   1.00
H130   H     0.48158   0.07478   0.08351   0.00000  Uiso   1.00
O131   O     0.58638   0.14048   0.39197   0.00000  Uiso   1.00
H132   H     0.56678   0.11990   0.38280   0.00000  Uiso   1.00
C133   C     0.64960   0.12131   0.17662   0.00000  Uiso   1.00
H134   H     0.34884   0.10205   0.15591   0.00000  Uiso   1.00
H135   H     0.61871   0.09977   0.19068   0.00000  Uiso   1.00
H136   H     0.64410   0.14340   0.15159   0.00000  Uiso   1.00
C137   C     0.35010   0.21042   0.32453   0.00000  Uiso   1.00
H138   H     0.65099   0.22973   0.34542   0.00000  Uiso   1.00
H139   H     0.35506   0.18751   0.34921   0.00000  Uiso   1.00
H140   H     0.38135   0.23170   0.31124   0.00000  Uiso   1.00
C141   C     0.83318   0.24665   0.25018   0.00000  Uiso   1.00
C142   C     0.83348   0.08668   0.24984   0.00000  Uiso   1.00
C143   C     0.79269   0.10613   0.04181   0.00000  Uiso   1.00
C144   C     0.90029   0.14446   0.44068   0.00000  Uiso   1.00
C145   C     0.75789   0.10367   0.02151   0.00000  Uiso   1.00
C146   C     0.93267   0.15351   0.46230   0.00000  Uiso   1.00
C147   C     0.86914   0.31187   0.26030   0.00000  Uiso   1.00
C148   C     0.79751   0.02147   0.23974   0.00000  Uiso   1.00
C149   C     0.86942   0.02117   0.25997   0.00000  Uiso   1.00
C150   C     0.79722   0.31217   0.24009   0.00000  Uiso   1.00
C151   C     0.83357   0.04251   0.24974   0.00000  Uiso   1.00
C152   C     0.83307   0.29084   0.25030   0.00000  Uiso   1.00
C153   C     0.99026   0.14496   0.21589   0.00000  Uiso   1.00
C154   C     0.67632   0.18797   0.28443   0.00000  Uiso   1.00
C155   C     0.70457   0.14518   0.21627   0.00000  Uiso   1.00
C156   C     0.96208   0.18805   0.28383   0.00000  Uiso   1.00
C157   C     0.80282   0.16597   0.33844   0.00000  Uiso   1.00
C158   C     0.86391   0.16619   0.16158   0.00000  Uiso   1.00
C159   C     0.78506   0.15700   0.38910   0.00000  Uiso   1.00
C160   C     0.88341   0.16174   0.10997   0.00000  Uiso   1.00
C161   C     0.73113   0.11985   0.45752   0.00000  Uiso   1.00
C162   C     0.94842   0.16787   0.03292   0.00000  Uiso   1.00
C163   C     0.74097   0.13655   0.41270   0.00000  Uiso   1.00
C164   C     0.93177   0.17144   0.08206   0.00000  Uiso   1.00
C165   C     0.81840   0.16091   0.41086   0.00000  Uiso   1.00
C166   C     0.85252   0.14706   0.08855   0.00000  Uiso   1.00
C167   C     0.81255   0.13898   0.45182   0.00000  Uiso   1.00
C168   C     0.86919   0.14097   0.03952   0.00000  Uiso   1.00
C169   C     0.76677   0.12101   0.47733   0.00000  Uiso   1.00
C170   C     0.91708   0.15385   0.01144   0.00000  Uiso   1.00
C171   C     0.85032   0.13674   0.46921   0.00000  Uiso   1.00
C172   C     0.83751   0.12725   0.01752   0.00000  Uiso   1.00
H173   H     0.72381   0.08799   0.04043   0.00000  Uiso   1.00
H174   H     0.96989   0.16133   0.44046   0.00000  Uiso   1.00
H175   H     0.81461   0.14225   0.11041   0.00000  Uiso   1.00
H176   H     0.85035   0.17977   0.39413   0.00000  Uiso   1.00
H177   H     0.95602   0.18333   0.09798   0.00000  Uiso   1.00
H178   H     0.71524   0.13213   0.39585   0.00000  Uiso   1.00
H179   H     0.69660   0.10469   0.47582   0.00000  Uiso   1.00
H180   H     0.98527   0.17729   0.01170   0.00000  Uiso   1.00
H181   H     0.89686   0.29552   0.26860   0.00000  Uiso   1.00
H182   H     0.76980   0.03783   0.23142   0.00000  Uiso   1.00
H183   H     0.89727   0.03730   0.26807   0.00000  Uiso   1.00
H184   H     0.76936   0.29605   0.23200   0.00000  Uiso   1.00
H185   H     0.73403   0.12821   0.18940   0.00000  Uiso   1.00
H186   H     0.93259   0.20485   0.31084   0.00000  Uiso   1.00
N187   N     0.71426   0.16668   0.25001   0.00000  Uiso   1.00
N188   N     0.95241   0.16666   0.24999   0.00000  Uiso   1.00
O189   O     0.79512   0.22775   0.25000   0.00000  Uiso   1.00
O190   O     0.87154   0.10558   0.24999   0.00000  Uiso   1.00
O191   O     0.87157   0.22774   0.25000   0.00000  Uiso   1.00
O192   O     0.79510   0.10559   0.25000   0.00000  Uiso   1.00
O193   O     0.77328   0.16667   0.31612   0.00000  Uiso   1.00
O194   O     0.89339   0.16666   0.18387   0.00000  Uiso   1.00
O195   O     0.84972   0.16666   0.31612   0.00000  Uiso   1.00
O196   O     0.81695   0.16667   0.18388   0.00000  Uiso   1.00
Zn197  Zn    0.78229   0.16667   0.25000   0.00000  Uiso   1.00
Zn198  Zn    0.88438   0.16666   0.25000   0.00000  Uiso   1.00
O199   O     0.78330   0.08425   0.08294   0.00000  Uiso   1.00
H200   H     0.81492   0.07478   0.08351   0.00000  Uiso   1.00
O201   O     0.91972   0.14048   0.39197   0.00000  Uiso   1.00
H202   H     0.90011   0.11990   0.38280   0.00000  Uiso   1.00
C203   C     0.98293   0.12131   0.17662   0.00000  Uiso   1.00
H204   H     0.68217   0.10205   0.15591   0.00000  Uiso   1.00
H205   H     0.95204   0.09977   0.19068   0.00000  Uiso   1.00
H206   H     0.97744   0.14340   0.15159   0.00000  Uiso   1.00
C207   C     0.68344   0.21042   0.32453   0.00000  Uiso   1.00
H208   H     0.98432   0.22973   0.34542   0.00000  Uiso   1.00
H209   H     0.68839   0.18751   0.34921   0.00000  Uiso   1.00
H210   H     0.71469   0.23170   0.31124   0.00000  Uiso   1.00
C211   C     0.16651   0.57999   0.25018   0.00000  Uiso   1.00
C212   C     0.16682   0.42002   0.24984   0.00000  Uiso   1.00
C213   C     0.12602   0.43947   0.04181   0.00000  Uiso   1.00
C214   C     0.23363   0.47780   0.44068   0.00000  Uiso   1.00
C215   C     0.09122   0.43700   0.02151   0.00000  Uiso   1.00
C216   C     0.26601   0.48684   0.46230   0.00000  Uiso   1.00
C217   C     0.20247   0.64521   0.26030   0.00000  Uiso   1.00
C218   C     0.13084   0.35481   0.23974   0.00000  Uiso   1.00
C219   C     0.20275   0.35451   0.25997   0.00000  Uiso   1.00
C220   C     0.13055   0.64551   0.24009   0.00000  Uiso   1.00
C221   C     0.16691   0.37584   0.24974   0.00000  Uiso   1.00
C222   C     0.16640   0.62417   0.25030   0.00000  Uiso   1.00
C223   C     0.32360   0.47829   0.21589   0.00000  Uiso   1.00
C224   C     0.00965   0.52130   0.28443   0.00000  Uiso   1.00
C225   C     0.03790   0.47851   0.21627   0.00000  Uiso   1.00
C226   C     0.29542   0.52138   0.28383   0.00000  Uiso   1.00
C227   C     0.13615   0.49931   0.33844   0.00000  Uiso   1.00
C228   C     0.19724   0.49953   0.16158   0.00000  Uiso   1.00
C229   C     0.11839   0.49033   0.38910   0.00000  Uiso   1.00
C230   C     0.21674   0.49508   0.10997   0.00000  Uiso   1.00
C231   C     0.06446   0.45318   0.45752   0.00000  Uiso   1.00
C232   C     0.28175   0.50120   0.03292   0.00000  Uiso   1.00
C233   C     0.07430   0.46989   0.41270   0.00000  Uiso   1.00
C234   C     0.26510   0.50478   0.08206   0.00000  Uiso   1.00
C235   C     0.15174   0.49424   0.41086   0.00000  Uiso   1.00
C236   C     0.18586   0.48039   0.08855   0.00000  Uiso   1.00
C237   C     0.14588   0.47232   0.45182   0.00000  Uiso   1.00
C238   C     0.20252   0.47430   0.03952   0.00000  Uiso   1.00
C239   C     0.10010   0.45435   0.47733   0.00000  Uiso   1.00
C240   C     0.25042   0.48718   0.01144   0.00000  Uiso   1.00
C241   C     0.18366   0.47008   0.46921   0.00000  Uiso   1.00
C242   C     0.17084   0.46058   0.01752   0.00000  Uiso   1.00
H243   H     0.05715   0.42132   0.04043   0.00000  Uiso   1.00
H244   H     0.30322   0.49467   0.44046   0.00000  Uiso   1.00
H245   H     0.14794   0.47558   0.11041   0.00000  Uiso   1.00
H246   H     0.18369   0.51310   0.39413   0.00000  Uiso   1.00
H247   H     0.28935   0.51667   0.09798   0.00000  Uiso   1.00
H248   H     0.04858   0.46546   0.39585   0.00000  Uiso   1.00
H249   H     0.02993   0.43802   0.47582   0.00000  Uiso   1.00
H250   H     0.31860   0.51063   0.01170   0.00000  Uiso   1.00
H251   H     0.23019   0.62885   0.26860   0.00000  Uiso   1.00
H252   H     0.10313   0.37116   0.23142   0.00000  Uiso   1.00
H253   H     0.23060   0.37063   0.26807   0.00000  Uiso   1.00
H254   H     0.10269   0.62939   0.23200   0.00000  Uiso   1.00
H255   H     0.06736   0.46155   0.18940   0.00000  Uiso   1.00
H256   H     0.26592   0.53818   0.31084   0.00000  Uiso   1.00
N257   N     0.04759   0.50001   0.25001   0.00000  Uiso   1.00
N258   N     0.28574   0.49999   0.24999   0.00000  Uiso   1.00
O259   O     0.12846   0.56108   0.25000   0.00000  Uiso   1.00
O260   O     0.20488   0.43892   0.24999   0.00000  Uiso   1.00
O261   O     0.20490   0.56107   0.25000   0.00000  Uiso   1.00
O262   O     0.12843   0.43893   0.25000   0.00000  Uiso   1.00
O263   O     0.10661   0.50001   0.31612   0.00000  Uiso   1.00
O264   O     0.22672   0.49999   0.18387   0.00000  Uiso   1.00
O265   O     0.18305   0.50000   0.31612   0.00000  Uiso   1.00
O266   O     0.15028   0.50000   0.18388   0.00000  Uiso   1.00
Zn267  Zn    0.11562   0.50001   0.25000   0.00000  Uiso   1.00
Zn268  Zn    0.21771   0.49999   0.25000   0.00000  Uiso   1.00
O269   O     0.11664   0.41758   0.08294   0.00000  Uiso   1.00
H270   H     0.14825   0.40811   0.08351   0.00000  Uiso   1.00
O271   O     0.25305   0.47382   0.39197   0.00000  Uiso   1.00
H272   H     0.23344   0.45323   0.38280   0.00000  Uiso   1.00
C273   C     0.31627   0.45464   0.17662   0.00000  Uiso   1.00
H274   H     0.01550   0.43538   0.15591   0.00000  Uiso   1.00
H275   H     0.28538   0.43310   0.19068   0.00000  Uiso   1.00
H276   H     0.31077   0.47673   0.15159   0.00000  Uiso   1.00
C277   C     0.01677   0.54375   0.32453   0.00000  Uiso   1.00
H278   H     0.31765   0.56306   0.34542   0.00000  Uiso   1.00
H279   H     0.02173   0.52085   0.34921   0.00000  Uiso   1.00
H280   H     0.04802   0.56503   0.31124   0.00000  Uiso   1.00
C281   C     0.49984   0.57999   0.25018   0.00000  Uiso   1.00
C282   C     0.50015   0.42002   0.24984   0.00000  Uiso   1.00
C283   C     0.45935   0.43947   0.04181   0.00000  Uiso   1.00
C284   C     0.56696   0.47780   0.44068   0.00000  Uiso   1.00
C285   C     0.42455   0.43700   0.02151   0.00000  Uiso   1.00
C286   C     0.59934   0.48684   0.46230   0.00000  Uiso   1.00
C287   C     0.53580   0.64521   0.26030   0.00000  Uiso   1.00
C288   C     0.46417   0.35481   0.23974   0.00000  Uiso   1.00
C289   C     0.53608   0.35451   0.25997   0.00000  Uiso   1.00
C290   C     0.46389   0.64551   0.24009   0.00000  Uiso   1.00
C291   C     0.50024   0.37584   0.24974   0.00000  Uiso   1.00
C292   C     0.49974   0.62417   0.25030   0.00000  Uiso   1.00
C293   C     0.65693   0.47829   0.21589   0.00000  Uiso   1.00
C294   C     0.34298   0.52130   0.28443   0.00000  Uiso   1.00
C295   C     0.37123   0.47851   0.21627   0.00000  Uiso   1.00
C296   C     0.62875   0.52138   0.28383   0.00000  Uiso   1.00
C297   C     0.46949   0.49931   0.33844   0.00000  Uiso   1.00
C298   C     0.53058   0.49953   0.16158   0.00000  Uiso   1.00
C299   C     0.45172   0.49033   0.38910   0.00000  Uiso   1.00
C300   C     0.55008   0.49508   0.10997   0.00000  Uiso   1.00
C301   C     0.39780   0.45318   0.45752   0.00000  Uiso   1.00
C302   C     0.61509   0.50120   0.03292   0.00000  Uiso   1.00
C303   C     0.40764   0.46989   0.41270   0.00000  Uiso   1.00
C304   C     0.59844   0.50478   0.08206   0.00000  Uiso   1.00
C305   C     0.48507   0.49424   0.41086   0.00000  Uiso   1.00
C306   C     0.51919   0.48039   0.08855   0.00000  Uiso   1.00
C307   C     0.47921   0.47232   0.45182   0.00000  Uiso   1.00
C308   C     0.53586   0.47430   0.03952   0.00000  Uiso   1.00
C309   C     0.43343   0.45435   0.47733   0.00000  Uiso   1.00
C310   C     0.58375   0.48718   0.01144   0.00000  Uiso   1.00
C311   C     0.51699   0.47008   0.46921   0.00000  Uiso   1.00
C312   C     0.50418   0.46058   0.01752   0.00000  Uiso   1.00
H313   H     0.39048   0.42132   0.04043   0.00000  Uiso   1.00
H314   H     0.63656   0.49467   0.44046   0.00000  Uiso   1.00
H315   H     0.48127   0.47558   0.11041   0.00000  Uiso   1.00
H316   H     0.51702   0.51310   0.39413   0.00000  Uiso   1.00
H317   H     0.62269   0.51667   0.09798   0.00000  Uiso   1.00
H318   H     0.38191   0.46546   0.39585   0.00000  Uiso   1.00
H319   H     0.36326   0.43802   0.47582   0.00000  Uiso   1.00
H320   H     0.65193   0.51063   0.01170   0.00000  Uiso   1.00
H321   H     0.56353   0.62885   0.26860   0.00000  Uiso   1.00
H322   H     0.43646   0.37116   0.23142   0.00000  Uiso   1.00
H323   H     0.56393   0.37063   0.26807   0.00000  Uiso   1.00
H324   H     0.43603   0.62939   0.23200   0.00000  Uiso   1.00
H325   H     0.40070   0.46155   0.18940   0.00000  Uiso   1.00
H326   H     0.59926   0.53818   0.31084   0.00000  Uiso   1.00
N327   N     0.38093   0.50001   0.25001   0.00000  Uiso   1.00
N328   N     0.61907   0.49999   0.24999   0.00000  Uiso   1.00
O329   O     0.46179   0.56108   0.25000   0.00000  Uiso   1.00
O330   O     0.53821   0.43892   0.24999   0.00000  Uiso   1.00
O331   O     0.53823   0.56107   0.25000   0.00000  Uiso   1.00
O332   O     0.46177   0.43893   0.25000   0.00000  Uiso   1.00
O333   O     0.43994   0.50001   0.31612   0.00000  Uiso   1.00
O334   O     0.56006   0.49999   0.18387   0.00000  Uiso   1.00
O335   O     0.51639   0.50000   0.31612   0.00000  Uiso   1.00
O336   O     0.48361   0.50000   0.18388   0.00000  Uiso   1.00
Zn337  Zn    0.44896   0.50001   0.25000   0.00000  Uiso   1.00
Zn338  Zn    0.55104   0.49999   0.25000   0.00000  Uiso   1.00
O339   O     0.44997   0.41758   0.08294   0.00000  Uiso   1.00
H340   H     0.48158   0.40811   0.08351   0.00000  Uiso   1.00
O341   O     0.58638   0.47382   0.39197   0.00000  Uiso   1.00
H342   H     0.56678   0.45323   0.38280   0.00000  Uiso   1.00
C343   C     0.64960   0.45464   0.17662   0.00000  Uiso   1.00
H344   H     0.34884   0.43538   0.15591   0.00000  Uiso   1.00
H345   H     0.61871   0.43310   0.19068   0.00000  Uiso   1.00
H346   H     0.64410   0.47673   0.15159   0.00000  Uiso   1.00
C347   C     0.35010   0.54375   0.32453   0.00000  Uiso   1.00
H348   H     0.65099   0.56306   0.34542   0.00000  Uiso   1.00
H349   H     0.35506   0.52085   0.34921   0.00000  Uiso   1.00
H350   H     0.38135   0.56503   0.31124   0.00000  Uiso   1.00
C351   C     0.83318   0.57999   0.25018   0.00000  Uiso   1.00
C352   C     0.83348   0.42002   0.24984   0.00000  Uiso   1.00
C353   C     0.79269   0.43947   0.04181   0.00000  Uiso   1.00
C354   C     0.90029   0.47780   0.44068   0.00000  Uiso   1.00
C355   C     0.75789   0.43700   0.02151   0.00000  Uiso   1.00
C356   C     0.93267   0.48684   0.46230   0.00000  Uiso   1.00
C357   C     0.86914   0.64521   0.26030   0.00000  Uiso   1.00
C358   C     0.79751   0.35481   0.23974   0.00000  Uiso   1.00
C359   C     0.86942   0.35451   0.25997   0.00000  Uiso   1.00
C360   C     0.79722   0.64551   0.24009   0.00000  Uiso   1.00
C361   C     0.83357   0.37584   0.24974   0.00000  Uiso   1.00
C362   C     0.83307   0.62417   0.25030   0.00000  Uiso   1.00
C363   C     0.99026   0.47829   0.21589   0.00000  Uiso   1.00
C364   C     0.67632   0.52130   0.28443   0.00000  Uiso   1.00
C365   C     0.70457   0.47851   0.21627   0.00000  Uiso   1.00
C366   C     0.96208   0.52138   0.28383   0.00000  Uiso   1.00
C367   C     0.80282   0.49931   0.33844   0.00000  Uiso   1.00
C368   C     0.86391   0.49953   0.16158   0.00000  Uiso   1.00
C369   C     0.78506   0.49033   0.38910   0.00000  Uiso   1.00
C370   C     0.88341   0.49508   0.10997   0.00000  Uiso   1.00
C371   C     0.73113   0.45318   0.45752   0.00000  Uiso   1.00
C372   C     0.94842   0.50120   0.03292   0.00000  Uiso   1.00
C373   C     0.74097   0.46989   0.41270   0.00000  Uiso   1.00
C374   C     0.93177   0.50478   0.08206   0.00000  Uiso   1.00
C375   C     0.81840   0.49424   0.41086   0.00000  Uiso   1.00
C376   C     0.85252   0.48039   0.08855   0.00000  Uiso   1.00
C377   C     0.81255   0.47232   0.45182   0.00000  Uiso   1.00
C378   C     0.86919   0.47430   0.03952   0.00000  Uiso   1.00
C379   C     0.76677   0.45435   0.47733   0.00000  Uiso   1.00
C380   C     0.91708   0.48718   0.01144   0.00000  Uiso   1.00
C381   C     0.85032   0.47008   0.46921   0.00000  Uiso   1.00
C382   C     0.83751   0.46058   0.01752   0.00000  Uiso   1.00
H383   H     0.72381   0.42132   0.04043   0.00000  Uiso   1.00
H384   H     0.96989   0.49467   0.44046   0.00000  Uiso   1.00
H385   H     0.81461   0.47558   0.11041   0.00000  Uiso   1.00
H386   H     0.85035   0.51310   0.39413   0.00000  Uiso   1.00
H387   H     0.95602   0.51667   0.09798   0.00000  Uiso   1.00
H388   H     0.71524   0.46546   0.39585   0.00000  Uiso   1.00
H389   H     0.69660   0.43802   0.47582   0.00000  Uiso   1.00
H390   H     0.98527   0.51063   0.01170   0.00000  Uiso   1.00
H391   H     0.89686   0.62885   0.26860   0.00000  Uiso   1.00
H392   H     0.76980   0.37116   0.23142   0.00000  Uiso   1.00
H393   H     0.89727   0.37063   0.26807   0.00000  Uiso   1.00
H394   H     0.76936   0.62939   0.23200   0.00000  Uiso   1.00
H395   H     0.73403   0.46155   0.18940   0.00000  Uiso   1.00
H396   H     0.93259   0.53818   0.31084   0.00000  Uiso   1.00
N397   N     0.71426   0.50001   0.25001   0.00000  Uiso   1.00
N398   N     0.95241   0.49999   0.24999   0.00000  Uiso   1.00
O399   O     0.79512   0.56108   0.25000   0.00000  Uiso   1.00
O400   O     0.87154   0.43892   0.24999   0.00000  Uiso   1.00
O401   O     0.87157   0.56107   0.25000   0.00000  Uiso   1.00
O402   O     0.79510   0.43893   0.25000   0.00000  Uiso   1.00
O403   O     0.77328   0.50001   0.31612   0.00000  Uiso   1.00
O404   O     0.89339   0.49999   0.18387   0.00000  Uiso   1.00
O405   O     0.84972   0.50000   0.31612   0.00000  Uiso   1.00
O406   O     0.81695   0.50000   0.18388   0.00000  Uiso   1.00
Zn407  Zn    0.78229   0.50001   0.25000   0.00000  Uiso   1.00
Zn408  Zn    0.88438   0.49999   0.25000   0.00000  Uiso   1.00
O409   O     0.78330   0.41758   0.08294   0.00000  Uiso   1.00
H410   H     0.81492   0.40811   0.08351   0.00000  Uiso   1.00
O411   O     0.91972   0.47382   0.39197   0.00000  Uiso   1.00
H412   H     0.90011   0.45323   0.38280   0.00000  Uiso   1.00
C413   C     0.98293   0.45464   0.17662   0.00000  Uiso   1.00
H414   H     0.68217   0.43538   0.15591   0.00000  Uiso   1.00
H415   H     0.95204   0.43310   0.19068   0.00000  Uiso   1.00
H416   H     0.97744   0.47673   0.15159   0.00000  Uiso   1.00
C417   C     0.68344   0.54375   0.32453   0.00000  Uiso   1.00
H418   H     0.98432   0.56306   0.34542   0.00000  Uiso   1.00
H419   H     0.68839   0.52085   0.34921   0.00000  Uiso   1.00
H420   H     0.71469   0.56503   0.31124   0.00000  Uiso   1.00
C421   C     0.16651   0.91332   0.25018   0.00000  Uiso   1.00
C422   C     0.16682   0.75335   0.24984   0.00000  Uiso   1.00
C423   C     0.12602   0.77280   0.04181   0.00000  Uiso   1.00
C424   C     0.23363   0.81113   0.44068   0.00000  Uiso   1.00
C425   C     0.09122   0.77034   0.02151   0.00000  Uiso   1.00
C426   C     0.26601   0.82018   0.46230   0.00000  Uiso   1.00
C427   C     0.20247   0.97854   0.26030   0.00000  Uiso   1.00
C428   C     0.13084   0.68814   0.23974   0.00000  Uiso   1.00
C429   C     0.20275   0.68784   0.25997   0.00000  Uiso   1.00
C430   C     0.13055   0.97884   0.24009   0.00000  Uiso   1.00
C431   C     0.16691   0.70918   0.24974   0.00000  Uiso   1.00
C432   C     0.16640   0.95750   0.25030   0.00000  Uiso   1.00
C433   C     0.32360   0.81163   0.21589   0.00000  Uiso   1.00
C434   C     0.00965   0.85463   0.28443   0.00000  Uiso   1.00
C435   C     0.03790   0.81184   0.21627   0.00000  Uiso   1.00
C436   C     0.29542   0.85471   0.28383   0.00000  Uiso   1.00
C437   C     0.13615   0.83264   0.33844   0.00000  Uiso   1.00
C438   C     0.19724   0.83286   0.16158   0.00000  Uiso   1.00
C439   C     0.11839   0.82366   0.38910   0.00000  Uiso   1.00
C440   C     0.21674   0.82841   0.10997   0.00000  Uiso   1.00
C441   C     0.06446   0.78652   0.45752   0.00000  Uiso   1.00
C442   C     0.28175   0.83454   0.03292   0.00000  Uiso   1.00
C443   C     0.07430   0.80322   0.41270   0.00000  Uiso   1.00
C444   C     0.26510   0.83811   0.08206   0.00000  Uiso   1.00
C445   C     0.15174   0.82758   0.41086   0.00000  Uiso   1.00
C446   C     0.18586   0.81372   0.08855   0.00000  Uiso   1.00
C447   C     0.14588   0.80565   0.45182   0.00000  Uiso   1.00
C448   C     0.20252   0.80763   0.03952   0.00000  Uiso   1.00
C449   C     0.10010   0.78768   0.47733   0.00000  Uiso   1.00
C450   C     0.25042   0.82051   0.01144   0.00000  Uiso   1.00
C451   C     0.18366   0.80341   0.46921   0.00000  Uiso   1.00
C452   C     0.17084   0.79392   0.01752   0.00000  Uiso   1.00
H453   H     0.05715   0.75466   0.04043   0.00000  Uiso   1.00
H454   H     0.30322   0.82800   0.44046   0.00000  Uiso   1.00
H455   H     0.14794   0.80891   0.11041   0.00000  Uiso   1.00
H456   H     0.18369   0.84643   0.39413   0.00000  Uiso   1.00
H457   H     0.28935   0.85000   0.09798   0.00000  Uiso   1.00
H458   H     0.04858   0.79880   0.39585   0.00000  Uiso   1.00
H459   H     0.02993   0.77135   0.47582   0.00000  Uiso   1.00
H460   H     0.31860   0.84396   0.01170   0.00000  Uiso   1.00
H461   H     0.23019   0.96219   0.26860   0.00000  Uiso   1.00
H462   H     0.10313   0.70450   0.23142   0.00000  Uiso   1.00
H463   H     0.23060   0.70397   0.26807   0.00000  Uiso   1.00
H464   H     0.10269   0.96272   0.23200   0.00000  Uiso   1.00
H465   H     0.06736   0.79488   0.18940   0.00000  Uiso   1.00
H466   H     0.26592   0.87151   0.31084   0.00000  Uiso   1.00
N467   N     0.04759   0.83334   0.25001   0.00000  Uiso   1.00
N468   N     0.28574   0.83332   0.24999   0.00000  Uiso   1.00
O469   O     0.12846   0.89442   0.25000   0.00000  Uiso   1.00
O470   O     0.20488   0.77225   0.24999   0.00000  Uiso   1.00
O471   O     0.20490   0.89441   0.25000   0.00000  Uiso   1.00
O472   O     0.12843   0.77226   0.25000   0.00000  Uiso   1.00
O473   O     0.10661   0.83334   0.31612   0.00000  Uiso   1.00
O474   O     0.22672   0.83333   0.18387   0.00000  Uiso   1.00
O475   O     0.18305   0.83333   0.31612   0.00000  Uiso   1.00
O476   O     0.15028   0.83334   0.18388   0.00000  Uiso   1.00
Zn477  Zn    0.11562   0.83334   0.25000   0.00000  Uiso   1.00
Zn478  Zn    0.21771   0.83333   0.25000   0.00000  Uiso   1.00
O479   O     0.11664   0.75092   0.08294   0.00000  Uiso   1.00
H480   H     0.14825   0.74145   0.08351   0.00000  Uiso   1.00
O481   O     0.25305   0.80715   0.39197   0.00000  Uiso   1.00
H482   H     0.23344   0.78656   0.38280   0.00000  Uiso   1.00
C483   C     0.31627   0.78797   0.17662   0.00000  Uiso   1.00
H484   H     0.01550   0.76872   0.15591   0.00000  Uiso   1.00
H485   H     0.28538   0.76643   0.19068   0.00000  Uiso   1.00
H486   H     0.31077   0.81006   0.15159   0.00000  Uiso   1.00
C487   C     0.01677   0.87709   0.32453   0.00000  Uiso   1.00
H488   H     0.31765   0.89640   0.34542   0.00000  Uiso   1.00
H489   H     0.02173   0.85418   0.34921   0.00000  Uiso   1.00
H490   H     0.04802   0.89837   0.31124   0.00000  Uiso   1.00
C491   C     0.49984   0.91332   0.25018   0.00000  Uiso   1.00
C492   C     0.50015   0.75335   0.24984   0.00000  Uiso   1.00
C493   C     0.45935   0.77280   0.04181   0.00000  Uiso   1.00
C494   C     0.56696   0.81113   0.44068   0.00000  Uiso   1.00
C495   C     0.42455   0.77034   0.02151   0.00000  Uiso   1.00
C496   C     0.59934   0.82018   0.46230   0.00000  Uiso   1.00
C497   C     0.53580   0.97854   0.26030   0.00000  Uiso   1.00
C498   C     0.46417   0.68814   0.23974   0.00000  Uiso   1.00
C499   C     0.53608   0.68784   0.25997   0.00000  Uiso   1.00
C500   C     0.46389   0.97884   0.24009   0.00000  Uiso   1.00
C501   C     0.50024   0.70918   0.24974   0.00000  Uiso   1.00
C502   C     0.49974   0.95750   0.25030   0.00000  Uiso   1.00
C503   C     0.65693   0.81163   0.21589   0.00000  Uiso   1.00
C504   C     0.34298   0.85463   0.28443   0.00000  Uiso   1.00
C505   C     0.37123   0.81184   0.21627   0.00000  Uiso   1.00
C506   C     0.62875   0.85471   0.28383   0.00000  Uiso   1.00
C507   C     0.46949   0.83264   0.33844   0.00000  Uiso   1.00
C508   C     0.53058   0.83286   0.16158   0.00000  Uiso   1.00
C509   C     0.45172   0.82366   0.38910   0.00000  Uiso   1.00
C510   C     0.55008   0.82841   0.10997   0.00000  Uiso   1.00
C511   C     0.39780   0.78652   0.45752   0.00000  Uiso   1.00
C512   C     0.61509   0.83454   0.03292   0.00000  Uiso   1.00
C513   C     0.40764   0.80322   0.41270   0.00000  Uiso   1.00
C514   C     0.59844   0.83811   0.08206   0.00000  Uiso   1.00
C515   C     0.48507   0.82758   0.41086   0.00000  Uiso   1.00
C516   C     0.51919   0.81372   0.08855   0.00000  Uiso   1.00
C517   C     0.47921   0.80565   0.45182   0.00000  Uiso   1.00
C518   C     0.53586   0.80763   0.03952   0.00000  Uiso   1.00
C519   C     0.43343   0.78768   0.47733   0.00000  Uiso   1.00
C520   C     0.58375   0.82051   0.01144   0.00000  Uiso   1.00
C521   C     0.51699   0.80341   0.46921   0.00000  Uiso   1.00
C522   C     0.50418   0.79392   0.01752   0.00000  Uiso   1.00
H523   H     0.39048   0.75466   0.04043   0.00000  Uiso   1.00
H524   H     0.63656   0.82800   0.44046   0.00000  Uiso   1.00
H525   H     0.48127   0.80891   0.11041   0.00000  Uiso   1.00
H526   H     0.51702   0.84643   0.39413   0.00000  Uiso   1.00
H527   H     0.62269   0.85000   0.09798   0.00000  Uiso   1.00
H528   H     0.38191   0.79880   0.39585   0.00000  Uiso   1.00
H529   H     0.36326   0.77135   0.47582   0.00000  Uiso   1.00
H530   H     0.65193   0.84396   0.01170   0.00000  Uiso   1.00
H531   H     0.56353   0.96219   0.26860   0.00000  Uiso   1.00
H532   H     0.43646   0.70450   0.23142   0.00000  Uiso   1.00
H533   H     0.56393   0.70397   0.26807   0.00000  Uiso   1.00
H534   H     0.43603   0.96272   0.23200   0.00000  Uiso   1.00
H535   H     0.40070   0.79488   0.18940   0.00000  Uiso   1.00
H536   H     0.59926   0.87151   0.31084   0.00000  Uiso   1.00
N537   N     0.38093   0.83334   0.25001   0.00000  Uiso   1.00
N538   N     0.61907   0.83332   0.24999   0.00000  Uiso   1.00
O539   O     0.46179   0.89442   0.25000   0.00000  Uiso   1.00
O540   O     0.53821   0.77225   0.24999   0.00000  Uiso   1.00
O541   O     0.53823   0.89441   0.25000   0.00000  Uiso   1.00
O542   O     0.46177   0.77226   0.25000   0.00000  Uiso   1.00
O543   O     0.43994   0.83334   0.31612   0.00000  Uiso   1.00
O544   O     0.56006   0.83333   0.18387   0.00000  Uiso   1.00
O545   O     0.51639   0.83333   0.31612   0.00000  Uiso   1.00
O546   O     0.48361   0.83334   0.18388   0.00000  Uiso   1.00
Zn547  Zn    0.44896   0.83334   0.25000   0.00000  Uiso   1.00
Zn548  Zn    0.55104   0.83333   0.25000   0.00000  Uiso   1.00
O549   O     0.44997   0.75092   0.08294   0.00000  Uiso   1.00
H550   H     0.48158   0.74145   0.08351   0.00000  Uiso   1.00
O551   O     0.58638   0.80715   0.39197   0.00000  Uiso   1.00
H552   H     0.56678   0.78656   0.38280   0.00000  Uiso   1.00
C553   C     0.64960   0.78797   0.17662   0.00000  Uiso   1.00
H554   H     0.34884   0.76872   0.15591   0.00000  Uiso   1.00
H555   H     0.61871   0.76643   0.19068   0.00000  Uiso   1.00
H556   H     0.64410   0.81006   0.15159   0.00000  Uiso   1.00
C557   C     0.35010   0.87709   0.32453   0.00000  Uiso   1.00
H558   H     0.65099   0.89640   0.34542   0.00000  Uiso   1.00
H559   H     0.35506   0.85418   0.34921   0.00000  Uiso   1.00
H560   H     0.38135   0.89837   0.31124   0.00000  Uiso   1.00
C561   C     0.83318   0.91332   0.25018   0.00000  Uiso   1.00
C562   C     0.83348   0.75335   0.24984   0.00000  Uiso   1.00
C563   C     0.79269   0.77280   0.04181   0.00000  Uiso   1.00
C564   C     0.90029   0.81113   0.44068   0.00000  Uiso   1.00
C565   C     0.75789   0.77034   0.02151   0.00000  Uiso   1.00
C566   C     0.93267   0.82018   0.46230   0.00000  Uiso   1.00
C567   C     0.86914   0.97854   0.26030   0.00000  Uiso   1.00
C568   C     0.79751   0.68814   0.23974   0.00000  Uiso   1.00
C569   C     0.86942   0.68784   0.25997   0.00000  Uiso   1.00
C570   C     0.79722   0.97884   0.24009   0.00000  Uiso   1.00
C571   C     0.83357   0.70918   0.24974   0.00000  Uiso   1.00
C572   C     0.83307   0.95750   0.25030   0.00000  Uiso   1.00
C573   C     0.99026   0.81163   0.21589   0.00000  Uiso   1.00
C574   C     0.67632   0.85463   0.28443   0.00000  Uiso   1.00
C575   C     0.70457   0.81184   0.21627   0.00000  Uiso   1.00
C576   C     0.96208   0.85471   0.28383   0.00000  Uiso   1.00
C577   C     0.80282   0.83264   0.33844   0.00000  Uiso   1.00
C578   C     0.86391   0.83286   0.16158   0.00000  Uiso   1.00
C579   C     0.78506   0.82366   0.38910   0.00000  Uiso   1.00
C580   C     0.88341   0.82841   0.10997   0.00000  Uiso   1.00
C581   C     0.73113   0.78652   0.45752   0.00000  Uiso   1.00
C582   C     0.94842   0.83454   0.03292   0.00000  Uiso   1.00
C583   C     0.74097   0.80322   0.41270   0.00000  Uiso   1.00
C584   C     0.93177   0.83811   0.08206   0.00000  Uiso   1.00
C585   C     0.81840   0.82758   0.41086   0.00000  Uiso   1.00
C586   C     0.85252   0.81372   0.08855   0.00000  Uiso   1.00
C587   C     0.81255   0.80565   0.45182   0.00000  Uiso   1.00
C588   C     0.86919   0.80763   0.03952   0.00000  Uiso   1.00
C589   C     0.76677   0.78768   0.47733   0.00000  Uiso   1.00
C590   C     0.91708   0.82051   0.01144   0.00000  Uiso   1.00
C591   C     0.85032   0.80341   0.46921   0.00000  Uiso   1.00
C592   C     0.83751   0.79392   0.01752   0.00000  Uiso   1.00
H593   H     0.72381   0.75466   0.04043   0.00000  Uiso   1.00
H594   H     0.96989   0.82800   0.44046   0.00000  Uiso   1.00
H595   H     0.81461   0.80891   0.11041   0.00000  Uiso   1.00
H596   H     0.85035   0.84643   0.39413   0.00000  Uiso   1.00
H597   H     0.95602   0.85000   0.09798   0.00000  Uiso   1.00
H598   H     0.71524   0.79880   0.39585   0.00000  Uiso   1.00
H599   H     0.69660   0.77135   0.47582   0.00000  Uiso   1.00
H600   H     0.98527   0.84396   0.01170   0.00000  Uiso   1.00
H601   H     0.89686   0.96219   0.26860   0.00000  Uiso   1.00
H602   H     0.76980   0.70450   0.23142   0.00000  Uiso   1.00
H603   H     0.89727   0.70397   0.26807   0.00000  Uiso   1.00
H604   H     0.76936   0.96272   0.23200   0.00000  Uiso   1.00
H605   H     0.73403   0.79488   0.18940   0.00000  Uiso   1.00
H606   H     0.93259   0.87151   0.31084   0.00000  Uiso   1.00
N607   N     0.71426   0.83334   0.25001   0.00000  Uiso   1.00
N608   N     0.95241   0.83332   0.24999   0.00000  Uiso   1.00
O609   O     0.79512   0.89442   0.25000   0.00000  Uiso   1.00
O610   O     0.87154   0.77225   0.24999   0.00000  Uiso   1.00
O611   O     0.87157   0.89441   0.25000   0.00000  Uiso   1.00
O612   O     0.79510   0.77226   0.25000   0.00000  Uiso   1.00
O613   O     0.77328   0.83334   0.31612   0.00000  Uiso   1.00
O614   O     0.89339   0.83333   0.18387   0.00000  Uiso   1.00
O615   O     0.84972   0.83333   0.31612   0.00000  Uiso   1.00
O616   O     0.81695   0.83334   0.18388   0.00000  Uiso   1.00
Zn617  Zn    0.78229   0.83334   0.25000   0.00000  Uiso   1.00
Zn618  Zn    0.88438   0.83333   0.25000   0.00000  Uiso   1.00
O619   O     0.78330   0.75092   0.08294   0.00000  Uiso   1.00
H620   H     0.81492   0.74145   0.08351   0.00000  Uiso   1.00
O621   O     0.91972   0.80715   0.39197   0.00000  Uiso   1.00
H622   H     0.90011   0.78656   0.38280   0.00000  Uiso   1.00
C623   C     0.98293   0.78797   0.17662   0.00000  Uiso   1.00
H624   H     0.68217   0.76872   0.15591   0.00000  Uiso   1.00
H625   H     0.95204   0.76643   0.19068   0.00000  Uiso   1.00
H626   H     0.97744   0.81006   0.15159   0.00000  Uiso   1.00
C627   C     0.68344   0.87709   0.32453   0.00000  Uiso   1.00
H628   H     0.98432   0.89640   0.34542   0.00000  Uiso   1.00
H629   H     0.68839   0.85418   0.34921   0.00000  Uiso   1.00
H630   H     0.71469   0.89837   0.31124   0.00000  Uiso   1.00
C631   C     0.16651   0.24665   0.75018   0.00000  Uiso   1.00
C632   C     0.16682   0.08668   0.74984   0.00000  Uiso   1.00
C633   C     0.12602   0.10613   0.54181   0.00000  Uiso   1.00
C634   C     0.23363   0.14446   0.94068   0.00000  Uiso   1.00
C635   C     0.09122   0.10367   0.52151   0.00000  Uiso   1.00
C636   C     0.26601   0.15351   0.96230   0.00000  Uiso   1.00
C637   C     0.20247   0.31187   0.76030   0.00000  Uiso   1.00
C638   C     0.13084   0.02147   0.73974   0.00000  Uiso   1.00
C639   C     0.20275   0.02117   0.75997   0.00000  Uiso   1.00
C640   C     0.13055   0.31217   0.74009   0.00000  Uiso   1.00
C641   C     0.16691   0.04251   0.74974   0.00000  Uiso   1.00
C642   C     0.16640   0.29084   0.75030   0.00000  Uiso   1.00
C643   C     0.32360   0.14496   0.71589   0.00000  Uiso   1.00
C644   C     0.00965   0.18797   0.78443   0.00000  Uiso   1.00
C645   C     0.03790   0.14518   0.71627   0.00000  Uiso   1.00
C646   C     0.29542   0.18805   0.78383   0.00000  Uiso   1.00
C647   C     0.13615   0.16597   0.83844   0.00000  Uiso   1.00
C648   C     0.19724   0.16619   0.66158   0.00000  Uiso   1.00
C649   C     0.11839   0.15700   0.88910   0.00000  Uiso   1.00
C650   C     0.21674   0.16174   0.60997   0.00000  Uiso   1.00
C651   C     0.06446   0.11985   0.95752   0.00000  Uiso   1.00
C652   C     0.28175   0.16787   0.53292   0.00000  Uiso   1.00
C653   C     0.07430   0.13655   0.91270   0.00000  Uiso   1.00
C654   C     0.26510   0.17144   0.58206   0.00000  Uiso   1.00
C655   C     0.15174   0.16091   0.91086   0.00000  Uiso   1.00
C656   C     0.18586   0.14706   0.58855   0.00000  Uiso   1.00
C657   C     0.14588   0.13898   0.95182   0.00000  Uiso   1.00
C658   C     0.20252   0.14097   0.53952   0.00000  Uiso   1.00
C659   C     0.10010   0.12101   0.97733   0.00000  Uiso   1.00
C660   C     0.25042   0.15385   0.51144   0.00000  Uiso   1.00
C661   C     0.18366   0.13674   0.96921   0.00000  Uiso   1.00
C662   C     0.17084   0.12725   0.51752   0.00000  Uiso   1.00
H663   H     0.05715   0.08799   0.54043   0.00000  Uiso   1.00
H664   H     0.30322   0.16133   0.94046   0.00000  Uiso   1.00
H665   H     0.14794   0.14225   0.61041   0.00000  Uiso   1.00
H666   H     0.18369   0.17977   0.89413   0.00000  Uiso   1.00
H667   H     0.28935   0.18333   0.59798   0.00000  Uiso   1.00
H668   H     0.04858   0.13213   0.89585   0.00000  Uiso   1.00
H669   H     0.02993   0.10469   0.97582   0.00000  Uiso   1.00
H670   H     0.31860   0.17729   0.51170   0.00000  Uiso   1.00
H671   H     0.23019   0.29552   0.76860   0.00000  Uiso   1.00
H672   H     0.10313   0.03783   0.73142   0.00000  Uiso   1.00
H673   H     0.23060   0.03730   0.76807   0.00000  Uiso   1.00
H674   H     0.10269   0.29605   0.73200   0.00000  Uiso   1.00
H675   H     0.06736   0.12821   0.68940   0.00000  Uiso   1.00
H676   H     0.26592   0.20485   0.81084   0.00000  Uiso   1.00
N677   N     0.04759   0.16668   0.75001   0.00000  Uiso   1.00
N678   N     0.28574   0.16666   0.74999   0.00000  Uiso   1.00
O679   O     0.12846   0.22775   0.75000   0.00000  Uiso   1.00
O680   O     0.20488   0.10558   0.74999   0.00000  Uiso   1.00
O681   O     0.20490   0.22774   0.75000   0.00000  Uiso   1.00
O682   O     0.12843   0.10559   0.75000   0.00000  Uiso   1.00
O683   O     0.10661   0.16667   0.81612   0.00000  Uiso   1.00
O684   O     0.22672   0.16666   0.68387   0.00000  Uiso   1.00
O685   O     0.18305   0.16666   0.81612   0.00000  Uiso   1.00
O686   O     0.15028   0.16667   0.68388   0.00000  Uiso   1.00
Zn687  Zn    0.11562   0.16667   0.75000   0.00000  Uiso   1.00
Zn688  Zn    0.21771   0.16666   0.75000   0.00000  Uiso   1.00
O689   O     0.11664   0.08425   0.58294   0.00000  Uiso   1.00
H690   H     0.14825   0.07478   0.58351   0.00000  Uiso   1.00
O691   O     0.25305   0.14048   0.89197   0.00000  Uiso   1.00
H692   H     0.23344   0.11990   0.88280   0.00000  Uiso   1.00
C693   C     0.31627   0.12131   0.67662   0.00000  Uiso   1.00
H694   H     0.01550   0.10205   0.65591   0.00000  Uiso   1.00
H695   H     0.28538   0.09977   0.69068   0.00000  Uiso   1.00
H696   H     0.31077   0.14340   0.65159   0.00000  Uiso   1.00
C697   C     0.01677   0.21042   0.82453   0.00000  Uiso   1.00
H698   H     0.31765   0.22973   0.84542   0.00000  Uiso   1.00
H699   H     0.02173   0.18751   0.84921   0.00000  Uiso   1.00
H700   H     0.04802   0.23170   0.81124   0.00000  Uiso   1.00
C701   C     0.49984   0.24665   0.75018   0.00000  Uiso   1.00
C702   C     0.50015   0.08668   0.74984   0.00000  Uiso   1.00
C703   C     0.45935   0.10613   0.54181   0.00000  Uiso   1.00
C704   C     0.56696   0.14446   0.94068   0.00000  Uiso   1.00
C705   C     0.42455   0.10367   0.52151   0.00000  Uiso   1.00
C706   C     0.59934   0.15351   0.96230   0.00000  Uiso   1.00
C707   C     0.53580   0.31187   0.76030   0.00000  Uiso   1.00
C708   C     0.46417   0.02147   0.73974   0.00000  Uiso   1.00
C709   C     0.53608   0.02117   0.75997   0.00000  Uiso   1.00
C710   C     0.46389   0.31217   0.74009   0.00000  Uiso   1.00
C711   C     0.50024   0.04251   0.74974   0.00000  Uiso   1.00
C712   C     0.49974   0.29084   0.75030   0.00000  Uiso   1.00
C713   C     0.65693   0.14496   0.71589   0.00000  Uiso   1.00
C714   C     0.34298   0.18797   0.78443   0.00000  Uiso   1.00
C715   C     0.37123   0.14518   0.71627   0.00000  Uiso   1.00
C716   C     0.62875   0.18805   0.78383   0.00000  Uiso   1.00
C717   C     0.46949   0.16597   0.83844   0.00000  Uiso   1.00
C718   C     0.53058   0.16619   0.66158   0.00000  Uiso   1.00
C719   C     0.45172   0.15700   0.88910   0.00000  Uiso   1.00
C720   C     0.55008   0.16174   0.60997   0.00000  Uiso   1.00
C721   C     0.39780   0.11985   0.95752   0.00000  Uiso   1.00
C722   C     0.61509   0.16787   0.53292   0.00000  Uiso   1.00
C723   C     0.40764   0.13655   0.91270   0.00000  Uiso   1.00
C724   C     0.59844   0.17144   0.58206   0.00000  Uiso   1.00
C725   C     0.48507   0.16091   0.91086   0.00000  Uiso   1.00
C726   C     0.51919   0.14706   0.58855   0.00000  Uiso   1.00
C727   C     0.47921   0.13898   0.95182   0.00000  Uiso   1.00
C728   C     0.53586   0.14097   0.53952   0.00000  Uiso   1.00
C729   C     0.43343   0.12101   0.97733   0.00000  Uiso   1.00
C730   C     0.58375   0.15385   0.51144   0.00000  Uiso   1.00
C731   C     0.51699   0.13674   0.96921   0.00000  Uiso   1.00
C732   C     0.50418   0.12725   0.51752   0.00000  Uiso   1.00
H733   H     0.39048   0.08799   0.54043   0.00000  Uiso   1.00
H734   H     0.63656   0.16133   0.94046   0.00000  Uiso   1.00
H735   H     0.48127   0.14225   0.61041   0.00000  Uiso   1.00
H736   H     0.51702   0.17977   0.89413   0.00000  Uiso   1.00
H737   H     0.62269   0.18333   0.59798   0.00000  Uiso   1.00
H738   H     0.38191   0.13213   0.89585   0.00000  Uiso   1.00
H739   H     0.36326   0.10469   0.97582   0.00000  Uiso   1.00
H740   H     0.65193   0.17729   0.51170   0.00000  Uiso   1.00
H741   H     0.56353   0.29552   0.76860   0.00000  Uiso   1.00
H742   H     0.43646   0.03783   0.73142   0.00000  Uiso   1.00
H743   H     0.56393   0.03730   0.76807   0.00000  Uiso   1.00
H744   H     0.43603   0.29605   0.73200   0.00000  Uiso   1.00
H745   H     0.40070   0.12821   0.68940   0.00000  Uiso   1.00
H746   H     0.59926   0.20485   0.81084   0.00000  Uiso   1.00
N747   N     0.38093   0.16668   0.75001   0.00000  Uiso   1.00
N748   N     0.61907   0.16666   0.74999   0.00000  Uiso   1.00
O749   O     0.46179   0.22775   0.75000   0.00000  Uiso   1.00
O750   O     0.53821   0.10558   0.74999   0.00000  Uiso   1.00
O751   O     0.53823   0.22774   0.75000   0.00000  Uiso   1.00
O752   O     0.46177   0.10559   0.75000   0.00000  Uiso   1.00
O753   O     0.43994   0.16667   0.81612   0.00000  Uiso   1.00
O754   O     0.56006   0.16666   0.68387   0.00000  Uiso   1.00
O755   O     0.51639   0.16666   0.81612   0.00000  Uiso   1.00
O756   O     0.48361   0.16667   0.68388   0.00000  Uiso   1.00
Zn757  Zn    0.44896   0.16667   0.75000   0.00000  Uiso   1.00
Zn758  Zn    0.55104   0.16666   0.75000   0.00000  Uiso   1.00
O759   O     0.44997   0.08425   0.58294   0.00000  Uiso   1.00
H760   H     0.48158   0.07478   0.58351   0.00000  Uiso   1.00
O761   O     0.58638   0.14048   0.89197   0.00000  Uiso   1.00
H762   H     0.56678   0.11990   0.88280   0.00000  Uiso   1.00
C763   C     0.64960   0.12131   0.67662   0.00000  Uiso   1.00
H764   H     0.34884   0.10205   0.65591   0.00000  Uiso   1.00
H765   H     0.61871   0.09977   0.69068   0.00000  Uiso   1.00
H766   H     0.64410   0.14340   0.65159   0.00000  Uiso   1.00
C767   C     0.35010   0.21042   0.82453   0.00000  Uiso   1.00
H768   H     0.65099   0.22973   0.84542   0.00000  Uiso   1.00
H769   H     0.35506   0.18751   0.84921   0.00000  Uiso   1.00
H770   H     0.38135   0.23170   0.81124   0.00000  Uiso   1.00
C771   C     0.83318   0.24665   0.75018   0.00000  Uiso   1.00
C772   C     0.83348   0.08668   0.74984   0.00000  Uiso   1.00
C773   C     0.79269   0.10613   0.54181   0.00000  Uiso   1.00
C774   C     0.90029   0.14446   0.94068   0.00000  Uiso   1.00
C775   C     0.75789   0.10367   0.52151   0.00000  Uiso   1.00
C776   C     0.93267   0.15351   0.96230   0.00000  Uiso   1.00
C777   C     0.86914   0.31187   0.76030   0.00000  Uiso   1.00
C778   C     0.79751   0.02147   0.73974   0.00000  Uiso   1.00
C779   C     0.86942   0.02117   0.75997   0.00000  Uiso   1.00
C780   C     0.79722   0.31217   0.74009   0.00000  Uiso   1.00
C781   C     0.83357   0.04251   0.74974   0.00000  Uiso   1.00
C782   C     0.83307   0.29084   0.75030   0.00000  Uiso   1.00
C783   C     0.99026   0.14496   0.71589   0.00000  Uiso   1.00
C784   C     0.67632   0.18797   0.78443   0.00000  Uiso   1.00
C785   C     0.70457   0.14518   0.71627   0.00000  Uiso   1.00
C786   C     0.96208   0.18805   0.78383   0.00000  Uiso   1.00
C787   C     0.80282   0.16597   0.83844   0.00000  Uiso   1.00
C788   C     0.86391   0.16619   0.66158   0.00000  Uiso   1.00
C789   C     0.78506   0.15700   0.88910   0.00000  Uiso   1.00
C790   C     0.88341   0.16174   0.60997   0.00000  Uiso   1.00
C791   C     0.73113   0.11985   0.95752   0.00000  Uiso   1.00
C792   C     0.94842   0.16787   0.53292   0.00000  Uiso   1.00
C793   C     0.74097   0.13655   0.91270   0.00000  Uiso   1.00
C794   C     0.93177   0.17144   0.58206   0.00000  Uiso   1.00
C795   C     0.81840   0.16091   0.91086   0.00000  Uiso   1.00
C796   C     0.85252   0.14706   0.58855   0.00000  Uiso   1.00
C797   C     0.81255   0.13898   0.95182   0.00000  Uiso   1.00
C798   C     0.86919   0.14097   0.53952   0.00000  Uiso   1.00
C799   C     0.76677   0.12101   0.97733   0.00000  Uiso   1.00
C800   C     0.91708   0.15385   0.51144   0.00000  Uiso   1.00
C801   C     0.85032   0.13674   0.96921   0.00000  Uiso   1.00
C802   C     0.83751   0.12725   0.51752   0.00000  Uiso   1.00
H803   H     0.72381   0.08799   0.54043   0.00000  Uiso   1.00
H804   H     0.96989   0.16133   0.94046   0.00000  Uiso   1.00
H805   H     0.81461   0.14225   0.61041   0.00000  Uiso   1.00
H806   H     0.85035   0.17977   0.89413   0.00000  Uiso   1.00
H807   H     0.95602   0.18333   0.59798   0.00000  Uiso   1.00
H808   H     0.71524   0.13213   0.89585   0.00000  Uiso   1.00
H809   H     0.69660   0.10469   0.97582   0.00000  Uiso   1.00
H810   H     0.98527   0.17729   0.51170   0.00000  Uiso   1.00
H811   H     0.89686   0.29552   0.76860   0.00000  Uiso   1.00
H812   H     0.76980   0.03783   0.73142   0.00000  Uiso   1.00
H813   H     0.89727   0.03730   0.76807   0.00000  Uiso   1.00
H814   H     0.76936   0.29605   0.73200   0.00000  Uiso   1.00
H815   H     0.73403   0.12821   0.68940   0.00000  Uiso   1.00
H816   H     0.93259   0.20485   0.81084   0.00000  Uiso   1.00
N817   N     0.71426   0.16668   0.75001   0.00000  Uiso   1.00
N818   N     0.95241   0.16666   0.74999   0.00000  Uiso   1.00
O819   O     0.79512   0.22775   0.75000   0.00000  Uiso   1.00
O820   O     0.87154   0.10558   0.74999   0.00000  Uiso   1.00
O821   O     0.87157   0.22774   0.75000   0.00000  Uiso   1.00
O822   O     0.79510   0.10559   0.75000   0.00000  Uiso   1.00
O823   O     0.77328   0.16667   0.81612   0.00000  Uiso   1.00
O824   O     0.89339   0.16666   0.68387   0.00000  Uiso   1.00
O825   O     0.84972   0.16666   0.81612   0.00000  Uiso   1.00
O826   O     0.81695   0.16667   0.68388   0.00000  Uiso   1.00
Zn827  Zn    0.78229   0.16667   0.75000   0.00000  Uiso   1.00
Zn828  Zn    0.88438   0.16666   0.75000   0.00000  Uiso   1.00
O829   O     0.78330   0.08425   0.58294   0.00000  Uiso   1.00
H830   H     0.81492   0.07478   0.58351   0.00000  Uiso   1.00
O831   O     0.91972   0.14048   0.89197   0.00000  Uiso   1.00
H832   H     0.90011   0.11990   0.88280   0.00000  Uiso   1.00
C833   C     0.98293   0.12131   0.67662   0.00000  Uiso   1.00
H834   H     0.68217   0.10205   0.65591   0.00000  Uiso   1.00
H835   H     0.95204   0.09977   0.69068   0.00000  Uiso   1.00
H836   H     0.97744   0.14340   0.65159   0.00000  Uiso   1.00
C837   C     0.68344   0.21042   0.82453   0.00000  Uiso   1.00
H838   H     0.98432   0.22973   0.84542   0.00000  Uiso   1.00
H839   H     0.68839   0.18751   0.84921   0.00000  Uiso   1.00
H840   H     0.71469   0.23170   0.81124   0.00000  Uiso   1.00
C841   C     0.16651   0.57999   0.75018   0.00000  Uiso   1.00
C842   C     0.16682   0.42002   0.74984   0.00000  Uiso   1.00
C843   C     0.12602   0.43947   0.54181   0.00000  Uiso   1.00
C844   C     0.23363   0.47780   0.94068   0.00000  Uiso   1.00
C845   C     0.09122   0.43700   0.52151   0.00000  Uiso   1.00
C846   C     0.26601   0.48684   0.96230   0.00000  Uiso   1.00
C847   C     0.20247   0.64521   0.76030   0.00000  Uiso   1.00
C848   C     0.13084   0.35481   0.73974   0.00000  Uiso   1.00
C849   C     0.20275   0.35451   0.75997   0.00000  Uiso   1.00
C850   C     0.13055   0.64551   0.74009   0.00000  Uiso   1.00
C851   C     0.16691   0.37584   0.74974   0.00000  Uiso   1.00
C852   C     0.16640   0.62417   0.75030   0.00000  Uiso   1.00
C853   C     0.32360   0.47829   0.71589   0.00000  Uiso   1.00
C854   C     0.00965   0.52130   0.78443   0.00000  Uiso   1.00
C855   C     0.03790   0.47851   0.71627   0.00000  Uiso   1.00
C856   C     0.29542   0.52138   0.78383   0.00000  Uiso   1.00
C857   C     0.13615   0.49931   0.83844   0.00000  Uiso   1.00
C858   C     0.19724   0.49953   0.66158   0.00000  Uiso   1.00
C859   C     0.11839   0.49033   0.88910   0.00000  Uiso   1.00
C860   C     0.21674   0.49508   0.60997   0.00000  Uiso   1.00
C861   C     0.06446   0.45318   0.95752   0.00000  Uiso   1.00
C862   C     0.28175   0.50120   0.53292   0.00000  Uiso   1.00
C863   C     0.07430   0.46989   0.91270   0.00000  Uiso   1.00
C864   C     0.26510   0.50478   0.58206   0.00000  Uiso   1.00
C865   C     0.15174   0.49424   0.91086   0.00000  Uiso   1.00
C866   C     0.18586   0.48039   0.58855   0.00000  Uiso   1.00
C867   C     0.14588   0.47232   0.95182   0.00000  Uiso   1.00
C868   C     0.20252   0.47430   0.53952   0.00000  Uiso   1.00
C869   C     0.10010   0.45435   0.97733   0.00000  Uiso   1.00
C870   C     0.25042   0.48718   0.51144   0.00000  Uiso   1.00
C871   C     0.18366   0.47008   0.96921   0.00000  Uiso   1.00
C872   C     0.17084   0.46058   0.51752   0.00000  Uiso   1.00
H873   H     0.05715   0.42132   0.54043   0.00000  Uiso   1.00
H874   H     0.30322   0.49467   0.94046   0.00000  Uiso   1.00
H875   H     0.14794   0.47558   0.61041   0.00000  Uiso   1.00
H876   H     0.18369   0.51310   0.89413   0.00000  Uiso   1.00
H877   H     0.28935   0.51667   0.59798   0.00000  Uiso   1.00
H878   H     0.04858   0.46546   0.89585   0.00000  Uiso   1.00
H879   H     0.02993   0.43802   0.97582   0.00000  Uiso   1.00
H880   H     0.31860   0.51063   0.51170   0.00000  Uiso   1.00
H881   H     0.23019   0.62885   0.76860   0.00000  Uiso   1.00
H882   H     0.10313   0.37116   0.73142   0.00000  Uiso   1.00
H883   H     0.23060   0.37063   0.76807   0.00000  Uiso   1.00
H884   H     0.10269   0.62939   0.73200   0.00000  Uiso   1.00
H885   H     0.06736   0.46155   0.68940   0.00000  Uiso   1.00
H886   H     0.26592   0.53818   0.81084   0.00000  Uiso   1.00
N887   N     0.04759   0.50001   0.75001   0.00000  Uiso   1.00
N888   N     0.28574   0.49999   0.74999   0.00000  Uiso   1.00
O889   O     0.12846   0.56108   0.75000   0.00000  Uiso   1.00
O890   O     0.20488   0.43892   0.74999   0.00000  Uiso   1.00
O891   O     0.20490   0.56107   0.75000   0.00000  Uiso   1.00
O892   O     0.12843   0.43893   0.75000   0.00000  Uiso   1.00
O893   O     0.10661   0.50001   0.81612   0.00000  Uiso   1.00
O894   O     0.22672   0.49999   0.68387   0.00000  Uiso   1.00
O895   O     0.18305   0.50000   0.81612   0.00000  Uiso   1.00
O896   O     0.15028   0.50000   0.68388   0.00000  Uiso   1.00
Zn897  Zn    0.11562   0.50001   0.75000   0.00000  Uiso   1.00
Zn898  Zn    0.21771   0.49999   0.75000   0.00000  Uiso   1.00
O899   O     0.11664   0.41758   0.58294   0.00000  Uiso   1.00
H900   H     0.14825   0.40811   0.58351   0.00000  Uiso   1.00
O901   O     0.25305   0.47382   0.89197   0.00000  Uiso   1.00
H902   H     0.23344   0.45323   0.88280   0.00000  Uiso   1.00
C903   C     0.31627   0.45464   0.67662   0.00000  Uiso   1.00
H904   H     0.01550   0.43538   0.65591   0.00000  Uiso   1.00
H905   H     0.28538   0.43310   0.69068   0.00000  Uiso   1.00
H906   H     0.31077   0.47673   0.65159   0.00000  Uiso   1.00
C907   C     0.01677   0.54375   0.82453   0.00000  Uiso   1.00
H908   H     0.31765   0.56306   0.84542   0.00000  Uiso   1.00
H909   H     0.02173   0.52085   0.84921   0.00000  Uiso   1.00
H910   H     0.04802   0.56503   0.81124   0.00000  Uiso   1.00
C911   C     0.49984   0.57999   0.75018   0.00000  Uiso   1.00
C912   C     0.50015   0.42002   0.74984   0.00000  Uiso   1.00
C913   C     0.45935   0.43947   0.54181   0.00000  Uiso   1.00
C914   C     0.56696   0.47780   0.94068   0.00000  Uiso   1.00
C915   C     0.42455   0.43700   0.52151   0.00000  Uiso   1.00
C916   C     0.59934   0.48684   0.96230   0.00000  Uiso   1.00
C917   C     0.53580   0.64521   0.76030   0.00000  Uiso   1.00
C918   C     0.46417   0.35481   0.73974   0.00000  Uiso   1.00
C919   C     0.53608   0.35451   0.75997   0.00000  Uiso   1.00
C920   C     0.46389   0.64551   0.74009   0.00000  Uiso   1.00
C921   C     0.50024   0.37584   0.74974   0.00000  Uiso   1.00
C922   C     0.49974   0.62417   0.75030   0.00000  Uiso   1.00
C923   C     0.65693   0.47829   0.71589   0.00000  Uiso   1.00
C924   C     0.34298   0.52130   0.78443   0.00000  Uiso   1.00
C925   C     0.37123   0.47851   0.71627   0.00000  Uiso   1.00
C926   C     0.62875   0.52138   0.78383   0.00000  Uiso   1.00
C927   C     0.46949   0.49931   0.83844   0.00000  Uiso   1.00
C928   C     0.53058   0.49953   0.66158   0.00000  Uiso   1.00
C929   C     0.45172   0.49033   0.88910   0.00000  Uiso   1.00
C930   C     0.55008   0.49508   0.60997   0.00000  Uiso   1.00
C931   C     0.39780   0.45318   0.95752   0.00000  Uiso   1.00
C932   C     0.61509   0.50120   0.53292   0.00000  Uiso   1.00
C933   C     0.40764   0.46989   0.91270   0.00000  Uiso   1.00
C934   C     0.59844   0.50478   0.58206   0.00000  Uiso   1.00
C935   C     0.48507   0.49424   0.91086   0.00000  Uiso   1.00
C936   C     0.51919   0.48039   0.58855   0.00000  Uiso   1.00
C937   C     0.47921   0.47232   0.95182   0.00000  Uiso   1.00
C938   C     0.53586   0.47430   0.53952   0.00000  Uiso   1.00
C939   C     0.43343   0.45435   0.97733   0.00000  Uiso   1.00
C940   C     0.58375   0.48718   0.51144   0.00000  Uiso   1.00
C941   C     0.51699   0.47008   0.96921   0.00000  Uiso   1.00
C942   C     0.50418   0.46058   0.51752   0.00000  Uiso   1.00
H943   H     0.39048   0.42132   0.54043   0.00000  Uiso   1.00
H944   H     0.63656   0.49467   0.94046   0.00000  Uiso   1.00
H945   H     0.48127   0.47558   0.61041   0.00000  Uiso   1.00
H946   H     0.51702   0.51310   0.89413   0.00000  Uiso   1.00
H947   H     0.62269   0.51667   0.59798   0.00000  Uiso   1.00
H948   H     0.38191   0.46546   0.89585   0.00000  Uiso   1.00
H949   H     0.36326   0.43802   0.97582   0.00000  Uiso   1.00
H950   H     0.65193   0.51063   0.51170   0.00000  Uiso   1.00
H951   H     0.56353   0.62885   0.76860   0.00000  Uiso   1.00
H952   H     0.43646   0.37116   0.73142   0.00000  Uiso   1.00
H953   H     0.56393   0.37063   0.76807   0.00000  Uiso   1.00
H954   H     0.43603   0.62939   0.73200   0.00000  Uiso   1.00
H955   H     0.40070   0.46155   0.68940   0.00000  Uiso   1.00
H956   H     0.59926   0.53818   0.81084   0.00000  Uiso   1.00
N957   N     0.38093   0.50001   0.75001   0.00000  Uiso   1.00
N958   N     0.61907   0.49999   0.74999   0.00000  Uiso   1.00
O959   O     0.46179   0.56108   0.75000   0.00000  Uiso   1.00
O960   O     0.53821   0.43892   0.74999   0.00000  Uiso   1.00
O961   O     0.53823   0.56107   0.75000   0.00000  Uiso   1.00
O962   O     0.46177   0.43893   0.75000   0.00000  Uiso   1.00
O963   O     0.43994   0.50001   0.81612   0.00000  Uiso   1.00
O964   O     0.56006   0.49999   0.68387   0.00000  Uiso   1.00
O965   O     0.51639   0.50000   0.81612   0.00000  Uiso   1.00
O966   O     0.48361   0.50000   0.68388   0.00000  Uiso   1.00
Zn967  Zn    0.44896   0.50001   0.75000   0.00000  Uiso   1.00
Zn968  Zn    0.55104   0.49999   0.75000   0.00000  Uiso   1.00
O969   O     0.44997   0.41758   0.58294   0.00000  Uiso   1.00
H970   H     0.48158   0.40811   0.58351   0.00000  Uiso   1.00
O971   O     0.58638   0.47382   0.89197   0.00000  Uiso   1.00
H972   H     0.56678   0.45323   0.88280   0.00000  Uiso   1.00
C973   C     0.64960   0.45464   0.67662   0.00000  Uiso   1.00
H974   H     0.34884   0.43538   0.65591   0.00000  Uiso   1.00
H975   H     0.61871   0.43310   0.69068   0.00000  Uiso   1.00
H976   H     0.64410   0.47673   0.65159   0.00000  Uiso   1.00
C977   C     0.35010   0.54375   0.82453   0.00000  Uiso   1.00
H978   H     0.65099   0.56306   0.84542   0.00000  Uiso   1.00
H979   H     0.35506   0.52085   0.84921   0.00000  Uiso   1.00
H980   H     0.38135   0.56503   0.81124   0.00000  Uiso   1.00
C981   C     0.83318   0.57999   0.75018   0.00000  Uiso   1.00
C982   C     0.83348   0.42002   0.74984   0.00000  Uiso   1.00
C983   C     0.79269   0.43947   0.54181   0.00000  Uiso   1.00
C984   C     0.90029   0.47780   0.94068   0.00000  Uiso   1.00
C985   C     0.75789   0.43700   0.52151   0.00000  Uiso   1.00
C986   C     0.93267   0.48684   0.96230   0.00000  Uiso   1.00
C987   C     0.86914   0.64521   0.76030   0.00000  Uiso   1.00
C988   C     0.79751   0.35481   0.73974   0.00000  Uiso   1.00
C989   C     0.86942   0.35451   0.75997   0.00000  Uiso   1.00
C990   C     0.79722   0.64551   0.74009   0.00000  Uiso   1.00
C991   C     0.83357   0.37584   0.74974   0.00000  Uiso   1.00
C992   C     0.83307   0.62417   0.75030   0.00000  Uiso   1.00
C993   C     0.99026   0.47829   0.71589   0.00000  Uiso   1.00
C994   C     0.67632   0.52130   0.78443   0.00000  Uiso   1.00
C995   C     0.70457   0.47851   0.71627   0.00000  Uiso   1.00
C996   C     0.96208   0.52138   0.78383   0.00000  Uiso   1.00
C997   C     0.80282   0.49931   0.83844   0.00000  Uiso   1.00
C998   C     0.86391   0.49953   0.66158   0.00000  Uiso   1.00
C999   C     0.78506   0.49033   0.88910   0.00000  Uiso   1.00
C1000  C     0.88341   0.49508   0.60997   0.00000  Uiso   1.00
C1001  C     0.73113   0.45318   0.95752   0.00000  Uiso   1.00
C1002  C     0.94842   0.50120   0.53292   0.00000  Uiso   1.00
C1003  C     0.74097   0.46989   0.91270   0.00000  Uiso   1.00
C1004  C     0.93177   0.50478   0.58206   0.00000  Uiso   1.00
C1005  C     0.81840   0.49424   0.91086   0.00000  Uiso   1.00
C1006  C     0.85252   0.48039   0.58855   0.00000  Uiso   1.00
C1007  C     0.81255   0.47232   0.95182   0.00000  Uiso   1.00
C1008  C     0.86919   0.47430   0.53952   0.00000  Uiso   1.00
C1009  C     0.76677   0.45435   0.97733   0.00000  Uiso   1.00
C1010  C     0.91708   0.48718   0.51144   0.00000  Uiso   1.00
C1011  C     0.85032   0.47008   0.96921   0.00000  Uiso   1.00
C1012  C     0.83751   0.46058   0.51752   0.00000  Uiso   1.00
H1013  H     0.72381   0.42132   0.54043   0.00000  Uiso   1.00
H1014  H     0.96989   0.49467   0.94046   0.00000  Uiso   1.00
H1015  H     0.81461   0.47558   0.61041   0.00000  Uiso   1.00
H1016  H     0.85035   0.51310   0.89413   0.00000  Uiso   1.00
H1017  H     0.95602   0.51667   0.59798   0.00000  Uiso   1.00
H1018  H     0.71524   0.46546   0.89585   0.00000  Uiso   1.00
H1019  H     0.69660   0.43802   0.97582   0.00000  Uiso   1.00
H1020  H     0.98527   0.51063   0.51170   0.00000  Uiso   1.00
H1021  H     0.89686   0.62885   0.76860   0.00000  Uiso   1.00
H1022  H     0.76980   0.37116   0.73142   0.00000  Uiso   1.00
H1023  H     0.89727   0.37063   0.76807   0.00000  Uiso   1.00
H1024  H     0.76936   0.62939   0.73200   0.00000  Uiso   1.00
H1025  H     0.73403   0.46155   0.68940   0.00000  Uiso   1.00
H1026  H     0.93259   0.53818   0.81084   0.00000  Uiso   1.00
N1027  N     0.71426   0.50001   0.75001   0.00000  Uiso   1.00
N1028  N     0.95241   0.49999   0.74999   0.00000  Uiso   1.00
O1029  O     0.79512   0.56108   0.75000   0.00000  Uiso   1.00
O1030  O     0.87154   0.43892   0.74999   0.00000  Uiso   1.00
O1031  O     0.87157   0.56107   0.75000   0.00000  Uiso   1.00
O1032  O     0.79510   0.43893   0.75000   0.00000  Uiso   1.00
O1033  O     0.77328   0.50001   0.81612   0.00000  Uiso   1.00
O1034  O     0.89339   0.49999   0.68387   0.00000  Uiso   1.00
O1035  O     0.84972   0.50000   0.81612   0.00000  Uiso   1.00
O1036  O     0.81695   0.50000   0.68388   0.00000  Uiso   1.00
Zn1037 Zn    0.78229   0.50001   0.75000   0.00000  Uiso   1.00
Zn1038 Zn    0.88438   0.49999   0.75000   0.00000  Uiso   1.00
O1039  O     0.78330   0.41758   0.58294   0.00000  Uiso   1.00
H1040  H     0.81492   0.40811   0.58351   0.00000  Uiso   1.00
O1041  O     0.91972   0.47382   0.89197   0.00000  Uiso   1.00
H1042  H     0.90011   0.45323   0.88280   0.00000  Uiso   1.00
C1043  C     0.98293   0.45464   0.67662   0.00000  Uiso   1.00
H1044  H     0.68217   0.43538   0.65591   0.00000  Uiso   1.00
H1045  H     0.95204   0.43310   0.69068   0.00000  Uiso   1.00
H1046  H     0.97744   0.47673   0.65159   0.00000  Uiso   1.00
C1047  C     0.68344   0.54375   0.82453   0.00000  Uiso   1.00
H1048  H     0.98432   0.56306   0.84542   0.00000  Uiso   1.00
H1049  H     0.68839   0.52085   0.84921   0.00000  Uiso   1.00
H1050  H     0.71469   0.56503   0.81124   0.00000  Uiso   1.00
C1051  C     0.16651   0.91332   0.75018   0.00000  Uiso   1.00
C1052  C     0.16682   0.75335   0.74984   0.00000  Uiso   1.00
C1053  C     0.12602   0.77280   0.54181   0.00000  Uiso   1.00
C1054  C     0.23363   0.81113   0.94068   0.00000  Uiso   1.00
C1055  C     0.09122   0.77034   0.52151   0.00000  Uiso   1.00
C1056  C     0.26601   0.82018   0.96230   0.00000  Uiso   1.00
C1057  C     0.20247   0.97854   0.76030   0.00000  Uiso   1.00
C1058  C     0.13084   0.68814   0.73974   0.00000  Uiso   1.00
C1059  C     0.20275   0.68784   0.75997   0.00000  Uiso   1.00
C1060  C     0.13055   0.97884   0.74009   0.00000  Uiso   1.00
C1061  C     0.16691   0.70918   0.74974   0.00000  Uiso   1.00
C1062  C     0.16640   0.95750   0.75030   0.00000  Uiso   1.00
C1063  C     0.32360   0.81163   0.71589   0.00000  Uiso   1.00
C1064  C     0.00965   0.85463   0.78443   0.00000  Uiso   1.00
C1065  C     0.03790   0.81184   0.71627   0.00000  Uiso   1.00
C1066  C     0.29542   0.85471   0.78383   0.00000  Uiso   1.00
C1067  C     0.13615   0.83264   0.83844   0.00000  Uiso   1.00
C1068  C     0.19724   0.83286   0.66158   0.00000  Uiso   1.00
C1069  C     0.11839   0.82366   0.88910   0.00000  Uiso   1.00
C1070  C     0.21674   0.82841   0.60997   0.00000  Uiso   1.00
C1071  C     0.06446   0.78652   0.95752   0.00000  Uiso   1.00
C1072  C     0.28175   0.83454   0.53292   0.00000  Uiso   1.00
C1073  C     0.07430   0.80322   0.91270   0.00000  Uiso   1.00
C1074  C     0.26510   0.83811   0.58206   0.00000  Uiso   1.00
C1075  C     0.15174   0.82758   0.91086   0.00000  Uiso   1.00
C1076  C     0.18586   0.81372   0.58855   0.00000  Uiso   1.00
C1077  C     0.14588   0.80565   0.95182   0.00000  Uiso   1.00
C1078  C     0.20252   0.80763   0.53952   0.00000  Uiso   1.00
C1079  C     0.10010   0.78768   0.97733   0.00000  Uiso   1.00
C1080  C     0.25042   0.82051   0.51144   0.00000  Uiso   1.00
C1081  C     0.18366   0.80341   0.96921   0.00000  Uiso   1.00
C1082  C     0.17084   0.79392   0.51752   0.00000  Uiso   1.00
H1083  H     0.05715   0.75466   0.54043   0.00000  Uiso   1.00
H1084  H     0.30322   0.82800   0.94046   0.00000  Uiso   1.00
H1085  H     0.14794   0.80891   0.61041   0.00000  Uiso   1.00
H1086  H     0.18369   0.84643   0.89413   0.00000  Uiso   1.00
H1087  H     0.28935   0.85000   0.59798   0.00000  Uiso   1.00
H1088  H     0.04858   0.79880   0.89585   0.00000  Uiso   1.00
H1089  H     0.02993   0.77135   0.97582   0.00000  Uiso   1.00
H1090  H     0.31860   0.84396   0.51170   0.00000  Uiso   1.00
H1091  H     0.23019   0.96219   0.76860   0.00000  Uiso   1.00
H1092  H     0.10313   0.70450   0.73142   0.00000  Uiso   1.00
H1093  H     0.23060   0.70397   0.76807   0.00000  Uiso   1.00
H1094  H     0.10269   0.96272   0.73200   0.00000  Uiso   1.00
H1095  H     0.06736   0.79488   0.68940   0.00000  Uiso   1.00
H1096  H     0.26592   0.87151   0.81084   0.00000  Uiso   1.00
N1097  N     0.04759   0.83334   0.75001   0.00000  Uiso   1.00
N1098  N     0.28574   0.83332   0.74999   0.00000  Uiso   1.00
O1099  O     0.12846   0.89442   0.75000   0.00000  Uiso   1.00
O1100  O     0.20488   0.77225   0.74999   0.00000  Uiso   1.00
O1101  O     0.20490   0.89441   0.75000   0.00000  Uiso   1.00
O1102  O     0.12843   0.77226   0.75000   0.00000  Uiso   1.00
O1103  O     0.10661   0.83334   0.81612   0.00000  Uiso   1.00
O1104  O     0.22672   0.83333   0.68387   0.00000  Uiso   1.00
O1105  O     0.18305   0.83333   0.81612   0.00000  Uiso   1.00
O1106  O     0.15028   0.83334   0.68388   0.00000  Uiso   1.00
Zn1107 Zn    0.11562   0.83334   0.75000   0.00000  Uiso   1.00
Zn1108 Zn    0.21771   0.83333   0.75000   0.00000  Uiso   1.00
O1109  O     0.11664   0.75092   0.58294   0.00000  Uiso   1.00
H1110  H     0.14825   0.74145   0.58351   0.00000  Uiso   1.00
O1111  O     0.25305   0.80715   0.89197   0.00000  Uiso   1.00
H1112  H     0.23344   0.78656   0.88280   0.00000  Uiso   1.00
C1113  C     0.31627   0.78797   0.67662   0.00000  Uiso   1.00
H1114  H     0.01550   0.76872   0.65591   0.00000  Uiso   1.00
H1115  H     0.28538   0.76643   0.69068   0.00000  Uiso   1.00
H1116  H     0.31077   0.81006   0.65159   0.00000  Uiso   1.00
C1117  C     0.01677   0.87709   0.82453   0.00000  Uiso   1.00
H1118  H     0.31765   0.89640   0.84542   0.00000  Uiso   1.00
H1119  H     0.02173   0.85418   0.84921   0.00000  Uiso   1.00
H1120  H     0.04802   0.89837   0.81124   0.00000  Uiso   1.00
C1121  C     0.49984   0.91332   0.75018   0.00000  Uiso   1.00
C1122  C     0.50015   0.75335   0.74984   0.00000  Uiso   1.00
C1123  C     0.45935   0.77280   0.54181   0.00000  Uiso   1.00
C1124  C     0.56696   0.81113   0.94068   0.00000  Uiso   1.00
C1125  C     0.42455   0.77034   0.52151   0.00000  Uiso   1.00
C1126  C     0.59934   0.82018   0.96230   0.00000  Uiso   1.00
C1127  C     0.53580   0.97854   0.76030   0.00000  Uiso   1.00
C1128  C     0.46417   0.68814   0.73974   0.00000  Uiso   1.00
C1129  C     0.53608   0.68784   0.75997   0.00000  Uiso   1.00
C1130  C     0.46389   0.97884   0.74009   0.00000  Uiso   1.00
C1131  C     0.50024   0.70918   0.74974   0.00000  Uiso   1.00
C1132  C     0.49974   0.95750   0.75030   0.00000  Uiso   1.00
C1133  C     0.65693   0.81163   0.71589   0.00000  Uiso   1.00
C1134  C     0.34298   0.85463   0.78443   0.00000  Uiso   1.00
C1135  C     0.37123   0.81184   0.71627   0.00000  Uiso   1.00
C1136  C     0.62875   0.85471   0.78383   0.00000  Uiso   1.00
C1137  C     0.46949   0.83264   0.83844   0.00000  Uiso   1.00
C1138  C     0.53058   0.83286   0.66158   0.00000  Uiso   1.00
C1139  C     0.45172   0.82366   0.88910   0.00000  Uiso   1.00
C1140  C     0.55008   0.82841   0.60997   0.00000  Uiso   1.00
C1141  C     0.39780   0.78652   0.95752   0.00000  Uiso   1.00
C1142  C     0.61509   0.83454   0.53292   0.00000  Uiso   1.00
C1143  C     0.40764   0.80322   0.91270   0.00000  Uiso   1.00
C1144  C     0.59844   0.83811   0.58206   0.00000  Uiso   1.00
C1145  C     0.48507   0.82758   0.91086   0.00000  Uiso   1.00
C1146  C     0.51919   0.81372   0.58855   0.00000  Uiso   1.00
C1147  C     0.47921   0.80565   0.95182   0.00000  Uiso   1.00
C1148  C     0.53586   0.80763   0.53952   0.00000  Uiso   1.00
C1149  C     0.43343   0.78768   0.97733   0.00000  Uiso   1.00
C1150  C     0.58375   0.82051   0.51144   0.00000  Uiso   1.00
C1151  C     0.51699   0.80341   0.96921   0.00000  Uiso   1.00
C1152  C     0.50418   0.79392   0.51752   0.00000  Uiso   1.00
H1153  H     0.39048   0.75466   0.54043   0.00000  Uiso   1.00
H1154  H     0.63656   0.82800   0.94046   0.00000  Uiso   1.00
H1155  H     0.48127   0.80891   0.61041   0.00000  Uiso   1.00
H1156  H     0.51702   0.84643   0.89413   0.00000  Uiso   1.00
H1157  H     0.62269   0.85000   0.59798   0.00000  Uiso   1.00
H1158  H     0.38191   0.79880   0.89585   0.00000  Uiso   1.00
H1159  H     0.36326   0.77135   0.97582   0.00000  Uiso   1.00
H1160  H     0.65193   0.84396   0.51170   0.00000  Uiso   1.00
H1161  H     0.56353   0.96219   0.76860   0.00000  Uiso   1.00
H1162  H     0.43646   0.70450   0.73142   0.00000  Uiso   1.00
H1163  H     0.56393   0.70397   0.76807   0.00000  Uiso   1.00
H1164  H     0.43603   0.96272   0.73200   0.00000  Uiso   1.00
H1165  H     0.40070   0.79488   0.68940   0.00000  Uiso   1.00
H1166  H     0.59926   0.87151   0.81084   0.00000  Uiso   1.00
N1167  N     0.38093   0.83334   0.75001   0.00000  Uiso   1.00
N1168  N     0.61907   0.83332   0.74999   0.00000  Uiso   1.00
O1169  O     0.46179   0.89442   0.75000   0.00000  Uiso   1.00
O1170  O     0.53821   0.77225   0.74999   0.00000  Uiso   1.00
O1171  O     0.53823   0.89441   0.75000   0.00000  Uiso   1.00
O1172  O     0.46177   0.77226   0.75000   0.00000  Uiso   1.00
O1173  O     0.43994   0.83334   0.81612   0.00000  Uiso   1.00
O1174  O     0.56006   0.83333   0.68387   0.00000  Uiso   1.00
O1175  O     0.51639   0.83333   0.81612   0.00000  Uiso   1.00
O1176  O     0.48361   0.83334   0.68388   0.00000  Uiso   1.00
Zn1177 Zn    0.44896   0.83334   0.75000   0.00000  Uiso   1.00
Zn1178 Zn    0.55104   0.83333   0.75000   0.00000  Uiso   1.00
O1179  O     0.44997   0.75092   0.58294   0.00000  Uiso   1.00
H1180  H     0.48158   0.74145   0.58351   0.00000  Uiso   1.00
O1181  O     0.58638   0.80715   0.89197   0.00000  Uiso   1.00
H1182  H     0.56678   0.78656   0.88280   0.00000  Uiso   1.00
C1183  C     0.64960   0.78797   0.67662   0.00000  Uiso   1.00
H1184  H     0.34884   0.76872   0.65591   0.00000  Uiso   1.00
H1185  H     0.61871   0.76643   0.69068   0.00000  Uiso   1.00
H1186  H     0.64410   0.81006   0.65159   0.00000  Uiso   1.00
C1187  C     0.35010   0.87709   0.82453   0.00000  Uiso   1.00
H1188  H     0.65099   0.89640   0.84542   0.00000  Uiso   1.00
H1189  H     0.35506   0.85418   0.84921   0.00000  Uiso   1.00
H1190  H     0.38135   0.89837   0.81124   0.00000  Uiso   1.00
C1191  C     0.83318   0.91332   0.75018   0.00000  Uiso   1.00
C1192  C     0.83348   0.75335   0.74984   0.00000  Uiso   1.00
C1193  C     0.79269   0.77280   0.54181   0.00000  Uiso   1.00
C1194  C     0.90029   0.81113   0.94068   0.00000  Uiso   1.00
C1195  C     0.75789   0.77034   0.52151   0.00000  Uiso   1.00
C1196  C     0.93267   0.82018   0.96230   0.00000  Uiso   1.00
C1197  C     0.86914   0.97854   0.76030   0.00000  Uiso   1.00
C1198  C     0.79751   0.68814   0.73974   0.00000  Uiso   1.00
C1199  C     0.86942   0.68784   0.75997   0.00000  Uiso   1.00
C1200  C     0.79722   0.97884   0.74009   0.00000  Uiso   1.00
C1201  C     0.83357   0.70918   0.74974   0.00000  Uiso   1.00
C1202  C     0.83307   0.95750   0.75030   0.00000  Uiso   1.00
C1203  C     0.99026   0.81163   0.71589   0.00000  Uiso   1.00
C1204  C     0.67632   0.85463   0.78443   0.00000  Uiso   1.00
C1205  C     0.70457   0.81184   0.71627   0.00000  Uiso   1.00
C1206  C     0.96208   0.85471   0.78383   0.00000  Uiso   1.00
C1207  C     0.80282   0.83264   0.83844   0.00000  Uiso   1.00
C1208  C     0.86391   0.83286   0.66158   0.00000  Uiso   1.00
C1209  C     0.78506   0.82366   0.88910   0.00000  Uiso   1.00
C1210  C     0.88341   0.82841   0.60997   0.00000  Uiso   1.00
C1211  C     0.73113   0.78652   0.95752   0.00000  Uiso   1.00
C1212  C     0.94842   0.83454   0.53292   0.00000  Uiso   1.00
C1213  C     0.74097   0.80322   0.91270   0.00000  Uiso   1.00
C1214  C     0.93177   0.83811   0.58206   0.00000  Uiso   1.00
C1215  C     0.81840   0.82758   0.91086   0.00000  Uiso   1.00
C1216  C     0.85252   0.81372   0.58855   0.00000  Uiso   1.00
C1217  C     0.81255   0.80565   0.95182   0.00000  Uiso   1.00
C1218  C     0.86919   0.80763   0.53952   0.00000  Uiso   1.00
C1219  C     0.76677   0.78768   0.97733   0.00000  Uiso   1.00
C1220  C     0.91708   0.82051   0.51144   0.00000  Uiso   1.00
C1221  C     0.85032   0.80341   0.96921   0.00000  Uiso   1.00
C1222  C     0.83751   0.79392   0.51752   0.00000  Uiso   1.00
H1223  H     0.72381   0.75466   0.54043   0.00000  Uiso   1.00
H1224  H     0.96989   0.82800   0.94046   0.00000  Uiso   1.00
H1225  H     0.81461   0.80891   0.61041   0.00000  Uiso   1.00
H1226  H     0.85035   0.84643   0.89413   0.00000  Uiso   1.00
H1227  H     0.95602   0.85000   0.59798   0.00000  Uiso   1.00
H1228  H     0.71524   0.79880   0.89585   0.00000  Uiso   1.00
H1229  H     0.69660   0.77135   0.97582   0.00000  Uiso   1.00
H1230  H     0.98527   0.84396   0.51170   0.00000  Uiso   1.00
H1231  H     0.89686   0.96219   0.76860   0.00000  Uiso   1.00
H1232  H     0.76980   0.70450   0.73142   0.00000  Uiso   1.00
H1233  H     0.89727   0.70397   0.76807   0.00000  Uiso   1.00
H1234  H     0.76936   0.96272   0.73200   0.00000  Uiso   1.00
H1235  H     0.73403   0.79488   0.68940   0.00000  Uiso   1.00
H1236  H     0.93259   0.87151   0.81084   0.00000  Uiso   1.00
N1237  N     0.71426   0.83334   0.75001   0.00000  Uiso   1.00
N1238  N     0.95241   0.83332   0.74999   0.00000  Uiso   1.00
O1239  O     0.79512   0.89442   0.75000   0.00000  Uiso   1.00
O1240  O     0.87154   0.77225   0.74999   0.00000  Uiso   1.00
O1241  O     0.87157   0.89441   0.75000   0.00000  Uiso   1.00
O1242  O     0.79510   0.77226   0.75000   0.00000  Uiso   1.00
O1243  O     0.77328   0.83334   0.81612   0.00000  Uiso   1.00
O1244  O     0.89339   0.83333   0.68387   0.00000  Uiso   1.00
O1245  O     0.84972   0.83333   0.81612   0.00000  Uiso   1.00
O1246  O     0.81695   0.83334   0.68388   0.00000  Uiso   1.00
Zn1247 Zn    0.78229   0.83334   0.75000   0.00000  Uiso   1.00
Zn1248 Zn    0.88438   0.83333   0.75000   0.00000  Uiso   1.00
O1249  O     0.78330   0.75092   0.58294   0.00000  Uiso   1.00
H1250  H     0.81492   0.74145   0.58351   0.00000  Uiso   1.00
O1251  O     0.91972   0.80715   0.89197   0.00000  Uiso   1.00
H1252  H     0.90011   0.78656   0.88280   0.00000  Uiso   1.00
C1253  C     0.98293   0.78797   0.67662   0.00000  Uiso   1.00
H1254  H     0.68217   0.76872   0.65591   0.00000  Uiso   1.00
H1255  H     0.95204   0.76643   0.69068   0.00000  Uiso   1.00
H1256  H     0.97744   0.81006   0.65159   0.00000  Uiso   1.00
C1257  C     0.68344   0.87709   0.82453   0.00000  Uiso   1.00
H1258  H     0.98432   0.89640   0.84542   0.00000  Uiso   1.00
H1259  H     0.68839   0.85418   0.84921   0.00000  Uiso   1.00
H1260  H     0.71469   0.89837   0.81124   0.00000  Uiso   1.00
loop_
_geom_bond_atom_site_label_1
_geom_bond_atom_site_label_2
_geom_bond_distance
_geom_bond_site_symmetry_2
_ccdc_geom_bond_type
C1     O51     1.286   .     A
C1     C12     1.420   .     S
C1     O49     1.288   .     A
C2     O52     1.286   .     A
C2     C11     1.419   .     S
C2     O50     1.288   .     A
C3     C5      1.397   .     A
C3     C32     1.431   .     A
C3     O59     1.379   .     S
C4     C6      1.391   .     A
C4     C31     1.429   .     A
C4     O61     1.379   .     S
C5     H33     1.084   .     S
C5     C659    1.395   1_554 S
C6     H34     1.082   .     S
C6     C660    1.392   .     S
C7     C12     1.398   .     A
C7     H41     1.084   .     S
C7     C219    1.370   .     S
C8     C11     1.398   .     A
C8     H42     1.084   .     S
C8     C430    1.370   1_545 S
C9     C11     1.396   .     A
C9     H43     1.084   .     S
C9     C427    1.370   1_545 S
C10    H44     1.084   .     S
C10    C12     1.396   .     A
C10    C218    1.370   .     S
C13    N48     1.383   .     A
C13    C63     1.501   .     S
C13    C85     1.419   .     S
C14    C67     1.501   .     S
C14    N47     1.383   .     A
C14    C156    1.420   1_455 S
C15    N47     1.357   .     A
C15    H45     1.082   .     S
C15    C153    1.419   1_455 S
C16    N48     1.358   .     A
C16    H46     1.082   .     S
C16    C84     1.420   .     S
C17    O55     1.295   .     A
C17    O53     1.302   .     A
C17    C19     1.464   .     S
C18    O56     1.296   .     A
C18    C20     1.462   .     S
C18    O54     1.299   .     A
C19    C23     1.401   .     A
C19    C25     1.394   .     A
C20    C24     1.400   .     A
C20    C26     1.398   .     A
C21    C23     1.399   .     A
C21    H39     1.084   .     S
C21    C29     1.407   .     A
C22    H40     1.083   .     S
C22    C24     1.393   .     A
C22    C30     1.403   .     A
C23    H38     1.082   .     S
C24    H37     1.082   .     S
C25    H36     1.082   .     S
C25    C27     1.394   .     A
C26    C28     1.398   .     A
C26    H35     1.080   .     S
C27    C29     1.413   .     A
C27    C31     1.415   .     A
C28    C30     1.417   .     A
C28    C32     1.420   .     A
C29    C635    1.395   .     S
C30    C636    1.392   1_554 S
C31    C662    1.413   .     S
C32    C661    1.413   1_554 S
N47    Zn57    2.020   .     S
N48    Zn58    2.020   .     S
O49    Zn57    2.002   .     S
O50    Zn58    2.002   .     S
O51    Zn58    1.996   .     S
O52    Zn57    1.996   .     S
O53    Zn57    1.934   .     S
O54    Zn58    1.934   .     S
O55    Zn58    1.884   .     S
O56    Zn57    1.884   .     S
O59    H60     0.991   .     S
O61    H62     0.991   .     S
C63    H65     1.103   .     S
C63    H66     1.104   .     S
C63    H134    1.111   .     S
H64    C203    1.111   1_455 S
C67    H70     1.104   .     S
C67    H69     1.107   .     S
C67    H208    1.111   1_455 S
H68    C137    1.111   .     S
C71    O121    1.286   .     A
C71    C82     1.420   .     S
C71    O119    1.288   .     A
C72    O122    1.286   .     A
C72    C81     1.419   .     S
C72    O120    1.288   .     A
C73    C75     1.397   .     A
C73    C102    1.431   .     A
C73    O129    1.379   .     S
C74    C76     1.391   .     A
C74    C101    1.429   .     A
C74    O131    1.379   .     S
C75    H103    1.084   .     S
C75    C729    1.395   1_554 S
C76    H104    1.082   .     S
C76    C730    1.392   .     S
C77    C82     1.398   .     A
C77    H111    1.084   .     S
C77    C289    1.370   .     S
C78    C81     1.398   .     A
C78    H112    1.084   .     S
C78    C500    1.370   1_545 S
C79    C81     1.396   .     A
C79    H113    1.084   .     S
C79    C497    1.370   1_545 S
C80    H114    1.084   .     S
C80    C82     1.396   .     A
C80    C288    1.370   .     S
C83    N118    1.383   .     A
C83    C133    1.501   .     S
C83    C155    1.419   .     S
C84    C137    1.501   .     S
C84    N117    1.383   .     A
C85    N117    1.357   .     A
C85    H115    1.082   .     S
C86    N118    1.358   .     A
C86    H116    1.082   .     S
C86    C154    1.420   .     S
C87    O125    1.295   .     A
C87    O123    1.302   .     A
C87    C89     1.464   .     S
C88    O126    1.296   .     A
C88    C90     1.462   .     S
C88    O124    1.299   .     A
C89    C93     1.401   .     A
C89    C95     1.394   .     A
C90    C94     1.400   .     A
C90    C96     1.398   .     A
C91    C93     1.399   .     A
C91    H109    1.084   .     S
C91    C99     1.407   .     A
C92    H110    1.083   .     S
C92    C94     1.393   .     A
C92    C100    1.403   .     A
C93    H108    1.082   .     S
C94    H107    1.082   .     S
C95    H106    1.082   .     S
C95    C97     1.394   .     A
C96    C98     1.398   .     A
C96    H105    1.080   .     S
C97    C99     1.413   .     A
C97    C101    1.415   .     A
C98    C100    1.417   .     A
C98    C102    1.420   .     A
C99    C705    1.395   .     S
C100   C706    1.392   1_554 S
C101   C732    1.413   .     S
C102   C731    1.413   1_554 S
N117   Zn127   2.020   .     S
N118   Zn128   2.020   .     S
O119   Zn127   2.002   .     S
O120   Zn128   2.002   .     S
O121   Zn128   1.996   .     S
O122   Zn127   1.996   .     S
O123   Zn127   1.934   .     S
O124   Zn128   1.934   .     S
O125   Zn128   1.884   .     S
O126   Zn127   1.884   .     S
O129   H130    0.991   .     S
O131   H132    0.991   .     S
C133   H135    1.103   .     S
C133   H136    1.104   .     S
C133   H204    1.111   .     S
C137   H140    1.104   .     S
C137   H139    1.107   .     S
H138   C207    1.111   .     S
C141   O191    1.286   .     A
C141   C152    1.420   .     S
C141   O189    1.288   .     A
C142   O192    1.286   .     A
C142   C151    1.419   .     S
C142   O190    1.288   .     A
C143   C145    1.397   .     A
C143   C172    1.431   .     A
C143   O199    1.379   .     S
C144   C146    1.391   .     A
C144   C171    1.429   .     A
C144   O201    1.379   .     S
C145   H173    1.084   .     S
C145   C799    1.395   1_554 S
C146   H174    1.082   .     S
C146   C800    1.392   .     S
C147   C152    1.398   .     A
C147   H181    1.084   .     S
C147   C359    1.370   .     S
C148   C151    1.398   .     A
C148   H182    1.084   .     S
C148   C570    1.370   1_545 S
C149   C151    1.396   .     A
C149   H183    1.084   .     S
C149   C567    1.370   1_545 S
C150   H184    1.084   .     S
C150   C152    1.396   .     A
C150   C358    1.370   .     S
C153   N188    1.383   .     A
C153   C203    1.501   .     S
C153   C15     1.419   1_655 S
C154   C207    1.501   .     S
C154   N187    1.383   .     A
C155   N187    1.357   .     A
C155   H185    1.082   .     S
C156   N188    1.358   .     A
C156   H186    1.082   .     S
C156   C14     1.420   1_655 S
C157   O195    1.295   .     A
C157   O193    1.302   .     A
C157   C159    1.464   .     S
C158   O196    1.296   .     A
C158   C160    1.462   .     S
C158   O194    1.299   .     A
C159   C163    1.401   .     A
C159   C165    1.394   .     A
C160   C164    1.400   .     A
C160   C166    1.398   .     A
C161   C163    1.399   .     A
C161   H179    1.084   .     S
C161   C169    1.407   .     A
C162   H180    1.083   .     S
C162   C164    1.393   .     A
C162   C170    1.403   .     A
C163   H178    1.082   .     S
C164   H177    1.082   .     S
C165   H176    1.082   .     S
C165   C167    1.394   .     A
C166   C168    1.398   .     A
C166   H175    1.080   .     S
C167   C169    1.413   .     A
C167   C171    1.415   .     A
C168   C170    1.417   .     A
C168   C172    1.420   .     A
C169   C775    1.395   .     S
C170   C776    1.392   1_554 S
C171   C802    1.413   .     S
C172   C801    1.413   1_554 S
N187   Zn197   2.020   .     S
N188   Zn198   2.020   .     S
O189   Zn197   2.002   .     S
O190   Zn198   2.002   .     S
O191   Zn198   1.996   .     S
O192   Zn197   1.996   .     S
O193   Zn197   1.934   .     S
O194   Zn198   1.934   .     S
O195   Zn198   1.884   .     S
O196   Zn197   1.884   .     S
O199   H200    0.991   .     S
O201   H202    0.991   .     S
C203   H205    1.103   .     S
C203   H206    1.104   .     S
C203   H64     1.111   1_655 S
C207   H210    1.104   .     S
C207   H209    1.107   .     S
H208   C67     1.111   1_655 S
C211   O261    1.286   .     A
C211   C222    1.420   .     S
C211   O259    1.288   .     A
C212   O262    1.286   .     A
C212   C221    1.419   .     S
C212   O260    1.288   .     A
C213   C215    1.397   .     A
C213   C242    1.431   .     A
C213   O269    1.379   .     S
C214   C216    1.391   .     A
C214   C241    1.429   .     A
C214   O271    1.379   .     S
C215   H243    1.084   .     S
C215   C869    1.395   1_554 S
C216   H244    1.082   .     S
C216   C870    1.392   .     S
C217   C222    1.398   .     A
C217   H251    1.084   .     S
C217   C429    1.370   .     S
C218   C221    1.398   .     A
C218   H252    1.084   .     S
C219   C221    1.396   .     A
C219   H253    1.084   .     S
C220   H254    1.084   .     S
C220   C222    1.396   .     A
C220   C428    1.370   .     S
C223   N258    1.383   .     A
C223   C273    1.501   .     S
C223   C295    1.419   .     S
C224   C277    1.501   .     S
C224   N257    1.383   .     A
C224   C366    1.420   1_455 S
C225   N257    1.357   .     A
C225   H255    1.082   .     S
C225   C363    1.419   1_455 S
C226   N258    1.358   .     A
C226   H256    1.082   .     S
C226   C294    1.420   .     S
C227   O265    1.295   .     A
C227   O263    1.302   .     A
C227   C229    1.464   .     S
C228   O266    1.296   .     A
C228   C230    1.462   .     S
C228   O264    1.299   .     A
C229   C233    1.401   .     A
C229   C235    1.394   .     A
C230   C234    1.400   .     A
C230   C236    1.398   .     A
C231   C233    1.399   .     A
C231   H249    1.084   .     S
C231   C239    1.407   .     A
C232   H250    1.083   .     S
C232   C234    1.393   .     A
C232   C240    1.403   .     A
C233   H248    1.082   .     S
C234   H247    1.082   .     S
C235   H246    1.082   .     S
C235   C237    1.394   .     A
C236   C238    1.398   .     A
C236   H245    1.080   .     S
C237   C239    1.413   .     A
C237   C241    1.415   .     A
C238   C240    1.417   .     A
C238   C242    1.420   .     A
C239   C845    1.395   .     S
C240   C846    1.392   1_554 S
C241   C872    1.413   .     S
C242   C871    1.413   1_554 S
N257   Zn267   2.020   .     S
N258   Zn268   2.020   .     S
O259   Zn267   2.002   .     S
O260   Zn268   2.002   .     S
O261   Zn268   1.996   .     S
O262   Zn267   1.996   .     S
O263   Zn267   1.934   .     S
O264   Zn268   1.934   .     S
O265   Zn268   1.884   .     S
O266   Zn267   1.884   .     S
O269   H270    0.991   .     S
O271   H272    0.991   .     S
C273   H275    1.103   .     S
C273   H276    1.104   .     S
C273   H344    1.111   .     S
H274   C413    1.111   1_455 S
C277   H280    1.104   .     S
C277   H279    1.107   .     S
C277   H418    1.111   1_455 S
H278   C347    1.111   .     S
C281   O331    1.286   .     A
C281   C292    1.420   .     S
C281   O329    1.288   .     A
C282   O332    1.286   .     A
C282   C291    1.419   .     S
C282   O330    1.288   .     A
C283   C285    1.397   .     A
C283   C312    1.431   .     A
C283   O339    1.379   .     S
C284   C286    1.391   .     A
C284   C311    1.429   .     A
C284   O341    1.379   .     S
C285   H313    1.084   .     S
C285   C939    1.395   1_554 S
C286   H314    1.082   .     S
C286   C940    1.392   .     S
C287   C292    1.398   .     A
C287   H321    1.084   .     S
C287   C499    1.370   .     S
C288   C291    1.398   .     A
C288   H322    1.084   .     S
C289   C291    1.396   .     A
C289   H323    1.084   .     S
C290   H324    1.084   .     S
C290   C292    1.396   .     A
C290   C498    1.370   .     S
C293   N328    1.383   .     A
C293   C343    1.501   .     S
C293   C365    1.419   .     S
C294   C347    1.501   .     S
C294   N327    1.383   .     A
C295   N327    1.357   .     A
C295   H325    1.082   .     S
C296   N328    1.358   .     A
C296   H326    1.082   .     S
C296   C364    1.420   .     S
C297   O335    1.295   .     A
C297   O333    1.302   .     A
C297   C299    1.464   .     S
C298   O336    1.296   .     A
C298   C300    1.462   .     S
C298   O334    1.299   .     A
C299   C303    1.401   .     A
C299   C305    1.394   .     A
C300   C304    1.400   .     A
C300   C306    1.398   .     A
C301   C303    1.399   .     A
C301   H319    1.084   .     S
C301   C309    1.407   .     A
C302   H320    1.083   .     S
C302   C304    1.393   .     A
C302   C310    1.403   .     A
C303   H318    1.082   .     S
C304   H317    1.082   .     S
C305   H316    1.082   .     S
C305   C307    1.394   .     A
C306   C308    1.398   .     A
C306   H315    1.080   .     S
C307   C309    1.413   .     A
C307   C311    1.415   .     A
C308   C310    1.417   .     A
C308   C312    1.420   .     A
C309   C915    1.395   .     S
C310   C916    1.392   1_554 S
C311   C942    1.413   .     S
C312   C941    1.413   1_554 S
N327   Zn337   2.020   .     S
N328   Zn338   2.020   .     S
O329   Zn337   2.002   .     S
O330   Zn338   2.002   .     S
O331   Zn338   1.996   .     S
O332   Zn337   1.996   .     S
O333   Zn337   1.934   .     S
O334   Zn338   1.934   .     S
O335   Zn338   1.884   .     S
O336   Zn337   1.884   .     S
O339   H340    0.991   .     S
O341   H342    0.991   .     S
C343   H345    1.103   .     S
C343   H346    1.104   .     S
C343   H414    1.111   .     S
C347   H350    1.104   .     S
C347   H349    1.107   .     S
H348   C417    1.111   .     S
C351   O401    1.286   .     A
C351   C362    1.420   .     S
C351   O399    1.288   .     A
C352   O402    1.286   .     A
C352   C361    1.419   .     S
C352   O400    1.288   .     A
C353   C355    1.397   .     A
C353   C382    1.431   .     A
C353   O409    1.379   .     S
C354   C356    1.391   .     A
C354   C381    1.429   .     A
C354   O411    1.379   .     S
C355   H383    1.084   .     S
C355   C1009   1.395   1_554 S
C356   H384    1.082   .     S
C356   C1010   1.392   .     S
C357   C362    1.398   .     A
C357   H391    1.084   .     S
C357   C569    1.370   .     S
C358   C361    1.398   .     A
C358   H392    1.084   .     S
C359   C361    1.396   .     A
C359   H393    1.084   .     S
C360   H394    1.084   .     S
C360   C362    1.396   .     A
C360   C568    1.370   .     S
C363   N398    1.383   .     A
C363   C413    1.501   .     S
C363   C225    1.419   1_655 S
C364   C417    1.501   .     S
C364   N397    1.383   .     A
C365   N397    1.357   .     A
C365   H395    1.082   .     S
C366   N398    1.358   .     A
C366   H396    1.082   .     S
C366   C224    1.420   1_655 S
C367   O405    1.295   .     A
C367   O403    1.302   .     A
C367   C369    1.464   .     S
C368   O406    1.296   .     A
C368   C370    1.462   .     S
C368   O404    1.299   .     A
C369   C373    1.401   .     A
C369   C375    1.394   .     A
C370   C374    1.400   .     A
C370   C376    1.398   .     A
C371   C373    1.399   .     A
C371   H389    1.084   .     S
C371   C379    1.407   .     A
C372   H390    1.083   .     S
C372   C374    1.393   .     A
C372   C380    1.403   .     A
C373   H388    1.082   .     S
C374   H387    1.082   .     S
C375   H386    1.082   .     S
C375   C377    1.394   .     A
C376   C378    1.398   .     A
C376   H385    1.080   .     S
C377   C379    1.413   .     A
C377   C381    1.415   .     A
C378   C380    1.417   .     A
C378   C382    1.420   .     A
C379   C985    1.395   .     S
C380   C986    1.392   1_554 S
C381   C1012   1.413   .     S
C382   C1011   1.413   1_554 S
N397   Zn407   2.020   .     S
N398   Zn408   2.020   .     S
O399   Zn407   2.002   .     S
O400   Zn408   2.002   .     S
O401   Zn408   1.996   .     S
O402   Zn407   1.996   .     S
O403   Zn407   1.934   .     S
O404   Zn408   1.934   .     S
O405   Zn408   1.884   .     S
O406   Zn407   1.884   .     S
O409   H410    0.991   .     S
O411   H412    0.991   .     S
C413   H415    1.103   .     S
C413   H416    1.104   .     S
C413   H274    1.111   1_655 S
C417   H420    1.104   .     S
C417   H419    1.107   .     S
H418   C277    1.111   1_655 S
C421   O471    1.286   .     A
C421   C432    1.420   .     S
C421   O469    1.288   .     A
C422   O472    1.286   .     A
C422   C431    1.419   .     S
C422   O470    1.288   .     A
C423   C425    1.397   .     A
C423   C452    1.431   .     A
C423   O479    1.379   .     S
C424   C426    1.391   .     A
C424   C451    1.429   .     A
C424   O481    1.379   .     S
C425   H453    1.084   .     S
C425   C1079   1.395   1_554 S
C426   H454    1.082   .     S
C426   C1080   1.392   .     S
C427   C432    1.398   .     A
C427   H461    1.084   .     S
C427   C9      1.370   1_565 S
C428   C431    1.398   .     A
C428   H462    1.084   .     S
C429   C431    1.396   .     A
C429   H463    1.084   .     S
C430   H464    1.084   .     S
C430   C432    1.396   .     A
C430   C8      1.370   1_565 S
C433   N468    1.383   .     A
C433   C483    1.501   .     S
C433   C505    1.419   .     S
C434   C487    1.501   .     S
C434   N467    1.383   .     A
C434   C576    1.420   1_455 S
C435   N467    1.357   .     A
C435   H465    1.082   .     S
C435   C573    1.419   1_455 S
C436   N468    1.358   .     A
C436   H466    1.082   .     S
C436   C504    1.420   .     S
C437   O475    1.295   .     A
C437   O473    1.302   .     A
C437   C439    1.464   .     S
C438   O476    1.296   .     A
C438   C440    1.462   .     S
C438   O474    1.299   .     A
C439   C443    1.401   .     A
C439   C445    1.394   .     A
C440   C444    1.400   .     A
C440   C446    1.398   .     A
C441   C443    1.399   .     A
C441   H459    1.084   .     S
C441   C449    1.407   .     A
C442   H460    1.083   .     S
C442   C444    1.393   .     A
C442   C450    1.403   .     A
C443   H458    1.082   .     S
C444   H457    1.082   .     S
C445   H456    1.082   .     S
C445   C447    1.394   .     A
C446   C448    1.398   .     A
C446   H455    1.080   .     S
C447   C449    1.413   .     A
C447   C451    1.415   .     A
C448   C450    1.417   .     A
C448   C452    1.420   .     A
C449   C1055   1.395   .     S
C450   C1056   1.392   1_554 S
C451   C1082   1.413   .     S
C452   C1081   1.413   1_554 S
N467   Zn477   2.020   .     S
N468   Zn478   2.020   .     S
O469   Zn477   2.002   .     S
O470   Zn478   2.002   .     S
O471   Zn478   1.996   .     S
O472   Zn477   1.996   .     S
O473   Zn477   1.934   .     S
O474   Zn478   1.934   .     S
O475   Zn478   1.884   .     S
O476   Zn477   1.884   .     S
O479   H480    0.991   .     S
O481   H482    0.991   .     S
C483   H485    1.103   .     S
C483   H486    1.104   .     S
C483   H554    1.111   .     S
H484   C623    1.111   1_455 S
C487   H490    1.104   .     S
C487   H489    1.107   .     S
C487   H628    1.111   1_455 S
H488   C557    1.111   .     S
C491   O541    1.286   .     A
C491   C502    1.420   .     S
C491   O539    1.288   .     A
C492   O542    1.286   .     A
C492   C501    1.419   .     S
C492   O540    1.288   .     A
C493   C495    1.397   .     A
C493   C522    1.431   .     A
C493   O549    1.379   .     S
C494   C496    1.391   .     A
C494   C521    1.429   .     A
C494   O551    1.379   .     S
C495   H523    1.084   .     S
C495   C1149   1.395   1_554 S
C496   H524    1.082   .     S
C496   C1150   1.392   .     S
C497   C502    1.398   .     A
C497   H531    1.084   .     S
C497   C79     1.370   1_565 S
C498   C501    1.398   .     A
C498   H532    1.084   .     S
C499   C501    1.396   .     A
C499   H533    1.084   .     S
C500   H534    1.084   .     S
C500   C502    1.396   .     A
C500   C78     1.370   1_565 S
C503   N538    1.383   .     A
C503   C553    1.501   .     S
C503   C575    1.419   .     S
C504   C557    1.501   .     S
C504   N537    1.383   .     A
C505   N537    1.357   .     A
C505   H535    1.082   .     S
C506   N538    1.358   .     A
C506   H536    1.082   .     S
C506   C574    1.420   .     S
C507   O545    1.295   .     A
C507   O543    1.302   .     A
C507   C509    1.464   .     S
C508   O546    1.296   .     A
C508   C510    1.462   .     S
C508   O544    1.299   .     A
C509   C513    1.401   .     A
C509   C515    1.394   .     A
C510   C514    1.400   .     A
C510   C516    1.398   .     A
C511   C513    1.399   .     A
C511   H529    1.084   .     S
C511   C519    1.407   .     A
C512   H530    1.083   .     S
C512   C514    1.393   .     A
C512   C520    1.403   .     A
C513   H528    1.082   .     S
C514   H527    1.082   .     S
C515   H526    1.082   .     S
C515   C517    1.394   .     A
C516   C518    1.398   .     A
C516   H525    1.080   .     S
C517   C519    1.413   .     A
C517   C521    1.415   .     A
C518   C520    1.417   .     A
C518   C522    1.420   .     A
C519   C1125   1.395   .     S
C520   C1126   1.392   1_554 S
C521   C1152   1.413   .     S
C522   C1151   1.413   1_554 S
N537   Zn547   2.020   .     S
N538   Zn548   2.020   .     S
O539   Zn547   2.002   .     S
O540   Zn548   2.002   .     S
O541   Zn548   1.996   .     S
O542   Zn547   1.996   .     S
O543   Zn547   1.934   .     S
O544   Zn548   1.934   .     S
O545   Zn548   1.884   .     S
O546   Zn547   1.884   .     S
O549   H550    0.991   .     S
O551   H552    0.991   .     S
C553   H555    1.103   .     S
C553   H556    1.104   .     S
C553   H624    1.111   .     S
C557   H560    1.104   .     S
C557   H559    1.107   .     S
H558   C627    1.111   .     S
C561   O611    1.286   .     A
C561   C572    1.420   .     S
C561   O609    1.288   .     A
C562   O612    1.286   .     A
C562   C571    1.419   .     S
C562   O610    1.288   .     A
C563   C565    1.397   .     A
C563   C592    1.431   .     A
C563   O619    1.379   .     S
C564   C566    1.391   .     A
C564   C591    1.429   .     A
C564   O621    1.379   .     S
C565   H593    1.084   .     S
C565   C1219   1.395   1_554 S
C566   H594    1.082   .     S
C566   C1220   1.392   .     S
C567   C572    1.398   .     A
C567   H601    1.084   .     S
C567   C149    1.370   1_565 S
C568   C571    1.398   .     A
C568   H602    1.084   .     S
C569   C571    1.396   .     A
C569   H603    1.084   .     S
C570   H604    1.084   .     S
C570   C572    1.396   .     A
C570   C148    1.370   1_565 S
C573   N608    1.383   .     A
C573   C623    1.501   .     S
C573   C435    1.419   1_655 S
C574   C627    1.501   .     S
C574   N607    1.383   .     A
C575   N607    1.357   .     A
C575   H605    1.082   .     S
C576   N608    1.358   .     A
C576   H606    1.082   .     S
C576   C434    1.420   1_655 S
C577   O615    1.295   .     A
C577   O613    1.302   .     A
C577   C579    1.464   .     S
C578   O616    1.296   .     A
C578   C580    1.462   .     S
C578   O614    1.299   .     A
C579   C583    1.401   .     A
C579   C585    1.394   .     A
C580   C584    1.400   .     A
C580   C586    1.398   .     A
C581   C583    1.399   .     A
C581   H599    1.084   .     S
C581   C589    1.407   .     A
C582   H600    1.083   .     S
C582   C584    1.393   .     A
C582   C590    1.403   .     A
C583   H598    1.082   .     S
C584   H597    1.082   .     S
C585   H596    1.082   .     S
C585   C587    1.394   .     A
C586   C588    1.398   .     A
C586   H595    1.080   .     S
C587   C589    1.413   .     A
C587   C591    1.415   .     A
C588   C590    1.417   .     A
C588   C592    1.420   .     A
C589   C1195   1.395   .     S
C590   C1196   1.392   1_554 S
C591   C1222   1.413   .     S
C592   C1221   1.413   1_554 S
N607   Zn617   2.020   .     S
N608   Zn618   2.020   .     S
O609   Zn617   2.002   .     S
O610   Zn618   2.002   .     S
O611   Zn618   1.996   .     S
O612   Zn617   1.996   .     S
O613   Zn617   1.934   .     S
O614   Zn618   1.934   .     S
O615   Zn618   1.884   .     S
O616   Zn617   1.884   .     S
O619   H620    0.991   .     S
O621   H622    0.991   .     S
C623   H625    1.103   .     S
C623   H626    1.104   .     S
C623   H484    1.111   1_655 S
C627   H630    1.104   .     S
C627   H629    1.107   .     S
H628   C487    1.111   1_655 S
C631   O681    1.286   .     A
C631   C642    1.420   .     S
C631   O679    1.288   .     A
C632   O682    1.286   .     A
C632   C641    1.419   .     S
C632   O680    1.288   .     A
C633   C635    1.397   .     A
C633   C662    1.431   .     A
C633   O689    1.379   .     S
C634   C636    1.391   .     A
C634   C661    1.429   .     A
C634   O691    1.379   .     S
C635   H663    1.084   .     S
C636   H664    1.082   .     S
C636   C30     1.392   1_556 S
C637   C642    1.398   .     A
C637   H671    1.084   .     S
C637   C849    1.370   .     S
C638   C641    1.398   .     A
C638   H672    1.084   .     S
C638   C1060   1.370   1_545 S
C639   C641    1.396   .     A
C639   H673    1.084   .     S
C639   C1057   1.370   1_545 S
C640   H674    1.084   .     S
C640   C642    1.396   .     A
C640   C848    1.370   .     S
C643   N678    1.383   .     A
C643   C693    1.501   .     S
C643   C715    1.419   .     S
C644   C697    1.501   .     S
C644   N677    1.383   .     A
C644   C786    1.420   1_455 S
C645   N677    1.357   .     A
C645   H675    1.082   .     S
C645   C783    1.419   1_455 S
C646   N678    1.358   .     A
C646   H676    1.082   .     S
C646   C714    1.420   .     S
C647   O685    1.295   .     A
C647   O683    1.302   .     A
C647   C649    1.464   .     S
C648   O686    1.296   .     A
C648   C650    1.462   .     S
C648   O684    1.299   .     A
C649   C653    1.401   .     A
C649   C655    1.394   .     A
C650   C654    1.400   .     A
C650   C656    1.398   .     A
C651   C653    1.399   .     A
C651   H669    1.084   .     S
C651   C659    1.407   .     A
C652   H670    1.083   .     S
C652   C654    1.393   .     A
C652   C660    1.403   .     A
C653   H668    1.082   .     S
C654   H667    1.082   .     S
C655   H666    1.082   .     S
C655   C657    1.394   .     A
C656   C658    1.398   .     A
C656   H665    1.080   .     S
C657   C659    1.413   .     A
C657   C661    1.415   .     A
C658   C660    1.417   .     A
C658   C662    1.420   .     A
C659   C5      1.395   1_556 S
C661   C32     1.413   1_556 S
N677   Zn687   2.020   .     S
N678   Zn688   2.020   .     S
O679   Zn687   2.002   .     S
O680   Zn688   2.002   .     S
O681   Zn688   1.996   .     S
O682   Zn687   1.996   .     S
O683   Zn687   1.934   .     S
O684   Zn688   1.934   .     S
O685   Zn688   1.884   .     S
O686   Zn687   1.884   .     S
O689   H690    0.991   .     S
O691   H692    0.991   .     S
C693   H695    1.103   .     S
C693   H696    1.104   .     S
C693   H764    1.111   .     S
H694   C833    1.111   1_455 S
C697   H700    1.104   .     S
C697   H699    1.107   .     S
C697   H838    1.111   1_455 S
H698   C767    1.111   .     S
C701   O751    1.286   .     A
C701   C712    1.420   .     S
C701   O749    1.288   .     A
C702   O752    1.286   .     A
C702   C711    1.419   .     S
C702   O750    1.288   .     A
C703   C705    1.397   .     A
C703   C732    1.431   .     A
C703   O759    1.379   .     S
C704   C706    1.391   .     A
C704   C731    1.429   .     A
C704   O761    1.379   .     S
C705   H733    1.084   .     S
C706   H734    1.082   .     S
C706   C100    1.392   1_556 S
C707   C712    1.398   .     A
C707   H741    1.084   .     S
C707   C919    1.370   .     S
C708   C711    1.398   .     A
C708   H742    1.084   .     S
C708   C1130   1.370   1_545 S
C709   C711    1.396   .     A
C709   H743    1.084   .     S
C709   C1127   1.370   1_545 S
C710   H744    1.084   .     S
C710   C712    1.396   .     A
C710   C918    1.370   .     S
C713   N748    1.383   .     A
C713   C763    1.501   .     S
C713   C785    1.419   .     S
C714   C767    1.501   .     S
C714   N747    1.383   .     A
C715   N747    1.357   .     A
C715   H745    1.082   .     S
C716   N748    1.358   .     A
C716   H746    1.082   .     S
C716   C784    1.420   .     S
C717   O755    1.295   .     A
C717   O753    1.302   .     A
C717   C719    1.464   .     S
C718   O756    1.296   .     A
C718   C720    1.462   .     S
C718   O754    1.299   .     A
C719   C723    1.401   .     A
C719   C725    1.394   .     A
C720   C724    1.400   .     A
C720   C726    1.398   .     A
C721   C723    1.399   .     A
C721   H739    1.084   .     S
C721   C729    1.407   .     A
C722   H740    1.083   .     S
C722   C724    1.393   .     A
C722   C730    1.403   .     A
C723   H738    1.082   .     S
C724   H737    1.082   .     S
C725   H736    1.082   .     S
C725   C727    1.394   .     A
C726   C728    1.398   .     A
C726   H735    1.080   .     S
C727   C729    1.413   .     A
C727   C731    1.415   .     A
C728   C730    1.417   .     A
C728   C732    1.420   .     A
C729   C75     1.395   1_556 S
C731   C102    1.413   1_556 S
N747   Zn757   2.020   .     S
N748   Zn758   2.020   .     S
O749   Zn757   2.002   .     S
O750   Zn758   2.002   .     S
O751   Zn758   1.996   .     S
O752   Zn757   1.996   .     S
O753   Zn757   1.934   .     S
O754   Zn758   1.934   .     S
O755   Zn758   1.884   .     S
O756   Zn757   1.884   .     S
O759   H760    0.991   .     S
O761   H762    0.991   .     S
C763   H765    1.103   .     S
C763   H766    1.104   .     S
C763   H834    1.111   .     S
C767   H770    1.104   .     S
C767   H769    1.107   .     S
H768   C837    1.111   .     S
C771   O821    1.286   .     A
C771   C782    1.420   .     S
C771   O819    1.288   .     A
C772   O822    1.286   .     A
C772   C781    1.419   .     S
C772   O820    1.288   .     A
C773   C775    1.397   .     A
C773   C802    1.431   .     A
C773   O829    1.379   .     S
C774   C776    1.391   .     A
C774   C801    1.429   .     A
C774   O831    1.379   .     S
C775   H803    1.084   .     S
C776   H804    1.082   .     S
C776   C170    1.392   1_556 S
C777   C782    1.398   .     A
C777   H811    1.084   .     S
C777   C989    1.370   .     S
C778   C781    1.398   .     A
C778   H812    1.084   .     S
C778   C1200   1.370   1_545 S
C779   C781    1.396   .     A
C779   H813    1.084   .     S
C779   C1197   1.370   1_545 S
C780   H814    1.084   .     S
C780   C782    1.396   .     A
C780   C988    1.370   .     S
C783   N818    1.383   .     A
C783   C833    1.501   .     S
C783   C645    1.419   1_655 S
C784   C837    1.501   .     S
C784   N817    1.383   .     A
C785   N817    1.357   .     A
C785   H815    1.082   .     S
C786   N818    1.358   .     A
C786   H816    1.082   .     S
C786   C644    1.420   1_655 S
C787   O825    1.295   .     A
C787   O823    1.302   .     A
C787   C789    1.464   .     S
C788   O826    1.296   .     A
C788   C790    1.462   .     S
C788   O824    1.299   .     A
C789   C793    1.401   .     A
C789   C795    1.394   .     A
C790   C794    1.400   .     A
C790   C796    1.398   .     A
C791   C793    1.399   .     A
C791   H809    1.084   .     S
C791   C799    1.407   .     A
C792   H810    1.083   .     S
C792   C794    1.393   .     A
C792   C800    1.403   .     A
C793   H808    1.082   .     S
C794   H807    1.082   .     S
C795   H806    1.082   .     S
C795   C797    1.394   .     A
C796   C798    1.398   .     A
C796   H805    1.080   .     S
C797   C799    1.413   .     A
C797   C801    1.415   .     A
C798   C800    1.417   .     A
C798   C802    1.420   .     A
C799   C145    1.395   1_556 S
C801   C172    1.413   1_556 S
N817   Zn827   2.020   .     S
N818   Zn828   2.020   .     S
O819   Zn827   2.002   .     S
O820   Zn828   2.002   .     S
O821   Zn828   1.996   .     S
O822   Zn827   1.996   .     S
O823   Zn827   1.934   .     S
O824   Zn828   1.934   .     S
O825   Zn828   1.884   .     S
O826   Zn827   1.884   .     S
O829   H830    0.991   .     S
O831   H832    0.991   .     S
C833   H835    1.103   .     S
C833   H836    1.104   .     S
C833   H694    1.111   1_655 S
C837   H840    1.104   .     S
C837   H839    1.107   .     S
H838   C697    1.111   1_655 S
C841   O891    1.286   .     A
C841   C852    1.420   .     S
C841   O889    1.288   .     A
C842   O892    1.286   .     A
C842   C851    1.419   .     S
C842   O890    1.288   .     A
C843   C845    1.397   .     A
C843   C872    1.431   .     A
C843   O899    1.379   .     S
C844   C846    1.391   .     A
C844   C871    1.429   .     A
C844   O901    1.379   .     S
C845   H873    1.084   .     S
C846   H874    1.082   .     S
C846   C240    1.392   1_556 S
C847   C852    1.398   .     A
C847   H881    1.084   .     S
C847   C1059   1.370   .     S
C848   C851    1.398   .     A
C848   H882    1.084   .     S
C849   C851    1.396   .     A
C849   H883    1.084   .     S
C850   H884    1.084   .     S
C850   C852    1.396   .     A
C850   C1058   1.370   .     S
C853   N888    1.383   .     A
C853   C903    1.501   .     S
C853   C925    1.419   .     S
C854   C907    1.501   .     S
C854   N887    1.383   .     A
C854   C996    1.420   1_455 S
C855   N887    1.357   .     A
C855   H885    1.082   .     S
C855   C993    1.419   1_455 S
C856   N888    1.358   .     A
C856   H886    1.082   .     S
C856   C924    1.420   .     S
C857   O895    1.295   .     A
C857   O893    1.302   .     A
C857   C859    1.464   .     S
C858   O896    1.296   .     A
C858   C860    1.462   .     S
C858   O894    1.299   .     A
C859   C863    1.401   .     A
C859   C865    1.394   .     A
C860   C864    1.400   .     A
C860   C866    1.398   .     A
C861   C863    1.399   .     A
C861   H879    1.084   .     S
C861   C869    1.407   .     A
C862   H880    1.083   .     S
C862   C864    1.393   .     A
C862   C870    1.403   .     A
C863   H878    1.082   .     S
C864   H877    1.082   .     S
C865   H876    1.082   .     S
C865   C867    1.394   .     A
C866   C868    1.398   .     A
C866   H875    1.080   .     S
C867   C869    1.413   .     A
C867   C871    1.415   .     A
C868   C870    1.417   .     A
C868   C872    1.420   .     A
C869   C215    1.395   1_556 S
C871   C242    1.413   1_556 S
N887   Zn897   2.020   .     S
N888   Zn898   2.020   .     S
O889   Zn897   2.002   .     S
O890   Zn898   2.002   .     S
O891   Zn898   1.996   .     S
O892   Zn897   1.996   .     S
O893   Zn897   1.934   .     S
O894   Zn898   1.934   .     S
O895   Zn898   1.884   .     S
O896   Zn897   1.884   .     S
O899   H900    0.991   .     S
O901   H902    0.991   .     S
C903   H905    1.103   .     S
C903   H906    1.104   .     S
C903   H974    1.111   .     S
H904   C1043   1.111   1_455 S
C907   H910    1.104   .     S
C907   H909    1.107   .     S
C907   H1048   1.111   1_455 S
H908   C977    1.111   .     S
C911   O961    1.286   .     A
C911   C922    1.420   .     S
C911   O959    1.288   .     A
C912   O962    1.286   .     A
C912   C921    1.419   .     S
C912   O960    1.288   .     A
C913   C915    1.397   .     A
C913   C942    1.431   .     A
C913   O969    1.379   .     S
C914   C916    1.391   .     A
C914   C941    1.429   .     A
C914   O971    1.379   .     S
C915   H943    1.084   .     S
C916   H944    1.082   .     S
C916   C310    1.392   1_556 S
C917   C922    1.398   .     A
C917   H951    1.084   .     S
C917   C1129   1.370   .     S
C918   C921    1.398   .     A
C918   H952    1.084   .     S
C919   C921    1.396   .     A
C919   H953    1.084   .     S
C920   H954    1.084   .     S
C920   C922    1.396   .     A
C920   C1128   1.370   .     S
C923   N958    1.383   .     A
C923   C973    1.501   .     S
C923   C995    1.419   .     S
C924   C977    1.501   .     S
C924   N957    1.383   .     A
C925   N957    1.357   .     A
C925   H955    1.082   .     S
C926   N958    1.358   .     A
C926   H956    1.082   .     S
C926   C994    1.420   .     S
C927   O965    1.295   .     A
C927   O963    1.302   .     A
C927   C929    1.464   .     S
C928   O966    1.296   .     A
C928   C930    1.462   .     S
C928   O964    1.299   .     A
C929   C933    1.401   .     A
C929   C935    1.394   .     A
C930   C934    1.400   .     A
C930   C936    1.398   .     A
C931   C933    1.399   .     A
C931   H949    1.084   .     S
C931   C939    1.407   .     A
C932   H950    1.083   .     S
C932   C934    1.393   .     A
C932   C940    1.403   .     A
C933   H948    1.082   .     S
C934   H947    1.082   .     S
C935   H946    1.082   .     S
C935   C937    1.394   .     A
C936   C938    1.398   .     A
C936   H945    1.080   .     S
C937   C939    1.413   .     A
C937   C941    1.415   .     A
C938   C940    1.417   .     A
C938   C942    1.420   .     A
C939   C285    1.395   1_556 S
C941   C312    1.413   1_556 S
N957   Zn967   2.020   .     S
N958   Zn968   2.020   .     S
O959   Zn967   2.002   .     S
O960   Zn968   2.002   .     S
O961   Zn968   1.996   .     S
O962   Zn967   1.996   .     S
O963   Zn967   1.934   .     S
O964   Zn968   1.934   .     S
O965   Zn968   1.884   .     S
O966   Zn967   1.884   .     S
O969   H970    0.991   .     S
O971   H972    0.991   .     S
C973   H975    1.103   .     S
C973   H976    1.104   .     S
C973   H1044   1.111   .     S
C977   H980    1.104   .     S
C977   H979    1.107   .     S
H978   C1047   1.111   .     S
C981   O1031   1.286   .     A
C981   C992    1.420   .     S
C981   O1029   1.288   .     A
C982   O1032   1.286   .     A
C982   C991    1.419   .     S
C982   O1030   1.288   .     A
C983   C985    1.397   .     A
C983   C1012   1.431   .     A
C983   O1039   1.379   .     S
C984   C986    1.391   .     A
C984   C1011   1.429   .     A
C984   O1041   1.379   .     S
C985   H1013   1.084   .     S
C986   H1014   1.082   .     S
C986   C380    1.392   1_556 S
C987   C992    1.398   .     A
C987   H1021   1.084   .     S
C987   C1199   1.370   .     S
C988   C991    1.398   .     A
C988   H1022   1.084   .     S
C989   C991    1.396   .     A
C989   H1023   1.084   .     S
C990   H1024   1.084   .     S
C990   C992    1.396   .     A
C990   C1198   1.370   .     S
C993   N1028   1.383   .     A
C993   C1043   1.501   .     S
C993   C855    1.419   1_655 S
C994   C1047   1.501   .     S
C994   N1027   1.383   .     A
C995   N1027   1.357   .     A
C995   H1025   1.082   .     S
C996   N1028   1.358   .     A
C996   H1026   1.082   .     S
C996   C854    1.420   1_655 S
C997   O1035   1.295   .     A
C997   O1033   1.302   .     A
C997   C999    1.464   .     S
C998   O1036   1.296   .     A
C998   C1000   1.462   .     S
C998   O1034   1.299   .     A
C999   C1003   1.401   .     A
C999   C1005   1.394   .     A
C1000  C1004   1.400   .     A
C1000  C1006   1.398   .     A
C1001  C1003   1.399   .     A
C1001  H1019   1.084   .     S
C1001  C1009   1.407   .     A
C1002  H1020   1.083   .     S
C1002  C1004   1.393   .     A
C1002  C1010   1.403   .     A
C1003  H1018   1.082   .     S
C1004  H1017   1.082   .     S
C1005  H1016   1.082   .     S
C1005  C1007   1.394   .     A
C1006  C1008   1.398   .     A
C1006  H1015   1.080   .     S
C1007  C1009   1.413   .     A
C1007  C1011   1.415   .     A
C1008  C1010   1.417   .     A
C1008  C1012   1.420   .     A
C1009  C355    1.395   1_556 S
C1011  C382    1.413   1_556 S
N1027  Zn1037  2.020   .     S
N1028  Zn1038  2.020   .     S
O1029  Zn1037  2.002   .     S
O1030  Zn1038  2.002   .     S
O1031  Zn1038  1.996   .     S
O1032  Zn1037  1.996   .     S
O1033  Zn1037  1.934   .     S
O1034  Zn1038  1.934   .     S
O1035  Zn1038  1.884   .     S
O1036  Zn1037  1.884   .     S
O1039  H1040   0.991   .     S
O1041  H1042   0.991   .     S
C1043  H1045   1.103   .     S
C1043  H1046   1.104   .     S
C1043  H904    1.111   1_655 S
C1047  H1050   1.104   .     S
C1047  H1049   1.107   .     S
H1048  C907    1.111   1_655 S
C1051  O1101   1.286   .     A
C1051  C1062   1.420   .     S
C1051  O1099   1.288   .     A
C1052  O1102   1.286   .     A
C1052  C1061   1.419   .     S
C1052  O1100   1.288   .     A
C1053  C1055   1.397   .     A
C1053  C1082   1.431   .     A
C1053  O1109   1.379   .     S
C1054  C1056   1.391   .     A
C1054  C1081   1.429   .     A
C1054  O1111   1.379   .     S
C1055  H1083   1.084   .     S
C1056  H1084   1.082   .     S
C1056  C450    1.392   1_556 S
C1057  C1062   1.398   .     A
C1057  H1091   1.084   .     S
C1057  C639    1.370   1_565 S
C1058  C1061   1.398   .     A
C1058  H1092   1.084   .     S
C1059  C1061   1.396   .     A
C1059  H1093   1.084   .     S
C1060  H1094   1.084   .     S
C1060  C1062   1.396   .     A
C1060  C638    1.370   1_565 S
C1063  N1098   1.383   .     A
C1063  C1113   1.501   .     S
C1063  C1135   1.419   .     S
C1064  C1117   1.501   .     S
C1064  N1097   1.383   .     A
C1064  C1206   1.420   1_455 S
C1065  N1097   1.357   .     A
C1065  H1095   1.082   .     S
C1065  C1203   1.419   1_455 S
C1066  N1098   1.358   .     A
C1066  H1096   1.082   .     S
C1066  C1134   1.420   .     S
C1067  O1105   1.295   .     A
C1067  O1103   1.302   .     A
C1067  C1069   1.464   .     S
C1068  O1106   1.296   .     A
C1068  C1070   1.462   .     S
C1068  O1104   1.299   .     A
C1069  C1073   1.401   .     A
C1069  C1075   1.394   .     A
C1070  C1074   1.400   .     A
C1070  C1076   1.398   .     A
C1071  C1073   1.399   .     A
C1071  H1089   1.084   .     S
C1071  C1079   1.407   .     A
C1072  H1090   1.083   .     S
C1072  C1074   1.393   .     A
C1072  C1080   1.403   .     A
C1073  H1088   1.082   .     S
C1074  H1087   1.082   .     S
C1075  H1086   1.082   .     S
C1075  C1077   1.394   .     A
C1076  C1078   1.398   .     A
C1076  H1085   1.080   .     S
C1077  C1079   1.413   .     A
C1077  C1081   1.415   .     A
C1078  C1080   1.417   .     A
C1078  C1082   1.420   .     A
C1079  C425    1.395   1_556 S
C1081  C452    1.413   1_556 S
N1097  Zn1107  2.020   .     S
N1098  Zn1108  2.020   .     S
O1099  Zn1107  2.002   .     S
O1100  Zn1108  2.002   .     S
O1101  Zn1108  1.996   .     S
O1102  Zn1107  1.996   .     S
O1103  Zn1107  1.934   .     S
O1104  Zn1108  1.934   .     S
O1105  Zn1108  1.884   .     S
O1106  Zn1107  1.884   .     S
O1109  H1110   0.991   .     S
O1111  H1112   0.991   .     S
C1113  H1115   1.103   .     S
C1113  H1116   1.104   .     S
C1113  H1184   1.111   .     S
H1114  C1253   1.111   1_455 S
C1117  H1120   1.104   .     S
C1117  H1119   1.107   .     S
C1117  H1258   1.111   1_455 S
H1118  C1187   1.111   .     S
C1121  O1171   1.286   .     A
C1121  C1132   1.420   .     S
C1121  O1169   1.288   .     A
C1122  O1172   1.286   .     A
C1122  C1131   1.419   .     S
C1122  O1170   1.288   .     A
C1123  C1125   1.397   .     A
C1123  C1152   1.431   .     A
C1123  O1179   1.379   .     S
C1124  C1126   1.391   .     A
C1124  C1151   1.429   .     A
C1124  O1181   1.379   .     S
C1125  H1153   1.084   .     S
C1126  H1154   1.082   .     S
C1126  C520    1.392   1_556 S
C1127  C1132   1.398   .     A
C1127  H1161   1.084   .     S
C1127  C709    1.370   1_565 S
C1128  C1131   1.398   .     A
C1128  H1162   1.084   .     S
C1129  C1131   1.396   .     A
C1129  H1163   1.084   .     S
C1130  H1164   1.084   .     S
C1130  C1132   1.396   .     A
C1130  C708    1.370   1_565 S
C1133  N1168   1.383   .     A
C1133  C1183   1.501   .     S
C1133  C1205   1.419   .     S
C1134  C1187   1.501   .     S
C1134  N1167   1.383   .     A
C1135  N1167   1.357   .     A
C1135  H1165   1.082   .     S
C1136  N1168   1.358   .     A
C1136  H1166   1.082   .     S
C1136  C1204   1.420   .     S
C1137  O1175   1.295   .     A
C1137  O1173   1.302   .     A
C1137  C1139   1.464   .     S
C1138  O1176   1.296   .     A
C1138  C1140   1.462   .     S
C1138  O1174   1.299   .     A
C1139  C1143   1.401   .     A
C1139  C1145   1.394   .     A
C1140  C1144   1.400   .     A
C1140  C1146   1.398   .     A
C1141  C1143   1.399   .     A
C1141  H1159   1.084   .     S
C1141  C1149   1.407   .     A
C1142  H1160   1.083   .     S
C1142  C1144   1.393   .     A
C1142  C1150   1.403   .     A
C1143  H1158   1.082   .     S
C1144  H1157   1.082   .     S
C1145  H1156   1.082   .     S
C1145  C1147   1.394   .     A
C1146  C1148   1.398   .     A
C1146  H1155   1.080   .     S
C1147  C1149   1.413   .     A
C1147  C1151   1.415   .     A
C1148  C1150   1.417   .     A
C1148  C1152   1.420   .     A
C1149  C495    1.395   1_556 S
C1151  C522    1.413   1_556 S
N1167  Zn1177  2.020   .     S
N1168  Zn1178  2.020   .     S
O1169  Zn1177  2.002   .     S
O1170  Zn1178  2.002   .     S
O1171  Zn1178  1.996   .     S
O1172  Zn1177  1.996   .     S
O1173  Zn1177  1.934   .     S
O1174  Zn1178  1.934   .     S
O1175  Zn1178  1.884   .     S
O1176  Zn1177  1.884   .     S
O1179  H1180   0.991   .     S
O1181  H1182   0.991   .     S
C1183  H1185   1.103   .     S
C1183  H1186   1.104   .     S
C1183  H1254   1.111   .     S
C1187  H1190   1.104   .     S
C1187  H1189   1.107   .     S
H1188  C1257   1.111   .     S
C1191  O1241   1.286   .     A
C1191  C1202   1.420   .     S
C1191  O1239   1.288   .     A
C1192  O1242   1.286   .     A
C1192  C1201   1.419   .     S
C1192  O1240   1.288   .     A
C1193  C1195   1.397   .     A
C1193  C1222   1.431   .     A
C1193  O1249   1.379   .     S
C1194  C1196   1.391   .     A
C1194  C1221   1.429   .     A
C1194  O1251   1.379   .     S
C1195  H1223   1.084   .     S
C1196  H1224   1.082   .     S
C1196  C590    1.392   1_556 S
C1197  C1202   1.398   .     A
C1197  H1231   1.084   .     S
C1197  C779    1.370   1_565 S
C1198  C1201   1.398   .     A
C1198  H1232   1.084   .     S
C1199  C1201   1.396   .     A
C1199  H1233   1.084   .     S
C1200  H1234   1.084   .     S
C1200  C1202   1.396   .     A
C1200  C778    1.370   1_565 S
C1203  N1238   1.383   .     A
C1203  C1253   1.501   .     S
C1203  C1065   1.419   1_655 S
C1204  C1257   1.501   .     S
C1204  N1237   1.383   .     A
C1205  N1237   1.357   .     A
C1205  H1235   1.082   .     S
C1206  N1238   1.358   .     A
C1206  H1236   1.082   .     S
C1206  C1064   1.420   1_655 S
C1207  O1245   1.295   .     A
C1207  O1243   1.302   .     A
C1207  C1209   1.464   .     S
C1208  O1246   1.296   .     A
C1208  C1210   1.462   .     S
C1208  O1244   1.299   .     A
C1209  C1213   1.401   .     A
C1209  C1215   1.394   .     A
C1210  C1214   1.400   .     A
C1210  C1216   1.398   .     A
C1211  C1213   1.399   .     A
C1211  H1229   1.084   .     S
C1211  C1219   1.407   .     A
C1212  H1230   1.083   .     S
C1212  C1214   1.393   .     A
C1212  C1220   1.403   .     A
C1213  H1228   1.082   .     S
C1214  H1227   1.082   .     S
C1215  H1226   1.082   .     S
C1215  C1217   1.394   .     A
C1216  C1218   1.398   .     A
C1216  H1225   1.080   .     S
C1217  C1219   1.413   .     A
C1217  C1221   1.415   .     A
C1218  C1220   1.417   .     A
C1218  C1222   1.420   .     A
C1219  C565    1.395   1_556 S
C1221  C592    1.413   1_556 S
N1237  Zn1247  2.020   .     S
N1238  Zn1248  2.020   .     S
O1239  Zn1247  2.002   .     S
O1240  Zn1248  2.002   .     S
O1241  Zn1248  1.996   .     S
O1242  Zn1247  1.996   .     S
O1243  Zn1247  1.934   .     S
O1244  Zn1248  1.934   .     S
O1245  Zn1248  1.884   .     S
O1246  Zn1247  1.884   .     S
O1249  H1250   0.991   .     S
O1251  H1252   0.991   .     S
C1253  H1255   1.103   .     S
C1253  H1256   1.104   .     S
C1253  H1114   1.111   1_655 S
C1257  H1260   1.104   .     S
C1257  H1259   1.107   .     S
H1258  C1117   1.111   1_655 S
