data_str_m1_o10_o16_pcu_sym.145
_audit_creation_date              2020-01-03
_audit_creation_method            'Materials Studio'
_symmetry_space_group_name_H-M    'P1'
_symmetry_Int_Tables_number       1
_symmetry_cell_setting            triclinic
loop_
_symmetry_equiv_pos_as_xyz
  x,y,z
_cell_length_a                    32.6420
_cell_length_b                    32.7503
_cell_length_c                    30.9344
_cell_angle_alpha                 96.2658
_cell_angle_beta                  74.4177
_cell_angle_gamma                 97.7400
loop_
_atom_site_label
_atom_site_type_symbol
_atom_site_fract_x
_atom_site_fract_y
_atom_site_fract_z
_atom_site_U_iso_or_equiv
_atom_site_adp_type
_atom_site_occupancy
Br1    Br    0.22588   0.06625   0.09367   0.00000  Uiso   1.00
Br2    Br    0.14763   0.03431   0.45289   0.00000  Uiso   1.00
Br3    Br    0.23494   0.04554   0.48428   0.00000  Uiso   1.00
Br4    Br    0.09341   0.26413   0.41687   0.00000  Uiso   1.00
C5     C     0.05305   0.16035   0.25996   0.00000  Uiso   1.00
C6     C     0.18236   0.16797   0.05451   0.00000  Uiso   1.00
C7     C     0.20408   0.10131   0.06088   0.00000  Uiso   1.00
C8     C     0.28063   0.17378   0.24043   0.00000  Uiso   1.00
C9     C     0.13621   0.19048   0.42162   0.00000  Uiso   1.00
C10    C     0.32619   0.17421   0.23620   0.00000  Uiso   1.00
C11    C     0.00768   0.15900   0.26725   0.00000  Uiso   1.00
C12    C     0.17959   0.32234   0.23572   0.00000  Uiso   1.00
C13    C     0.15306   0.01313   0.26606   0.00000  Uiso   1.00
C14    C     0.15613   0.05636   0.26074   0.00000  Uiso   1.00
C15    C     0.17637   0.27790   0.24015   0.00000  Uiso   1.00
C16    C     0.11150   0.23405   0.49033   0.00000  Uiso   1.00
C17    C     0.18503   0.14860   0.12929   0.00000  Uiso   1.00
C18    C     0.14750   0.18420   0.37145   0.00000  Uiso   1.00
C19    C     0.20134   0.08880   0.01694   0.00000  Uiso   1.00
C20    C     0.19231   0.14004   0.08054   0.00000  Uiso   1.00
C21    C     0.11685   0.22603   0.44424   0.00000  Uiso   1.00
C22    C     0.31556   0.14951   0.31340   0.00000  Uiso   1.00
C23    C     0.21260   0.00636   0.19653   0.00000  Uiso   1.00
C24    C     0.12520   0.00042   0.30986   0.00000  Uiso   1.00
C25    C     0.19018   0.21317   0.06632   0.00000  Uiso   1.00
C26    C     0.12297   0.09923   0.40194   0.00000  Uiso   1.00
C27    C     0.12795   0.20965   0.01393   0.00000  Uiso   1.00
C28    C     0.14936   0.17550   0.49216   0.00000  Uiso   1.00
C29    C     0.14584   0.16187   0.44817   0.00000  Uiso   1.00
C30    C     0.17042   0.15232   0.01428   0.00000  Uiso   1.00
C31    C     0.17893   0.11149   0.49609   0.00000  Uiso   1.00
C32    C     0.16214   0.09372   0.45978   0.00000  Uiso   1.00
C33    C     0.14659   0.11905   0.43501   0.00000  Uiso   1.00
H34    H     0.12142   0.21669   0.04985   0.00000  Uiso   1.00
H35    H     0.09506   0.25998   0.00807   0.00000  Uiso   1.00
H36    H     0.01512   0.18549   0.20583   0.00000  Uiso   1.00
H37    H     0.30393   0.11162   0.36356   0.00000  Uiso   1.00
H38    H     0.25914   0.05192   0.17350   0.00000  Uiso   1.00
H39    H     0.06685   0.33251   0.35355   0.00000  Uiso   1.00
H40    H     0.21699   0.26891   0.04462   0.00000  Uiso   1.00
H41    H     0.07030   0.09545   0.37876   0.00000  Uiso   1.00
O42    O     0.16667   0.16667   0.25000   0.00000  Uiso   1.00
O43    O     0.15451   0.12637   0.15458   0.00000  Uiso   1.00
O44    O     0.12940   0.20391   0.34968   0.00000  Uiso   1.00
O45    O     0.20824   0.17759   0.14606   0.00000  Uiso   1.00
O46    O     0.17451   0.15880   0.34968   0.00000  Uiso   1.00
O47    O     0.29104   0.17339   0.33630   0.00000  Uiso   1.00
O48    O     0.32221   0.11450   0.33165   0.00000  Uiso   1.00
O49    O     0.21941   0.32010   0.15979   0.00000  Uiso   1.00
O50    O     0.23681   0.04428   0.20205   0.00000  Uiso   1.00
O51    O     0.14043   0.31919   0.33604   0.00000  Uiso   1.00
O52    O     0.08232   0.00803   0.32240   0.00000  Uiso   1.00
O53    O     0.17930   0.08019   0.28213   0.00000  Uiso   1.00
O54    O     0.17492   0.22813   0.10432   0.00000  Uiso   1.00
O55    O     0.21426   0.23875   0.03305   0.00000  Uiso   1.00
O56    O     0.13872   0.07311   0.37333   0.00000  Uiso   1.00
O57    O     0.08290   0.11081   0.40332   0.00000  Uiso   1.00
O58    O     0.14632   0.26085   0.27013   0.00000  Uiso   1.00
O59    O     0.07412   0.13291   0.23413   0.00000  Uiso   1.00
O60    O     0.26693   0.19272   0.21360   0.00000  Uiso   1.00
O61    O     0.07071   0.18878   0.28213   0.00000  Uiso   1.00
O62    O     0.25491   0.15226   0.27013   0.00000  Uiso   1.00
O63    O     0.13760   0.06944   0.23413   0.00000  Uiso   1.00
O64    O     0.20345   0.25620   0.21360   0.00000  Uiso   1.00
Zn65   Zn    0.19338   0.13994   0.28734   0.00000  Uiso   1.00
Zn66   Zn    0.13379   0.12458   0.21875   0.00000  Uiso   1.00
Zn67   Zn    0.21056   0.19775   0.20657   0.00000  Uiso   1.00
Zn68   Zn    0.12893   0.20439   0.28733   0.00000  Uiso   1.00
Br69   Br    0.55921   0.06625   0.09367   0.00000  Uiso   1.00
Br70   Br    0.48096   0.03431   0.45289   0.00000  Uiso   1.00
Br71   Br    0.56827   0.04554   0.48428   0.00000  Uiso   1.00
Br72   Br    0.42674   0.26413   0.41687   0.00000  Uiso   1.00
C73    C     0.38638   0.16035   0.25996   0.00000  Uiso   1.00
C74    C     0.51569   0.16797   0.05451   0.00000  Uiso   1.00
C75    C     0.53742   0.10131   0.06088   0.00000  Uiso   1.00
C76    C     0.61397   0.17378   0.24043   0.00000  Uiso   1.00
C77    C     0.46954   0.19048   0.42162   0.00000  Uiso   1.00
C78    C     0.65953   0.17421   0.23620   0.00000  Uiso   1.00
C79    C     0.34101   0.15900   0.26725   0.00000  Uiso   1.00
C80    C     0.51292   0.32234   0.23572   0.00000  Uiso   1.00
C81    C     0.48639   0.01313   0.26606   0.00000  Uiso   1.00
C82    C     0.48947   0.05636   0.26074   0.00000  Uiso   1.00
C83    C     0.50970   0.27790   0.24015   0.00000  Uiso   1.00
C84    C     0.44483   0.23405   0.49033   0.00000  Uiso   1.00
C85    C     0.51836   0.14860   0.12929   0.00000  Uiso   1.00
C86    C     0.48083   0.18420   0.37145   0.00000  Uiso   1.00
C87    C     0.53467   0.08880   0.01694   0.00000  Uiso   1.00
C88    C     0.52564   0.14004   0.08054   0.00000  Uiso   1.00
C89    C     0.45018   0.22603   0.44424   0.00000  Uiso   1.00
C90    C     0.64890   0.14951   0.31340   0.00000  Uiso   1.00
C91    C     0.54594   0.00636   0.19653   0.00000  Uiso   1.00
C92    C     0.45854   0.00042   0.30986   0.00000  Uiso   1.00
C93    C     0.52351   0.21317   0.06632   0.00000  Uiso   1.00
C94    C     0.45630   0.09923   0.40194   0.00000  Uiso   1.00
C95    C     0.46128   0.20965   0.01393   0.00000  Uiso   1.00
C96    C     0.48269   0.17550   0.49216   0.00000  Uiso   1.00
C97    C     0.47918   0.16187   0.44817   0.00000  Uiso   1.00
C98    C     0.50375   0.15232   0.01428   0.00000  Uiso   1.00
C99    C     0.51227   0.11149   0.49609   0.00000  Uiso   1.00
C100   C     0.49547   0.09372   0.45978   0.00000  Uiso   1.00
C101   C     0.47992   0.11905   0.43501   0.00000  Uiso   1.00
H102   H     0.45475   0.21669   0.04985   0.00000  Uiso   1.00
H103   H     0.42839   0.25998   0.00807   0.00000  Uiso   1.00
H104   H     0.34845   0.18549   0.20583   0.00000  Uiso   1.00
H105   H     0.63726   0.11162   0.36356   0.00000  Uiso   1.00
H106   H     0.59247   0.05192   0.17350   0.00000  Uiso   1.00
H107   H     0.40019   0.33251   0.35355   0.00000  Uiso   1.00
H108   H     0.55033   0.26891   0.04462   0.00000  Uiso   1.00
H109   H     0.40363   0.09545   0.37876   0.00000  Uiso   1.00
O110   O     0.50000   0.16667   0.25000   0.00000  Uiso   1.00
O111   O     0.48784   0.12637   0.15458   0.00000  Uiso   1.00
O112   O     0.46274   0.20391   0.34968   0.00000  Uiso   1.00
O113   O     0.54157   0.17759   0.14606   0.00000  Uiso   1.00
O114   O     0.50785   0.15880   0.34968   0.00000  Uiso   1.00
O115   O     0.62438   0.17339   0.33630   0.00000  Uiso   1.00
O116   O     0.65554   0.11450   0.33165   0.00000  Uiso   1.00
O117   O     0.55274   0.32010   0.15979   0.00000  Uiso   1.00
O118   O     0.57015   0.04428   0.20205   0.00000  Uiso   1.00
O119   O     0.47376   0.31919   0.33604   0.00000  Uiso   1.00
O120   O     0.41565   0.00803   0.32240   0.00000  Uiso   1.00
O121   O     0.51264   0.08019   0.28213   0.00000  Uiso   1.00
O122   O     0.50825   0.22813   0.10432   0.00000  Uiso   1.00
O123   O     0.54760   0.23875   0.03305   0.00000  Uiso   1.00
O124   O     0.47205   0.07311   0.37333   0.00000  Uiso   1.00
O125   O     0.41623   0.11081   0.40332   0.00000  Uiso   1.00
O126   O     0.47965   0.26085   0.27013   0.00000  Uiso   1.00
O127   O     0.40745   0.13291   0.23413   0.00000  Uiso   1.00
O128   O     0.60026   0.19272   0.21360   0.00000  Uiso   1.00
O129   O     0.40405   0.18878   0.28213   0.00000  Uiso   1.00
O130   O     0.58824   0.15226   0.27013   0.00000  Uiso   1.00
O131   O     0.47093   0.06944   0.23413   0.00000  Uiso   1.00
O132   O     0.53678   0.25620   0.21360   0.00000  Uiso   1.00
Zn133  Zn    0.52672   0.13994   0.28734   0.00000  Uiso   1.00
Zn134  Zn    0.46713   0.12458   0.21875   0.00000  Uiso   1.00
Zn135  Zn    0.54389   0.19775   0.20657   0.00000  Uiso   1.00
Zn136  Zn    0.46226   0.20439   0.28733   0.00000  Uiso   1.00
Br137  Br    0.89254   0.06625   0.09367   0.00000  Uiso   1.00
Br138  Br    0.81430   0.03431   0.45289   0.00000  Uiso   1.00
Br139  Br    0.90160   0.04554   0.48428   0.00000  Uiso   1.00
Br140  Br    0.76008   0.26413   0.41687   0.00000  Uiso   1.00
C141   C     0.71971   0.16035   0.25996   0.00000  Uiso   1.00
C142   C     0.84903   0.16797   0.05451   0.00000  Uiso   1.00
C143   C     0.87075   0.10131   0.06088   0.00000  Uiso   1.00
C144   C     0.94730   0.17378   0.24043   0.00000  Uiso   1.00
C145   C     0.80287   0.19048   0.42162   0.00000  Uiso   1.00
C146   C     0.99286   0.17421   0.23620   0.00000  Uiso   1.00
C147   C     0.67434   0.15900   0.26725   0.00000  Uiso   1.00
C148   C     0.84626   0.32234   0.23572   0.00000  Uiso   1.00
C149   C     0.81972   0.01313   0.26606   0.00000  Uiso   1.00
C150   C     0.82280   0.05636   0.26074   0.00000  Uiso   1.00
C151   C     0.84303   0.27790   0.24015   0.00000  Uiso   1.00
C152   C     0.77816   0.23405   0.49033   0.00000  Uiso   1.00
C153   C     0.85169   0.14860   0.12929   0.00000  Uiso   1.00
C154   C     0.81417   0.18420   0.37145   0.00000  Uiso   1.00
C155   C     0.86800   0.08880   0.01694   0.00000  Uiso   1.00
C156   C     0.85898   0.14004   0.08054   0.00000  Uiso   1.00
C157   C     0.78351   0.22603   0.44424   0.00000  Uiso   1.00
C158   C     0.98223   0.14951   0.31340   0.00000  Uiso   1.00
C159   C     0.87927   0.00636   0.19653   0.00000  Uiso   1.00
C160   C     0.79187   0.00042   0.30986   0.00000  Uiso   1.00
C161   C     0.85684   0.21317   0.06632   0.00000  Uiso   1.00
C162   C     0.78964   0.09923   0.40194   0.00000  Uiso   1.00
C163   C     0.79461   0.20965   0.01393   0.00000  Uiso   1.00
C164   C     0.81603   0.17550   0.49216   0.00000  Uiso   1.00
C165   C     0.81251   0.16187   0.44817   0.00000  Uiso   1.00
C166   C     0.83709   0.15232   0.01428   0.00000  Uiso   1.00
C167   C     0.84560   0.11149   0.49609   0.00000  Uiso   1.00
C168   C     0.82880   0.09372   0.45978   0.00000  Uiso   1.00
C169   C     0.81326   0.11905   0.43501   0.00000  Uiso   1.00
H170   H     0.78809   0.21669   0.04985   0.00000  Uiso   1.00
H171   H     0.76172   0.25998   0.00807   0.00000  Uiso   1.00
H172   H     0.68178   0.18549   0.20583   0.00000  Uiso   1.00
H173   H     0.97059   0.11162   0.36356   0.00000  Uiso   1.00
H174   H     0.92581   0.05192   0.17350   0.00000  Uiso   1.00
H175   H     0.73352   0.33251   0.35355   0.00000  Uiso   1.00
H176   H     0.88366   0.26891   0.04462   0.00000  Uiso   1.00
H177   H     0.73697   0.09545   0.37876   0.00000  Uiso   1.00
O178   O     0.83333   0.16667   0.25000   0.00000  Uiso   1.00
O179   O     0.82118   0.12637   0.15458   0.00000  Uiso   1.00
O180   O     0.79607   0.20391   0.34968   0.00000  Uiso   1.00
O181   O     0.87491   0.17759   0.14606   0.00000  Uiso   1.00
O182   O     0.84118   0.15880   0.34968   0.00000  Uiso   1.00
O183   O     0.95771   0.17339   0.33630   0.00000  Uiso   1.00
O184   O     0.98887   0.11450   0.33165   0.00000  Uiso   1.00
O185   O     0.88608   0.32010   0.15979   0.00000  Uiso   1.00
O186   O     0.90348   0.04428   0.20205   0.00000  Uiso   1.00
O187   O     0.80710   0.31919   0.33604   0.00000  Uiso   1.00
O188   O     0.74899   0.00803   0.32240   0.00000  Uiso   1.00
O189   O     0.84597   0.08019   0.28213   0.00000  Uiso   1.00
O190   O     0.84158   0.22813   0.10432   0.00000  Uiso   1.00
O191   O     0.88093   0.23875   0.03305   0.00000  Uiso   1.00
O192   O     0.80539   0.07311   0.37333   0.00000  Uiso   1.00
O193   O     0.74957   0.11081   0.40332   0.00000  Uiso   1.00
O194   O     0.81298   0.26085   0.27013   0.00000  Uiso   1.00
O195   O     0.74078   0.13291   0.23413   0.00000  Uiso   1.00
O196   O     0.93360   0.19272   0.21360   0.00000  Uiso   1.00
O197   O     0.73738   0.18878   0.28213   0.00000  Uiso   1.00
O198   O     0.92158   0.15226   0.27013   0.00000  Uiso   1.00
O199   O     0.80426   0.06944   0.23413   0.00000  Uiso   1.00
O200   O     0.87012   0.25620   0.21360   0.00000  Uiso   1.00
Zn201  Zn    0.86005   0.13994   0.28734   0.00000  Uiso   1.00
Zn202  Zn    0.80046   0.12458   0.21875   0.00000  Uiso   1.00
Zn203  Zn    0.87723   0.19775   0.20657   0.00000  Uiso   1.00
Zn204  Zn    0.79560   0.20439   0.28733   0.00000  Uiso   1.00
Br205  Br    0.22588   0.39958   0.09367   0.00000  Uiso   1.00
Br206  Br    0.14763   0.36764   0.45289   0.00000  Uiso   1.00
Br207  Br    0.23494   0.37887   0.48428   0.00000  Uiso   1.00
Br208  Br    0.09341   0.59746   0.41687   0.00000  Uiso   1.00
C209   C     0.05305   0.49368   0.25996   0.00000  Uiso   1.00
C210   C     0.18236   0.50131   0.05451   0.00000  Uiso   1.00
C211   C     0.20408   0.43464   0.06088   0.00000  Uiso   1.00
C212   C     0.28063   0.50712   0.24043   0.00000  Uiso   1.00
C213   C     0.13621   0.52381   0.42162   0.00000  Uiso   1.00
C214   C     0.32619   0.50754   0.23620   0.00000  Uiso   1.00
C215   C     0.00768   0.49233   0.26725   0.00000  Uiso   1.00
C216   C     0.17959   0.65567   0.23572   0.00000  Uiso   1.00
C217   C     0.15306   0.34646   0.26606   0.00000  Uiso   1.00
C218   C     0.15613   0.38970   0.26074   0.00000  Uiso   1.00
C219   C     0.17637   0.61124   0.24015   0.00000  Uiso   1.00
C220   C     0.11150   0.56738   0.49033   0.00000  Uiso   1.00
C221   C     0.18503   0.48193   0.12929   0.00000  Uiso   1.00
C222   C     0.14750   0.51753   0.37145   0.00000  Uiso   1.00
C223   C     0.20134   0.42214   0.01694   0.00000  Uiso   1.00
C224   C     0.19231   0.47337   0.08054   0.00000  Uiso   1.00
C225   C     0.11685   0.55937   0.44424   0.00000  Uiso   1.00
C226   C     0.31556   0.48284   0.31340   0.00000  Uiso   1.00
C227   C     0.21260   0.33969   0.19653   0.00000  Uiso   1.00
C228   C     0.12520   0.33375   0.30986   0.00000  Uiso   1.00
C229   C     0.19018   0.54650   0.06632   0.00000  Uiso   1.00
C230   C     0.12297   0.43257   0.40194   0.00000  Uiso   1.00
C231   C     0.12795   0.54298   0.01393   0.00000  Uiso   1.00
C232   C     0.14936   0.50883   0.49216   0.00000  Uiso   1.00
C233   C     0.14584   0.49520   0.44817   0.00000  Uiso   1.00
C234   C     0.17042   0.48565   0.01428   0.00000  Uiso   1.00
C235   C     0.17893   0.44482   0.49609   0.00000  Uiso   1.00
C236   C     0.16214   0.42705   0.45978   0.00000  Uiso   1.00
C237   C     0.14659   0.45238   0.43501   0.00000  Uiso   1.00
H238   H     0.12142   0.55002   0.04985   0.00000  Uiso   1.00
H239   H     0.09506   0.59331   0.00807   0.00000  Uiso   1.00
H240   H     0.01512   0.51882   0.20583   0.00000  Uiso   1.00
H241   H     0.30393   0.44495   0.36356   0.00000  Uiso   1.00
H242   H     0.25914   0.38525   0.17350   0.00000  Uiso   1.00
H243   H     0.06685   0.66584   0.35355   0.00000  Uiso   1.00
H244   H     0.21699   0.60225   0.04462   0.00000  Uiso   1.00
H245   H     0.07030   0.42878   0.37876   0.00000  Uiso   1.00
O246   O     0.16667   0.50000   0.25000   0.00000  Uiso   1.00
O247   O     0.15451   0.45970   0.15458   0.00000  Uiso   1.00
O248   O     0.12940   0.53724   0.34968   0.00000  Uiso   1.00
O249   O     0.20824   0.51092   0.14606   0.00000  Uiso   1.00
O250   O     0.17451   0.49213   0.34968   0.00000  Uiso   1.00
O251   O     0.29104   0.50672   0.33630   0.00000  Uiso   1.00
O252   O     0.32221   0.44783   0.33165   0.00000  Uiso   1.00
O253   O     0.21941   0.65344   0.15979   0.00000  Uiso   1.00
O254   O     0.23681   0.37761   0.20205   0.00000  Uiso   1.00
O255   O     0.14043   0.65252   0.33604   0.00000  Uiso   1.00
O256   O     0.08232   0.34137   0.32240   0.00000  Uiso   1.00
O257   O     0.17930   0.41352   0.28213   0.00000  Uiso   1.00
O258   O     0.17492   0.56147   0.10432   0.00000  Uiso   1.00
O259   O     0.21426   0.57208   0.03305   0.00000  Uiso   1.00
O260   O     0.13872   0.40645   0.37333   0.00000  Uiso   1.00
O261   O     0.08290   0.44415   0.40332   0.00000  Uiso   1.00
O262   O     0.14632   0.59418   0.27013   0.00000  Uiso   1.00
O263   O     0.07412   0.46625   0.23413   0.00000  Uiso   1.00
O264   O     0.26693   0.52605   0.21360   0.00000  Uiso   1.00
O265   O     0.07071   0.52211   0.28213   0.00000  Uiso   1.00
O266   O     0.25491   0.48559   0.27013   0.00000  Uiso   1.00
O267   O     0.13760   0.40277   0.23413   0.00000  Uiso   1.00
O268   O     0.20345   0.58953   0.21360   0.00000  Uiso   1.00
Zn269  Zn    0.19338   0.47327   0.28734   0.00000  Uiso   1.00
Zn270  Zn    0.13379   0.45791   0.21875   0.00000  Uiso   1.00
Zn271  Zn    0.21056   0.53109   0.20657   0.00000  Uiso   1.00
Zn272  Zn    0.12893   0.53773   0.28733   0.00000  Uiso   1.00
Br273  Br    0.55921   0.39958   0.09367   0.00000  Uiso   1.00
Br274  Br    0.48096   0.36764   0.45289   0.00000  Uiso   1.00
Br275  Br    0.56827   0.37887   0.48428   0.00000  Uiso   1.00
Br276  Br    0.42674   0.59746   0.41687   0.00000  Uiso   1.00
C277   C     0.38638   0.49368   0.25996   0.00000  Uiso   1.00
C278   C     0.51569   0.50131   0.05451   0.00000  Uiso   1.00
C279   C     0.53742   0.43464   0.06088   0.00000  Uiso   1.00
C280   C     0.61397   0.50712   0.24043   0.00000  Uiso   1.00
C281   C     0.46954   0.52381   0.42162   0.00000  Uiso   1.00
C282   C     0.65953   0.50754   0.23620   0.00000  Uiso   1.00
C283   C     0.34101   0.49233   0.26725   0.00000  Uiso   1.00
C284   C     0.51292   0.65567   0.23572   0.00000  Uiso   1.00
C285   C     0.48639   0.34646   0.26606   0.00000  Uiso   1.00
C286   C     0.48947   0.38970   0.26074   0.00000  Uiso   1.00
C287   C     0.50970   0.61124   0.24015   0.00000  Uiso   1.00
C288   C     0.44483   0.56738   0.49033   0.00000  Uiso   1.00
C289   C     0.51836   0.48193   0.12929   0.00000  Uiso   1.00
C290   C     0.48083   0.51753   0.37145   0.00000  Uiso   1.00
C291   C     0.53467   0.42214   0.01694   0.00000  Uiso   1.00
C292   C     0.52564   0.47337   0.08054   0.00000  Uiso   1.00
C293   C     0.45018   0.55937   0.44424   0.00000  Uiso   1.00
C294   C     0.64890   0.48284   0.31340   0.00000  Uiso   1.00
C295   C     0.54594   0.33969   0.19653   0.00000  Uiso   1.00
C296   C     0.45854   0.33375   0.30986   0.00000  Uiso   1.00
C297   C     0.52351   0.54650   0.06632   0.00000  Uiso   1.00
C298   C     0.45630   0.43257   0.40194   0.00000  Uiso   1.00
C299   C     0.46128   0.54298   0.01393   0.00000  Uiso   1.00
C300   C     0.48269   0.50883   0.49216   0.00000  Uiso   1.00
C301   C     0.47918   0.49520   0.44817   0.00000  Uiso   1.00
C302   C     0.50375   0.48565   0.01428   0.00000  Uiso   1.00
C303   C     0.51227   0.44482   0.49609   0.00000  Uiso   1.00
C304   C     0.49547   0.42705   0.45978   0.00000  Uiso   1.00
C305   C     0.47992   0.45238   0.43501   0.00000  Uiso   1.00
H306   H     0.45475   0.55002   0.04985   0.00000  Uiso   1.00
H307   H     0.42839   0.59331   0.00807   0.00000  Uiso   1.00
H308   H     0.34845   0.51882   0.20583   0.00000  Uiso   1.00
H309   H     0.63726   0.44495   0.36356   0.00000  Uiso   1.00
H310   H     0.59247   0.38525   0.17350   0.00000  Uiso   1.00
H311   H     0.40019   0.66584   0.35355   0.00000  Uiso   1.00
H312   H     0.55033   0.60225   0.04462   0.00000  Uiso   1.00
H313   H     0.40363   0.42878   0.37876   0.00000  Uiso   1.00
O314   O     0.50000   0.50000   0.25000   0.00000  Uiso   1.00
O315   O     0.48784   0.45970   0.15458   0.00000  Uiso   1.00
O316   O     0.46274   0.53724   0.34968   0.00000  Uiso   1.00
O317   O     0.54157   0.51092   0.14606   0.00000  Uiso   1.00
O318   O     0.50785   0.49213   0.34968   0.00000  Uiso   1.00
O319   O     0.62438   0.50672   0.33630   0.00000  Uiso   1.00
O320   O     0.65554   0.44783   0.33165   0.00000  Uiso   1.00
O321   O     0.55274   0.65344   0.15979   0.00000  Uiso   1.00
O322   O     0.57015   0.37761   0.20205   0.00000  Uiso   1.00
O323   O     0.47376   0.65252   0.33604   0.00000  Uiso   1.00
O324   O     0.41565   0.34137   0.32240   0.00000  Uiso   1.00
O325   O     0.51264   0.41352   0.28213   0.00000  Uiso   1.00
O326   O     0.50825   0.56147   0.10432   0.00000  Uiso   1.00
O327   O     0.54760   0.57208   0.03305   0.00000  Uiso   1.00
O328   O     0.47205   0.40645   0.37333   0.00000  Uiso   1.00
O329   O     0.41623   0.44415   0.40332   0.00000  Uiso   1.00
O330   O     0.47965   0.59418   0.27013   0.00000  Uiso   1.00
O331   O     0.40745   0.46625   0.23413   0.00000  Uiso   1.00
O332   O     0.60026   0.52605   0.21360   0.00000  Uiso   1.00
O333   O     0.40405   0.52211   0.28213   0.00000  Uiso   1.00
O334   O     0.58824   0.48559   0.27013   0.00000  Uiso   1.00
O335   O     0.47093   0.40277   0.23413   0.00000  Uiso   1.00
O336   O     0.53678   0.58953   0.21360   0.00000  Uiso   1.00
Zn337  Zn    0.52672   0.47327   0.28734   0.00000  Uiso   1.00
Zn338  Zn    0.46713   0.45791   0.21875   0.00000  Uiso   1.00
Zn339  Zn    0.54389   0.53109   0.20657   0.00000  Uiso   1.00
Zn340  Zn    0.46226   0.53773   0.28733   0.00000  Uiso   1.00
Br341  Br    0.89254   0.39958   0.09367   0.00000  Uiso   1.00
Br342  Br    0.81430   0.36764   0.45289   0.00000  Uiso   1.00
Br343  Br    0.90160   0.37887   0.48428   0.00000  Uiso   1.00
Br344  Br    0.76008   0.59746   0.41687   0.00000  Uiso   1.00
C345   C     0.71971   0.49368   0.25996   0.00000  Uiso   1.00
C346   C     0.84903   0.50131   0.05451   0.00000  Uiso   1.00
C347   C     0.87075   0.43464   0.06088   0.00000  Uiso   1.00
C348   C     0.94730   0.50712   0.24043   0.00000  Uiso   1.00
C349   C     0.80287   0.52381   0.42162   0.00000  Uiso   1.00
C350   C     0.99286   0.50754   0.23620   0.00000  Uiso   1.00
C351   C     0.67434   0.49233   0.26725   0.00000  Uiso   1.00
C352   C     0.84626   0.65567   0.23572   0.00000  Uiso   1.00
C353   C     0.81972   0.34646   0.26606   0.00000  Uiso   1.00
C354   C     0.82280   0.38970   0.26074   0.00000  Uiso   1.00
C355   C     0.84303   0.61124   0.24015   0.00000  Uiso   1.00
C356   C     0.77816   0.56738   0.49033   0.00000  Uiso   1.00
C357   C     0.85169   0.48193   0.12929   0.00000  Uiso   1.00
C358   C     0.81417   0.51753   0.37145   0.00000  Uiso   1.00
C359   C     0.86800   0.42214   0.01694   0.00000  Uiso   1.00
C360   C     0.85898   0.47337   0.08054   0.00000  Uiso   1.00
C361   C     0.78351   0.55937   0.44424   0.00000  Uiso   1.00
C362   C     0.98223   0.48284   0.31340   0.00000  Uiso   1.00
C363   C     0.87927   0.33969   0.19653   0.00000  Uiso   1.00
C364   C     0.79187   0.33375   0.30986   0.00000  Uiso   1.00
C365   C     0.85684   0.54650   0.06632   0.00000  Uiso   1.00
C366   C     0.78964   0.43257   0.40194   0.00000  Uiso   1.00
C367   C     0.79461   0.54298   0.01393   0.00000  Uiso   1.00
C368   C     0.81603   0.50883   0.49216   0.00000  Uiso   1.00
C369   C     0.81251   0.49520   0.44817   0.00000  Uiso   1.00
C370   C     0.83709   0.48565   0.01428   0.00000  Uiso   1.00
C371   C     0.84560   0.44482   0.49609   0.00000  Uiso   1.00
C372   C     0.82880   0.42705   0.45978   0.00000  Uiso   1.00
C373   C     0.81326   0.45238   0.43501   0.00000  Uiso   1.00
H374   H     0.78809   0.55002   0.04985   0.00000  Uiso   1.00
H375   H     0.76172   0.59331   0.00807   0.00000  Uiso   1.00
H376   H     0.68178   0.51882   0.20583   0.00000  Uiso   1.00
H377   H     0.97059   0.44495   0.36356   0.00000  Uiso   1.00
H378   H     0.92581   0.38525   0.17350   0.00000  Uiso   1.00
H379   H     0.73352   0.66584   0.35355   0.00000  Uiso   1.00
H380   H     0.88366   0.60225   0.04462   0.00000  Uiso   1.00
H381   H     0.73697   0.42878   0.37876   0.00000  Uiso   1.00
O382   O     0.83333   0.50000   0.25000   0.00000  Uiso   1.00
O383   O     0.82118   0.45970   0.15458   0.00000  Uiso   1.00
O384   O     0.79607   0.53724   0.34968   0.00000  Uiso   1.00
O385   O     0.87491   0.51092   0.14606   0.00000  Uiso   1.00
O386   O     0.84118   0.49213   0.34968   0.00000  Uiso   1.00
O387   O     0.95771   0.50672   0.33630   0.00000  Uiso   1.00
O388   O     0.98887   0.44783   0.33165   0.00000  Uiso   1.00
O389   O     0.88608   0.65344   0.15979   0.00000  Uiso   1.00
O390   O     0.90348   0.37761   0.20205   0.00000  Uiso   1.00
O391   O     0.80710   0.65252   0.33604   0.00000  Uiso   1.00
O392   O     0.74899   0.34137   0.32240   0.00000  Uiso   1.00
O393   O     0.84597   0.41352   0.28213   0.00000  Uiso   1.00
O394   O     0.84158   0.56147   0.10432   0.00000  Uiso   1.00
O395   O     0.88093   0.57208   0.03305   0.00000  Uiso   1.00
O396   O     0.80539   0.40645   0.37333   0.00000  Uiso   1.00
O397   O     0.74957   0.44415   0.40332   0.00000  Uiso   1.00
O398   O     0.81298   0.59418   0.27013   0.00000  Uiso   1.00
O399   O     0.74078   0.46625   0.23413   0.00000  Uiso   1.00
O400   O     0.93360   0.52605   0.21360   0.00000  Uiso   1.00
O401   O     0.73738   0.52211   0.28213   0.00000  Uiso   1.00
O402   O     0.92158   0.48559   0.27013   0.00000  Uiso   1.00
O403   O     0.80426   0.40277   0.23413   0.00000  Uiso   1.00
O404   O     0.87012   0.58953   0.21360   0.00000  Uiso   1.00
Zn405  Zn    0.86005   0.47327   0.28734   0.00000  Uiso   1.00
Zn406  Zn    0.80046   0.45791   0.21875   0.00000  Uiso   1.00
Zn407  Zn    0.87723   0.53109   0.20657   0.00000  Uiso   1.00
Zn408  Zn    0.79560   0.53773   0.28733   0.00000  Uiso   1.00
Br409  Br    0.22588   0.73291   0.09367   0.00000  Uiso   1.00
Br410  Br    0.14763   0.70097   0.45289   0.00000  Uiso   1.00
Br411  Br    0.23494   0.71221   0.48428   0.00000  Uiso   1.00
Br412  Br    0.09341   0.93080   0.41687   0.00000  Uiso   1.00
C413   C     0.05305   0.82701   0.25996   0.00000  Uiso   1.00
C414   C     0.18236   0.83464   0.05451   0.00000  Uiso   1.00
C415   C     0.20408   0.76797   0.06088   0.00000  Uiso   1.00
C416   C     0.28063   0.84045   0.24043   0.00000  Uiso   1.00
C417   C     0.13621   0.85715   0.42162   0.00000  Uiso   1.00
C418   C     0.32619   0.84088   0.23620   0.00000  Uiso   1.00
C419   C     0.00768   0.82566   0.26725   0.00000  Uiso   1.00
C420   C     0.17959   0.98900   0.23572   0.00000  Uiso   1.00
C421   C     0.15306   0.67979   0.26606   0.00000  Uiso   1.00
C422   C     0.15613   0.72303   0.26074   0.00000  Uiso   1.00
C423   C     0.17637   0.94457   0.24015   0.00000  Uiso   1.00
C424   C     0.11150   0.90071   0.49033   0.00000  Uiso   1.00
C425   C     0.18503   0.81526   0.12929   0.00000  Uiso   1.00
C426   C     0.14750   0.85087   0.37145   0.00000  Uiso   1.00
C427   C     0.20134   0.75547   0.01694   0.00000  Uiso   1.00
C428   C     0.19231   0.80671   0.08054   0.00000  Uiso   1.00
C429   C     0.11685   0.89270   0.44424   0.00000  Uiso   1.00
C430   C     0.31556   0.81617   0.31340   0.00000  Uiso   1.00
C431   C     0.21260   0.67303   0.19653   0.00000  Uiso   1.00
C432   C     0.12520   0.66709   0.30986   0.00000  Uiso   1.00
C433   C     0.19018   0.87984   0.06632   0.00000  Uiso   1.00
C434   C     0.12297   0.76590   0.40194   0.00000  Uiso   1.00
C435   C     0.12795   0.87632   0.01393   0.00000  Uiso   1.00
C436   C     0.14936   0.84216   0.49216   0.00000  Uiso   1.00
C437   C     0.14584   0.82853   0.44817   0.00000  Uiso   1.00
C438   C     0.17042   0.81898   0.01428   0.00000  Uiso   1.00
C439   C     0.17893   0.77816   0.49609   0.00000  Uiso   1.00
C440   C     0.16214   0.76039   0.45978   0.00000  Uiso   1.00
C441   C     0.14659   0.78571   0.43501   0.00000  Uiso   1.00
H442   H     0.12142   0.88336   0.04985   0.00000  Uiso   1.00
H443   H     0.09506   0.92665   0.00807   0.00000  Uiso   1.00
H444   H     0.01512   0.85216   0.20583   0.00000  Uiso   1.00
H445   H     0.30393   0.77829   0.36356   0.00000  Uiso   1.00
H446   H     0.25914   0.71859   0.17350   0.00000  Uiso   1.00
H447   H     0.06685   0.99918   0.35355   0.00000  Uiso   1.00
H448   H     0.21699   0.93558   0.04462   0.00000  Uiso   1.00
H449   H     0.07030   0.76211   0.37876   0.00000  Uiso   1.00
O450   O     0.16667   0.83333   0.25000   0.00000  Uiso   1.00
O451   O     0.15451   0.79304   0.15458   0.00000  Uiso   1.00
O452   O     0.12940   0.87058   0.34968   0.00000  Uiso   1.00
O453   O     0.20824   0.84425   0.14606   0.00000  Uiso   1.00
O454   O     0.17451   0.82546   0.34968   0.00000  Uiso   1.00
O455   O     0.29104   0.84005   0.33630   0.00000  Uiso   1.00
O456   O     0.32221   0.78117   0.33165   0.00000  Uiso   1.00
O457   O     0.21941   0.98677   0.15979   0.00000  Uiso   1.00
O458   O     0.23681   0.71094   0.20205   0.00000  Uiso   1.00
O459   O     0.14043   0.98585   0.33604   0.00000  Uiso   1.00
O460   O     0.08232   0.67470   0.32240   0.00000  Uiso   1.00
O461   O     0.17930   0.74686   0.28213   0.00000  Uiso   1.00
O462   O     0.17492   0.89480   0.10432   0.00000  Uiso   1.00
O463   O     0.21426   0.90542   0.03305   0.00000  Uiso   1.00
O464   O     0.13872   0.73978   0.37333   0.00000  Uiso   1.00
O465   O     0.08290   0.77748   0.40332   0.00000  Uiso   1.00
O466   O     0.14632   0.92751   0.27013   0.00000  Uiso   1.00
O467   O     0.07412   0.79958   0.23413   0.00000  Uiso   1.00
O468   O     0.26693   0.85939   0.21360   0.00000  Uiso   1.00
O469   O     0.07071   0.85544   0.28213   0.00000  Uiso   1.00
O470   O     0.25491   0.81892   0.27013   0.00000  Uiso   1.00
O471   O     0.13760   0.73610   0.23413   0.00000  Uiso   1.00
O472   O     0.20345   0.92286   0.21360   0.00000  Uiso   1.00
Zn473  Zn    0.19338   0.80661   0.28734   0.00000  Uiso   1.00
Zn474  Zn    0.13379   0.79124   0.21875   0.00000  Uiso   1.00
Zn475  Zn    0.21056   0.86442   0.20657   0.00000  Uiso   1.00
Zn476  Zn    0.12893   0.87106   0.28733   0.00000  Uiso   1.00
Br477  Br    0.55921   0.73291   0.09367   0.00000  Uiso   1.00
Br478  Br    0.48096   0.70097   0.45289   0.00000  Uiso   1.00
Br479  Br    0.56827   0.71221   0.48428   0.00000  Uiso   1.00
Br480  Br    0.42674   0.93080   0.41687   0.00000  Uiso   1.00
C481   C     0.38638   0.82701   0.25996   0.00000  Uiso   1.00
C482   C     0.51569   0.83464   0.05451   0.00000  Uiso   1.00
C483   C     0.53742   0.76797   0.06088   0.00000  Uiso   1.00
C484   C     0.61397   0.84045   0.24043   0.00000  Uiso   1.00
C485   C     0.46954   0.85715   0.42162   0.00000  Uiso   1.00
C486   C     0.65953   0.84088   0.23620   0.00000  Uiso   1.00
C487   C     0.34101   0.82566   0.26725   0.00000  Uiso   1.00
C488   C     0.51292   0.98900   0.23572   0.00000  Uiso   1.00
C489   C     0.48639   0.67979   0.26606   0.00000  Uiso   1.00
C490   C     0.48947   0.72303   0.26074   0.00000  Uiso   1.00
C491   C     0.50970   0.94457   0.24015   0.00000  Uiso   1.00
C492   C     0.44483   0.90071   0.49033   0.00000  Uiso   1.00
C493   C     0.51836   0.81526   0.12929   0.00000  Uiso   1.00
C494   C     0.48083   0.85087   0.37145   0.00000  Uiso   1.00
C495   C     0.53467   0.75547   0.01694   0.00000  Uiso   1.00
C496   C     0.52564   0.80671   0.08054   0.00000  Uiso   1.00
C497   C     0.45018   0.89270   0.44424   0.00000  Uiso   1.00
C498   C     0.64890   0.81617   0.31340   0.00000  Uiso   1.00
C499   C     0.54594   0.67303   0.19653   0.00000  Uiso   1.00
C500   C     0.45854   0.66709   0.30986   0.00000  Uiso   1.00
C501   C     0.52351   0.87984   0.06632   0.00000  Uiso   1.00
C502   C     0.45630   0.76590   0.40194   0.00000  Uiso   1.00
C503   C     0.46128   0.87632   0.01393   0.00000  Uiso   1.00
C504   C     0.48269   0.84216   0.49216   0.00000  Uiso   1.00
C505   C     0.47918   0.82853   0.44817   0.00000  Uiso   1.00
C506   C     0.50375   0.81898   0.01428   0.00000  Uiso   1.00
C507   C     0.51227   0.77816   0.49609   0.00000  Uiso   1.00
C508   C     0.49547   0.76039   0.45978   0.00000  Uiso   1.00
C509   C     0.47992   0.78571   0.43501   0.00000  Uiso   1.00
H510   H     0.45475   0.88336   0.04985   0.00000  Uiso   1.00
H511   H     0.42839   0.92665   0.00807   0.00000  Uiso   1.00
H512   H     0.34845   0.85216   0.20583   0.00000  Uiso   1.00
H513   H     0.63726   0.77829   0.36356   0.00000  Uiso   1.00
H514   H     0.59247   0.71859   0.17350   0.00000  Uiso   1.00
H515   H     0.40019   0.99918   0.35355   0.00000  Uiso   1.00
H516   H     0.55033   0.93558   0.04462   0.00000  Uiso   1.00
H517   H     0.40363   0.76211   0.37876   0.00000  Uiso   1.00
O518   O     0.50000   0.83333   0.25000   0.00000  Uiso   1.00
O519   O     0.48784   0.79304   0.15458   0.00000  Uiso   1.00
O520   O     0.46274   0.87058   0.34968   0.00000  Uiso   1.00
O521   O     0.54157   0.84425   0.14606   0.00000  Uiso   1.00
O522   O     0.50785   0.82546   0.34968   0.00000  Uiso   1.00
O523   O     0.62438   0.84005   0.33630   0.00000  Uiso   1.00
O524   O     0.65554   0.78117   0.33165   0.00000  Uiso   1.00
O525   O     0.55274   0.98677   0.15979   0.00000  Uiso   1.00
O526   O     0.57015   0.71094   0.20205   0.00000  Uiso   1.00
O527   O     0.47376   0.98585   0.33604   0.00000  Uiso   1.00
O528   O     0.41565   0.67470   0.32240   0.00000  Uiso   1.00
O529   O     0.51264   0.74686   0.28213   0.00000  Uiso   1.00
O530   O     0.50825   0.89480   0.10432   0.00000  Uiso   1.00
O531   O     0.54760   0.90542   0.03305   0.00000  Uiso   1.00
O532   O     0.47205   0.73978   0.37333   0.00000  Uiso   1.00
O533   O     0.41623   0.77748   0.40332   0.00000  Uiso   1.00
O534   O     0.47965   0.92751   0.27013   0.00000  Uiso   1.00
O535   O     0.40745   0.79958   0.23413   0.00000  Uiso   1.00
O536   O     0.60026   0.85939   0.21360   0.00000  Uiso   1.00
O537   O     0.40405   0.85544   0.28213   0.00000  Uiso   1.00
O538   O     0.58824   0.81892   0.27013   0.00000  Uiso   1.00
O539   O     0.47093   0.73610   0.23413   0.00000  Uiso   1.00
O540   O     0.53678   0.92286   0.21360   0.00000  Uiso   1.00
Zn541  Zn    0.52672   0.80661   0.28734   0.00000  Uiso   1.00
Zn542  Zn    0.46713   0.79124   0.21875   0.00000  Uiso   1.00
Zn543  Zn    0.54389   0.86442   0.20657   0.00000  Uiso   1.00
Zn544  Zn    0.46226   0.87106   0.28733   0.00000  Uiso   1.00
Br545  Br    0.89254   0.73291   0.09367   0.00000  Uiso   1.00
Br546  Br    0.81430   0.70097   0.45289   0.00000  Uiso   1.00
Br547  Br    0.90160   0.71221   0.48428   0.00000  Uiso   1.00
Br548  Br    0.76008   0.93080   0.41687   0.00000  Uiso   1.00
C549   C     0.71971   0.82701   0.25996   0.00000  Uiso   1.00
C550   C     0.84903   0.83464   0.05451   0.00000  Uiso   1.00
C551   C     0.87075   0.76797   0.06088   0.00000  Uiso   1.00
C552   C     0.94730   0.84045   0.24043   0.00000  Uiso   1.00
C553   C     0.80287   0.85715   0.42162   0.00000  Uiso   1.00
C554   C     0.99286   0.84088   0.23620   0.00000  Uiso   1.00
C555   C     0.67434   0.82566   0.26725   0.00000  Uiso   1.00
C556   C     0.84626   0.98900   0.23572   0.00000  Uiso   1.00
C557   C     0.81972   0.67979   0.26606   0.00000  Uiso   1.00
C558   C     0.82280   0.72303   0.26074   0.00000  Uiso   1.00
C559   C     0.84303   0.94457   0.24015   0.00000  Uiso   1.00
C560   C     0.77816   0.90071   0.49033   0.00000  Uiso   1.00
C561   C     0.85169   0.81526   0.12929   0.00000  Uiso   1.00
C562   C     0.81417   0.85087   0.37145   0.00000  Uiso   1.00
C563   C     0.86800   0.75547   0.01694   0.00000  Uiso   1.00
C564   C     0.85898   0.80671   0.08054   0.00000  Uiso   1.00
C565   C     0.78351   0.89270   0.44424   0.00000  Uiso   1.00
C566   C     0.98223   0.81617   0.31340   0.00000  Uiso   1.00
C567   C     0.87927   0.67303   0.19653   0.00000  Uiso   1.00
C568   C     0.79187   0.66709   0.30986   0.00000  Uiso   1.00
C569   C     0.85684   0.87984   0.06632   0.00000  Uiso   1.00
C570   C     0.78964   0.76590   0.40194   0.00000  Uiso   1.00
C571   C     0.79461   0.87632   0.01393   0.00000  Uiso   1.00
C572   C     0.81603   0.84216   0.49216   0.00000  Uiso   1.00
C573   C     0.81251   0.82853   0.44817   0.00000  Uiso   1.00
C574   C     0.83709   0.81898   0.01428   0.00000  Uiso   1.00
C575   C     0.84560   0.77816   0.49609   0.00000  Uiso   1.00
C576   C     0.82880   0.76039   0.45978   0.00000  Uiso   1.00
C577   C     0.81326   0.78571   0.43501   0.00000  Uiso   1.00
H578   H     0.78809   0.88336   0.04985   0.00000  Uiso   1.00
H579   H     0.76172   0.92665   0.00807   0.00000  Uiso   1.00
H580   H     0.68178   0.85216   0.20583   0.00000  Uiso   1.00
H581   H     0.97059   0.77829   0.36356   0.00000  Uiso   1.00
H582   H     0.92581   0.71859   0.17350   0.00000  Uiso   1.00
H583   H     0.73352   0.99918   0.35355   0.00000  Uiso   1.00
H584   H     0.88366   0.93558   0.04462   0.00000  Uiso   1.00
H585   H     0.73697   0.76211   0.37876   0.00000  Uiso   1.00
O586   O     0.83333   0.83333   0.25000   0.00000  Uiso   1.00
O587   O     0.82118   0.79304   0.15458   0.00000  Uiso   1.00
O588   O     0.79607   0.87058   0.34968   0.00000  Uiso   1.00
O589   O     0.87491   0.84425   0.14606   0.00000  Uiso   1.00
O590   O     0.84118   0.82546   0.34968   0.00000  Uiso   1.00
O591   O     0.95771   0.84005   0.33630   0.00000  Uiso   1.00
O592   O     0.98887   0.78117   0.33165   0.00000  Uiso   1.00
O593   O     0.88608   0.98677   0.15979   0.00000  Uiso   1.00
O594   O     0.90348   0.71094   0.20205   0.00000  Uiso   1.00
O595   O     0.80710   0.98585   0.33604   0.00000  Uiso   1.00
O596   O     0.74899   0.67470   0.32240   0.00000  Uiso   1.00
O597   O     0.84597   0.74686   0.28213   0.00000  Uiso   1.00
O598   O     0.84158   0.89480   0.10432   0.00000  Uiso   1.00
O599   O     0.88093   0.90542   0.03305   0.00000  Uiso   1.00
O600   O     0.80539   0.73978   0.37333   0.00000  Uiso   1.00
O601   O     0.74957   0.77748   0.40332   0.00000  Uiso   1.00
O602   O     0.81298   0.92751   0.27013   0.00000  Uiso   1.00
O603   O     0.74078   0.79958   0.23413   0.00000  Uiso   1.00
O604   O     0.93360   0.85939   0.21360   0.00000  Uiso   1.00
O605   O     0.73738   0.85544   0.28213   0.00000  Uiso   1.00
O606   O     0.92158   0.81892   0.27013   0.00000  Uiso   1.00
O607   O     0.80426   0.73610   0.23413   0.00000  Uiso   1.00
O608   O     0.87012   0.92286   0.21360   0.00000  Uiso   1.00
Zn609  Zn    0.86005   0.80661   0.28734   0.00000  Uiso   1.00
Zn610  Zn    0.80046   0.79124   0.21875   0.00000  Uiso   1.00
Zn611  Zn    0.87723   0.86442   0.20657   0.00000  Uiso   1.00
Zn612  Zn    0.79560   0.87106   0.28733   0.00000  Uiso   1.00
Br613  Br    0.22588   0.06625   0.59367   0.00000  Uiso   1.00
Br614  Br    0.14763   0.03431   0.95289   0.00000  Uiso   1.00
Br615  Br    0.23494   0.04554   0.98428   0.00000  Uiso   1.00
Br616  Br    0.09341   0.26413   0.91687   0.00000  Uiso   1.00
C617   C     0.05305   0.16035   0.75996   0.00000  Uiso   1.00
C618   C     0.18236   0.16797   0.55451   0.00000  Uiso   1.00
C619   C     0.20408   0.10131   0.56088   0.00000  Uiso   1.00
C620   C     0.28063   0.17378   0.74043   0.00000  Uiso   1.00
C621   C     0.13621   0.19048   0.92162   0.00000  Uiso   1.00
C622   C     0.32619   0.17421   0.73620   0.00000  Uiso   1.00
C623   C     0.00768   0.15900   0.76725   0.00000  Uiso   1.00
C624   C     0.17959   0.32234   0.73572   0.00000  Uiso   1.00
C625   C     0.15306   0.01313   0.76606   0.00000  Uiso   1.00
C626   C     0.15613   0.05636   0.76074   0.00000  Uiso   1.00
C627   C     0.17637   0.27790   0.74015   0.00000  Uiso   1.00
C628   C     0.11150   0.23405   0.99033   0.00000  Uiso   1.00
C629   C     0.18503   0.14860   0.62929   0.00000  Uiso   1.00
C630   C     0.14750   0.18420   0.87145   0.00000  Uiso   1.00
C631   C     0.20134   0.08880   0.51694   0.00000  Uiso   1.00
C632   C     0.19231   0.14004   0.58054   0.00000  Uiso   1.00
C633   C     0.11685   0.22603   0.94424   0.00000  Uiso   1.00
C634   C     0.31556   0.14951   0.81340   0.00000  Uiso   1.00
C635   C     0.21260   0.00636   0.69653   0.00000  Uiso   1.00
C636   C     0.12520   0.00042   0.80986   0.00000  Uiso   1.00
C637   C     0.19018   0.21317   0.56632   0.00000  Uiso   1.00
C638   C     0.12297   0.09923   0.90194   0.00000  Uiso   1.00
C639   C     0.12795   0.20965   0.51393   0.00000  Uiso   1.00
C640   C     0.14936   0.17550   0.99216   0.00000  Uiso   1.00
C641   C     0.14584   0.16187   0.94817   0.00000  Uiso   1.00
C642   C     0.17042   0.15232   0.51428   0.00000  Uiso   1.00
C643   C     0.17893   0.11149   0.99609   0.00000  Uiso   1.00
C644   C     0.16214   0.09372   0.95978   0.00000  Uiso   1.00
C645   C     0.14659   0.11905   0.93501   0.00000  Uiso   1.00
H646   H     0.12142   0.21669   0.54985   0.00000  Uiso   1.00
H647   H     0.09506   0.25998   0.50807   0.00000  Uiso   1.00
H648   H     0.01512   0.18549   0.70583   0.00000  Uiso   1.00
H649   H     0.30393   0.11162   0.86356   0.00000  Uiso   1.00
H650   H     0.25914   0.05192   0.67350   0.00000  Uiso   1.00
H651   H     0.06685   0.33251   0.85355   0.00000  Uiso   1.00
H652   H     0.21699   0.26891   0.54462   0.00000  Uiso   1.00
H653   H     0.07030   0.09545   0.87876   0.00000  Uiso   1.00
O654   O     0.16667   0.16667   0.75000   0.00000  Uiso   1.00
O655   O     0.15451   0.12637   0.65458   0.00000  Uiso   1.00
O656   O     0.12940   0.20391   0.84968   0.00000  Uiso   1.00
O657   O     0.20824   0.17759   0.64606   0.00000  Uiso   1.00
O658   O     0.17451   0.15880   0.84968   0.00000  Uiso   1.00
O659   O     0.29104   0.17339   0.83630   0.00000  Uiso   1.00
O660   O     0.32221   0.11450   0.83165   0.00000  Uiso   1.00
O661   O     0.21941   0.32010   0.65979   0.00000  Uiso   1.00
O662   O     0.23681   0.04428   0.70205   0.00000  Uiso   1.00
O663   O     0.14043   0.31919   0.83604   0.00000  Uiso   1.00
O664   O     0.08232   0.00803   0.82240   0.00000  Uiso   1.00
O665   O     0.17930   0.08019   0.78213   0.00000  Uiso   1.00
O666   O     0.17492   0.22813   0.60432   0.00000  Uiso   1.00
O667   O     0.21426   0.23875   0.53305   0.00000  Uiso   1.00
O668   O     0.13872   0.07311   0.87333   0.00000  Uiso   1.00
O669   O     0.08290   0.11081   0.90332   0.00000  Uiso   1.00
O670   O     0.14632   0.26085   0.77013   0.00000  Uiso   1.00
O671   O     0.07412   0.13291   0.73413   0.00000  Uiso   1.00
O672   O     0.26693   0.19272   0.71360   0.00000  Uiso   1.00
O673   O     0.07071   0.18878   0.78213   0.00000  Uiso   1.00
O674   O     0.25491   0.15226   0.77013   0.00000  Uiso   1.00
O675   O     0.13760   0.06944   0.73413   0.00000  Uiso   1.00
O676   O     0.20345   0.25620   0.71360   0.00000  Uiso   1.00
Zn677  Zn    0.19338   0.13994   0.78734   0.00000  Uiso   1.00
Zn678  Zn    0.13379   0.12458   0.71875   0.00000  Uiso   1.00
Zn679  Zn    0.21056   0.19775   0.70657   0.00000  Uiso   1.00
Zn680  Zn    0.12893   0.20439   0.78733   0.00000  Uiso   1.00
Br681  Br    0.55921   0.06625   0.59367   0.00000  Uiso   1.00
Br682  Br    0.48096   0.03431   0.95289   0.00000  Uiso   1.00
Br683  Br    0.56827   0.04554   0.98428   0.00000  Uiso   1.00
Br684  Br    0.42674   0.26413   0.91687   0.00000  Uiso   1.00
C685   C     0.38638   0.16035   0.75996   0.00000  Uiso   1.00
C686   C     0.51569   0.16797   0.55451   0.00000  Uiso   1.00
C687   C     0.53742   0.10131   0.56088   0.00000  Uiso   1.00
C688   C     0.61397   0.17378   0.74043   0.00000  Uiso   1.00
C689   C     0.46954   0.19048   0.92162   0.00000  Uiso   1.00
C690   C     0.65953   0.17421   0.73620   0.00000  Uiso   1.00
C691   C     0.34101   0.15900   0.76725   0.00000  Uiso   1.00
C692   C     0.51292   0.32234   0.73572   0.00000  Uiso   1.00
C693   C     0.48639   0.01313   0.76606   0.00000  Uiso   1.00
C694   C     0.48947   0.05636   0.76074   0.00000  Uiso   1.00
C695   C     0.50970   0.27790   0.74015   0.00000  Uiso   1.00
C696   C     0.44483   0.23405   0.99033   0.00000  Uiso   1.00
C697   C     0.51836   0.14860   0.62929   0.00000  Uiso   1.00
C698   C     0.48083   0.18420   0.87145   0.00000  Uiso   1.00
C699   C     0.53467   0.08880   0.51694   0.00000  Uiso   1.00
C700   C     0.52564   0.14004   0.58054   0.00000  Uiso   1.00
C701   C     0.45018   0.22603   0.94424   0.00000  Uiso   1.00
C702   C     0.64890   0.14951   0.81340   0.00000  Uiso   1.00
C703   C     0.54594   0.00636   0.69653   0.00000  Uiso   1.00
C704   C     0.45854   0.00042   0.80986   0.00000  Uiso   1.00
C705   C     0.52351   0.21317   0.56632   0.00000  Uiso   1.00
C706   C     0.45630   0.09923   0.90194   0.00000  Uiso   1.00
C707   C     0.46128   0.20965   0.51393   0.00000  Uiso   1.00
C708   C     0.48269   0.17550   0.99216   0.00000  Uiso   1.00
C709   C     0.47918   0.16187   0.94817   0.00000  Uiso   1.00
C710   C     0.50375   0.15232   0.51428   0.00000  Uiso   1.00
C711   C     0.51227   0.11149   0.99609   0.00000  Uiso   1.00
C712   C     0.49547   0.09372   0.95978   0.00000  Uiso   1.00
C713   C     0.47992   0.11905   0.93501   0.00000  Uiso   1.00
H714   H     0.45475   0.21669   0.54985   0.00000  Uiso   1.00
H715   H     0.42839   0.25998   0.50807   0.00000  Uiso   1.00
H716   H     0.34845   0.18549   0.70583   0.00000  Uiso   1.00
H717   H     0.63726   0.11162   0.86356   0.00000  Uiso   1.00
H718   H     0.59247   0.05192   0.67350   0.00000  Uiso   1.00
H719   H     0.40019   0.33251   0.85355   0.00000  Uiso   1.00
H720   H     0.55033   0.26891   0.54462   0.00000  Uiso   1.00
H721   H     0.40363   0.09545   0.87876   0.00000  Uiso   1.00
O722   O     0.50000   0.16667   0.75000   0.00000  Uiso   1.00
O723   O     0.48784   0.12637   0.65458   0.00000  Uiso   1.00
O724   O     0.46274   0.20391   0.84968   0.00000  Uiso   1.00
O725   O     0.54157   0.17759   0.64606   0.00000  Uiso   1.00
O726   O     0.50785   0.15880   0.84968   0.00000  Uiso   1.00
O727   O     0.62438   0.17339   0.83630   0.00000  Uiso   1.00
O728   O     0.65554   0.11450   0.83165   0.00000  Uiso   1.00
O729   O     0.55274   0.32010   0.65979   0.00000  Uiso   1.00
O730   O     0.57015   0.04428   0.70205   0.00000  Uiso   1.00
O731   O     0.47376   0.31919   0.83604   0.00000  Uiso   1.00
O732   O     0.41565   0.00803   0.82240   0.00000  Uiso   1.00
O733   O     0.51264   0.08019   0.78213   0.00000  Uiso   1.00
O734   O     0.50825   0.22813   0.60432   0.00000  Uiso   1.00
O735   O     0.54760   0.23875   0.53305   0.00000  Uiso   1.00
O736   O     0.47205   0.07311   0.87333   0.00000  Uiso   1.00
O737   O     0.41623   0.11081   0.90332   0.00000  Uiso   1.00
O738   O     0.47965   0.26085   0.77013   0.00000  Uiso   1.00
O739   O     0.40745   0.13291   0.73413   0.00000  Uiso   1.00
O740   O     0.60026   0.19272   0.71360   0.00000  Uiso   1.00
O741   O     0.40405   0.18878   0.78213   0.00000  Uiso   1.00
O742   O     0.58824   0.15226   0.77013   0.00000  Uiso   1.00
O743   O     0.47093   0.06944   0.73413   0.00000  Uiso   1.00
O744   O     0.53678   0.25620   0.71360   0.00000  Uiso   1.00
Zn745  Zn    0.52672   0.13994   0.78734   0.00000  Uiso   1.00
Zn746  Zn    0.46713   0.12458   0.71875   0.00000  Uiso   1.00
Zn747  Zn    0.54389   0.19775   0.70657   0.00000  Uiso   1.00
Zn748  Zn    0.46226   0.20439   0.78733   0.00000  Uiso   1.00
Br749  Br    0.89254   0.06625   0.59367   0.00000  Uiso   1.00
Br750  Br    0.81430   0.03431   0.95289   0.00000  Uiso   1.00
Br751  Br    0.90160   0.04554   0.98428   0.00000  Uiso   1.00
Br752  Br    0.76008   0.26413   0.91687   0.00000  Uiso   1.00
C753   C     0.71971   0.16035   0.75996   0.00000  Uiso   1.00
C754   C     0.84903   0.16797   0.55451   0.00000  Uiso   1.00
C755   C     0.87075   0.10131   0.56088   0.00000  Uiso   1.00
C756   C     0.94730   0.17378   0.74043   0.00000  Uiso   1.00
C757   C     0.80287   0.19048   0.92162   0.00000  Uiso   1.00
C758   C     0.99286   0.17421   0.73620   0.00000  Uiso   1.00
C759   C     0.67434   0.15900   0.76725   0.00000  Uiso   1.00
C760   C     0.84626   0.32234   0.73572   0.00000  Uiso   1.00
C761   C     0.81972   0.01313   0.76606   0.00000  Uiso   1.00
C762   C     0.82280   0.05636   0.76074   0.00000  Uiso   1.00
C763   C     0.84303   0.27790   0.74015   0.00000  Uiso   1.00
C764   C     0.77816   0.23405   0.99033   0.00000  Uiso   1.00
C765   C     0.85169   0.14860   0.62929   0.00000  Uiso   1.00
C766   C     0.81417   0.18420   0.87145   0.00000  Uiso   1.00
C767   C     0.86800   0.08880   0.51694   0.00000  Uiso   1.00
C768   C     0.85898   0.14004   0.58054   0.00000  Uiso   1.00
C769   C     0.78351   0.22603   0.94424   0.00000  Uiso   1.00
C770   C     0.98223   0.14951   0.81340   0.00000  Uiso   1.00
C771   C     0.87927   0.00636   0.69653   0.00000  Uiso   1.00
C772   C     0.79187   0.00042   0.80986   0.00000  Uiso   1.00
C773   C     0.85684   0.21317   0.56632   0.00000  Uiso   1.00
C774   C     0.78964   0.09923   0.90194   0.00000  Uiso   1.00
C775   C     0.79461   0.20965   0.51393   0.00000  Uiso   1.00
C776   C     0.81603   0.17550   0.99216   0.00000  Uiso   1.00
C777   C     0.81251   0.16187   0.94817   0.00000  Uiso   1.00
C778   C     0.83709   0.15232   0.51428   0.00000  Uiso   1.00
C779   C     0.84560   0.11149   0.99609   0.00000  Uiso   1.00
C780   C     0.82880   0.09372   0.95978   0.00000  Uiso   1.00
C781   C     0.81326   0.11905   0.93501   0.00000  Uiso   1.00
H782   H     0.78809   0.21669   0.54985   0.00000  Uiso   1.00
H783   H     0.76172   0.25998   0.50807   0.00000  Uiso   1.00
H784   H     0.68178   0.18549   0.70583   0.00000  Uiso   1.00
H785   H     0.97059   0.11162   0.86356   0.00000  Uiso   1.00
H786   H     0.92581   0.05192   0.67350   0.00000  Uiso   1.00
H787   H     0.73352   0.33251   0.85355   0.00000  Uiso   1.00
H788   H     0.88366   0.26891   0.54462   0.00000  Uiso   1.00
H789   H     0.73697   0.09545   0.87876   0.00000  Uiso   1.00
O790   O     0.83333   0.16667   0.75000   0.00000  Uiso   1.00
O791   O     0.82118   0.12637   0.65458   0.00000  Uiso   1.00
O792   O     0.79607   0.20391   0.84968   0.00000  Uiso   1.00
O793   O     0.87491   0.17759   0.64606   0.00000  Uiso   1.00
O794   O     0.84118   0.15880   0.84968   0.00000  Uiso   1.00
O795   O     0.95771   0.17339   0.83630   0.00000  Uiso   1.00
O796   O     0.98887   0.11450   0.83165   0.00000  Uiso   1.00
O797   O     0.88608   0.32010   0.65979   0.00000  Uiso   1.00
O798   O     0.90348   0.04428   0.70205   0.00000  Uiso   1.00
O799   O     0.80710   0.31919   0.83604   0.00000  Uiso   1.00
O800   O     0.74899   0.00803   0.82240   0.00000  Uiso   1.00
O801   O     0.84597   0.08019   0.78213   0.00000  Uiso   1.00
O802   O     0.84158   0.22813   0.60432   0.00000  Uiso   1.00
O803   O     0.88093   0.23875   0.53305   0.00000  Uiso   1.00
O804   O     0.80539   0.07311   0.87333   0.00000  Uiso   1.00
O805   O     0.74957   0.11081   0.90332   0.00000  Uiso   1.00
O806   O     0.81298   0.26085   0.77013   0.00000  Uiso   1.00
O807   O     0.74078   0.13291   0.73413   0.00000  Uiso   1.00
O808   O     0.93360   0.19272   0.71360   0.00000  Uiso   1.00
O809   O     0.73738   0.18878   0.78213   0.00000  Uiso   1.00
O810   O     0.92158   0.15226   0.77013   0.00000  Uiso   1.00
O811   O     0.80426   0.06944   0.73413   0.00000  Uiso   1.00
O812   O     0.87012   0.25620   0.71360   0.00000  Uiso   1.00
Zn813  Zn    0.86005   0.13994   0.78734   0.00000  Uiso   1.00
Zn814  Zn    0.80046   0.12458   0.71875   0.00000  Uiso   1.00
Zn815  Zn    0.87723   0.19775   0.70657   0.00000  Uiso   1.00
Zn816  Zn    0.79560   0.20439   0.78733   0.00000  Uiso   1.00
Br817  Br    0.22588   0.39958   0.59367   0.00000  Uiso   1.00
Br818  Br    0.14763   0.36764   0.95289   0.00000  Uiso   1.00
Br819  Br    0.23494   0.37887   0.98428   0.00000  Uiso   1.00
Br820  Br    0.09341   0.59746   0.91687   0.00000  Uiso   1.00
C821   C     0.05305   0.49368   0.75996   0.00000  Uiso   1.00
C822   C     0.18236   0.50131   0.55451   0.00000  Uiso   1.00
C823   C     0.20408   0.43464   0.56088   0.00000  Uiso   1.00
C824   C     0.28063   0.50712   0.74043   0.00000  Uiso   1.00
C825   C     0.13621   0.52381   0.92162   0.00000  Uiso   1.00
C826   C     0.32619   0.50754   0.73620   0.00000  Uiso   1.00
C827   C     0.00768   0.49233   0.76725   0.00000  Uiso   1.00
C828   C     0.17959   0.65567   0.73572   0.00000  Uiso   1.00
C829   C     0.15306   0.34646   0.76606   0.00000  Uiso   1.00
C830   C     0.15613   0.38970   0.76074   0.00000  Uiso   1.00
C831   C     0.17637   0.61124   0.74015   0.00000  Uiso   1.00
C832   C     0.11150   0.56738   0.99033   0.00000  Uiso   1.00
C833   C     0.18503   0.48193   0.62929   0.00000  Uiso   1.00
C834   C     0.14750   0.51753   0.87145   0.00000  Uiso   1.00
C835   C     0.20134   0.42214   0.51694   0.00000  Uiso   1.00
C836   C     0.19231   0.47337   0.58054   0.00000  Uiso   1.00
C837   C     0.11685   0.55937   0.94424   0.00000  Uiso   1.00
C838   C     0.31556   0.48284   0.81340   0.00000  Uiso   1.00
C839   C     0.21260   0.33969   0.69653   0.00000  Uiso   1.00
C840   C     0.12520   0.33375   0.80986   0.00000  Uiso   1.00
C841   C     0.19018   0.54650   0.56632   0.00000  Uiso   1.00
C842   C     0.12297   0.43257   0.90194   0.00000  Uiso   1.00
C843   C     0.12795   0.54298   0.51393   0.00000  Uiso   1.00
C844   C     0.14936   0.50883   0.99216   0.00000  Uiso   1.00
C845   C     0.14584   0.49520   0.94817   0.00000  Uiso   1.00
C846   C     0.17042   0.48565   0.51428   0.00000  Uiso   1.00
C847   C     0.17893   0.44482   0.99609   0.00000  Uiso   1.00
C848   C     0.16214   0.42705   0.95978   0.00000  Uiso   1.00
C849   C     0.14659   0.45238   0.93501   0.00000  Uiso   1.00
H850   H     0.12142   0.55002   0.54985   0.00000  Uiso   1.00
H851   H     0.09506   0.59331   0.50807   0.00000  Uiso   1.00
H852   H     0.01512   0.51882   0.70583   0.00000  Uiso   1.00
H853   H     0.30393   0.44495   0.86356   0.00000  Uiso   1.00
H854   H     0.25914   0.38525   0.67350   0.00000  Uiso   1.00
H855   H     0.06685   0.66584   0.85355   0.00000  Uiso   1.00
H856   H     0.21699   0.60225   0.54462   0.00000  Uiso   1.00
H857   H     0.07030   0.42878   0.87876   0.00000  Uiso   1.00
O858   O     0.16667   0.50000   0.75000   0.00000  Uiso   1.00
O859   O     0.15451   0.45970   0.65458   0.00000  Uiso   1.00
O860   O     0.12940   0.53724   0.84968   0.00000  Uiso   1.00
O861   O     0.20824   0.51092   0.64606   0.00000  Uiso   1.00
O862   O     0.17451   0.49213   0.84968   0.00000  Uiso   1.00
O863   O     0.29104   0.50672   0.83630   0.00000  Uiso   1.00
O864   O     0.32221   0.44783   0.83165   0.00000  Uiso   1.00
O865   O     0.21941   0.65344   0.65979   0.00000  Uiso   1.00
O866   O     0.23681   0.37761   0.70205   0.00000  Uiso   1.00
O867   O     0.14043   0.65252   0.83604   0.00000  Uiso   1.00
O868   O     0.08232   0.34137   0.82240   0.00000  Uiso   1.00
O869   O     0.17930   0.41352   0.78213   0.00000  Uiso   1.00
O870   O     0.17492   0.56147   0.60432   0.00000  Uiso   1.00
O871   O     0.21426   0.57208   0.53305   0.00000  Uiso   1.00
O872   O     0.13872   0.40645   0.87333   0.00000  Uiso   1.00
O873   O     0.08290   0.44415   0.90332   0.00000  Uiso   1.00
O874   O     0.14632   0.59418   0.77013   0.00000  Uiso   1.00
O875   O     0.07412   0.46625   0.73413   0.00000  Uiso   1.00
O876   O     0.26693   0.52605   0.71360   0.00000  Uiso   1.00
O877   O     0.07071   0.52211   0.78213   0.00000  Uiso   1.00
O878   O     0.25491   0.48559   0.77013   0.00000  Uiso   1.00
O879   O     0.13760   0.40277   0.73413   0.00000  Uiso   1.00
O880   O     0.20345   0.58953   0.71360   0.00000  Uiso   1.00
Zn881  Zn    0.19338   0.47327   0.78734   0.00000  Uiso   1.00
Zn882  Zn    0.13379   0.45791   0.71875   0.00000  Uiso   1.00
Zn883  Zn    0.21056   0.53109   0.70657   0.00000  Uiso   1.00
Zn884  Zn    0.12893   0.53773   0.78733   0.00000  Uiso   1.00
Br885  Br    0.55921   0.39958   0.59367   0.00000  Uiso   1.00
Br886  Br    0.48096   0.36764   0.95289   0.00000  Uiso   1.00
Br887  Br    0.56827   0.37887   0.98428   0.00000  Uiso   1.00
Br888  Br    0.42674   0.59746   0.91687   0.00000  Uiso   1.00
C889   C     0.38638   0.49368   0.75996   0.00000  Uiso   1.00
C890   C     0.51569   0.50131   0.55451   0.00000  Uiso   1.00
C891   C     0.53742   0.43464   0.56088   0.00000  Uiso   1.00
C892   C     0.61397   0.50712   0.74043   0.00000  Uiso   1.00
C893   C     0.46954   0.52381   0.92162   0.00000  Uiso   1.00
C894   C     0.65953   0.50754   0.73620   0.00000  Uiso   1.00
C895   C     0.34101   0.49233   0.76725   0.00000  Uiso   1.00
C896   C     0.51292   0.65567   0.73572   0.00000  Uiso   1.00
C897   C     0.48639   0.34646   0.76606   0.00000  Uiso   1.00
C898   C     0.48947   0.38970   0.76074   0.00000  Uiso   1.00
C899   C     0.50970   0.61124   0.74015   0.00000  Uiso   1.00
C900   C     0.44483   0.56738   0.99033   0.00000  Uiso   1.00
C901   C     0.51836   0.48193   0.62929   0.00000  Uiso   1.00
C902   C     0.48083   0.51753   0.87145   0.00000  Uiso   1.00
C903   C     0.53467   0.42214   0.51694   0.00000  Uiso   1.00
C904   C     0.52564   0.47337   0.58054   0.00000  Uiso   1.00
C905   C     0.45018   0.55937   0.94424   0.00000  Uiso   1.00
C906   C     0.64890   0.48284   0.81340   0.00000  Uiso   1.00
C907   C     0.54594   0.33969   0.69653   0.00000  Uiso   1.00
C908   C     0.45854   0.33375   0.80986   0.00000  Uiso   1.00
C909   C     0.52351   0.54650   0.56632   0.00000  Uiso   1.00
C910   C     0.45630   0.43257   0.90194   0.00000  Uiso   1.00
C911   C     0.46128   0.54298   0.51393   0.00000  Uiso   1.00
C912   C     0.48269   0.50883   0.99216   0.00000  Uiso   1.00
C913   C     0.47918   0.49520   0.94817   0.00000  Uiso   1.00
C914   C     0.50375   0.48565   0.51428   0.00000  Uiso   1.00
C915   C     0.51227   0.44482   0.99609   0.00000  Uiso   1.00
C916   C     0.49547   0.42705   0.95978   0.00000  Uiso   1.00
C917   C     0.47992   0.45238   0.93501   0.00000  Uiso   1.00
H918   H     0.45475   0.55002   0.54985   0.00000  Uiso   1.00
H919   H     0.42839   0.59331   0.50807   0.00000  Uiso   1.00
H920   H     0.34845   0.51882   0.70583   0.00000  Uiso   1.00
H921   H     0.63726   0.44495   0.86356   0.00000  Uiso   1.00
H922   H     0.59247   0.38525   0.67350   0.00000  Uiso   1.00
H923   H     0.40019   0.66584   0.85355   0.00000  Uiso   1.00
H924   H     0.55033   0.60225   0.54462   0.00000  Uiso   1.00
H925   H     0.40363   0.42878   0.87876   0.00000  Uiso   1.00
O926   O     0.50000   0.50000   0.75000   0.00000  Uiso   1.00
O927   O     0.48784   0.45970   0.65458   0.00000  Uiso   1.00
O928   O     0.46274   0.53724   0.84968   0.00000  Uiso   1.00
O929   O     0.54157   0.51092   0.64606   0.00000  Uiso   1.00
O930   O     0.50785   0.49213   0.84968   0.00000  Uiso   1.00
O931   O     0.62438   0.50672   0.83630   0.00000  Uiso   1.00
O932   O     0.65554   0.44783   0.83165   0.00000  Uiso   1.00
O933   O     0.55274   0.65344   0.65979   0.00000  Uiso   1.00
O934   O     0.57015   0.37761   0.70205   0.00000  Uiso   1.00
O935   O     0.47376   0.65252   0.83604   0.00000  Uiso   1.00
O936   O     0.41565   0.34137   0.82240   0.00000  Uiso   1.00
O937   O     0.51264   0.41352   0.78213   0.00000  Uiso   1.00
O938   O     0.50825   0.56147   0.60432   0.00000  Uiso   1.00
O939   O     0.54760   0.57208   0.53305   0.00000  Uiso   1.00
O940   O     0.47205   0.40645   0.87333   0.00000  Uiso   1.00
O941   O     0.41623   0.44415   0.90332   0.00000  Uiso   1.00
O942   O     0.47965   0.59418   0.77013   0.00000  Uiso   1.00
O943   O     0.40745   0.46625   0.73413   0.00000  Uiso   1.00
O944   O     0.60026   0.52605   0.71360   0.00000  Uiso   1.00
O945   O     0.40405   0.52211   0.78213   0.00000  Uiso   1.00
O946   O     0.58824   0.48559   0.77013   0.00000  Uiso   1.00
O947   O     0.47093   0.40277   0.73413   0.00000  Uiso   1.00
O948   O     0.53678   0.58953   0.71360   0.00000  Uiso   1.00
Zn949  Zn    0.52672   0.47327   0.78734   0.00000  Uiso   1.00
Zn950  Zn    0.46713   0.45791   0.71875   0.00000  Uiso   1.00
Zn951  Zn    0.54389   0.53109   0.70657   0.00000  Uiso   1.00
Zn952  Zn    0.46226   0.53773   0.78733   0.00000  Uiso   1.00
Br953  Br    0.89254   0.39958   0.59367   0.00000  Uiso   1.00
Br954  Br    0.81430   0.36764   0.95289   0.00000  Uiso   1.00
Br955  Br    0.90160   0.37887   0.98428   0.00000  Uiso   1.00
Br956  Br    0.76008   0.59746   0.91687   0.00000  Uiso   1.00
C957   C     0.71971   0.49368   0.75996   0.00000  Uiso   1.00
C958   C     0.84903   0.50131   0.55451   0.00000  Uiso   1.00
C959   C     0.87075   0.43464   0.56088   0.00000  Uiso   1.00
C960   C     0.94730   0.50712   0.74043   0.00000  Uiso   1.00
C961   C     0.80287   0.52381   0.92162   0.00000  Uiso   1.00
C962   C     0.99286   0.50754   0.73620   0.00000  Uiso   1.00
C963   C     0.67434   0.49233   0.76725   0.00000  Uiso   1.00
C964   C     0.84626   0.65567   0.73572   0.00000  Uiso   1.00
C965   C     0.81972   0.34646   0.76606   0.00000  Uiso   1.00
C966   C     0.82280   0.38970   0.76074   0.00000  Uiso   1.00
C967   C     0.84303   0.61124   0.74015   0.00000  Uiso   1.00
C968   C     0.77816   0.56738   0.99033   0.00000  Uiso   1.00
C969   C     0.85169   0.48193   0.62929   0.00000  Uiso   1.00
C970   C     0.81417   0.51753   0.87145   0.00000  Uiso   1.00
C971   C     0.86800   0.42214   0.51694   0.00000  Uiso   1.00
C972   C     0.85898   0.47337   0.58054   0.00000  Uiso   1.00
C973   C     0.78351   0.55937   0.94424   0.00000  Uiso   1.00
C974   C     0.98223   0.48284   0.81340   0.00000  Uiso   1.00
C975   C     0.87927   0.33969   0.69653   0.00000  Uiso   1.00
C976   C     0.79187   0.33375   0.80986   0.00000  Uiso   1.00
C977   C     0.85684   0.54650   0.56632   0.00000  Uiso   1.00
C978   C     0.78964   0.43257   0.90194   0.00000  Uiso   1.00
C979   C     0.79461   0.54298   0.51393   0.00000  Uiso   1.00
C980   C     0.81603   0.50883   0.99216   0.00000  Uiso   1.00
C981   C     0.81251   0.49520   0.94817   0.00000  Uiso   1.00
C982   C     0.83709   0.48565   0.51428   0.00000  Uiso   1.00
C983   C     0.84560   0.44482   0.99609   0.00000  Uiso   1.00
C984   C     0.82880   0.42705   0.95978   0.00000  Uiso   1.00
C985   C     0.81326   0.45238   0.93501   0.00000  Uiso   1.00
H986   H     0.78809   0.55002   0.54985   0.00000  Uiso   1.00
H987   H     0.76172   0.59331   0.50807   0.00000  Uiso   1.00
H988   H     0.68178   0.51882   0.70583   0.00000  Uiso   1.00
H989   H     0.97059   0.44495   0.86356   0.00000  Uiso   1.00
H990   H     0.92581   0.38525   0.67350   0.00000  Uiso   1.00
H991   H     0.73352   0.66584   0.85355   0.00000  Uiso   1.00
H992   H     0.88366   0.60225   0.54462   0.00000  Uiso   1.00
H993   H     0.73697   0.42878   0.87876   0.00000  Uiso   1.00
O994   O     0.83333   0.50000   0.75000   0.00000  Uiso   1.00
O995   O     0.82118   0.45970   0.65458   0.00000  Uiso   1.00
O996   O     0.79607   0.53724   0.84968   0.00000  Uiso   1.00
O997   O     0.87491   0.51092   0.64606   0.00000  Uiso   1.00
O998   O     0.84118   0.49213   0.84968   0.00000  Uiso   1.00
O999   O     0.95771   0.50672   0.83630   0.00000  Uiso   1.00
O1000  O     0.98887   0.44783   0.83165   0.00000  Uiso   1.00
O1001  O     0.88608   0.65344   0.65979   0.00000  Uiso   1.00
O1002  O     0.90348   0.37761   0.70205   0.00000  Uiso   1.00
O1003  O     0.80710   0.65252   0.83604   0.00000  Uiso   1.00
O1004  O     0.74899   0.34137   0.82240   0.00000  Uiso   1.00
O1005  O     0.84597   0.41352   0.78213   0.00000  Uiso   1.00
O1006  O     0.84158   0.56147   0.60432   0.00000  Uiso   1.00
O1007  O     0.88093   0.57208   0.53305   0.00000  Uiso   1.00
O1008  O     0.80539   0.40645   0.87333   0.00000  Uiso   1.00
O1009  O     0.74957   0.44415   0.90332   0.00000  Uiso   1.00
O1010  O     0.81298   0.59418   0.77013   0.00000  Uiso   1.00
O1011  O     0.74078   0.46625   0.73413   0.00000  Uiso   1.00
O1012  O     0.93360   0.52605   0.71360   0.00000  Uiso   1.00
O1013  O     0.73738   0.52211   0.78213   0.00000  Uiso   1.00
O1014  O     0.92158   0.48559   0.77013   0.00000  Uiso   1.00
O1015  O     0.80426   0.40277   0.73413   0.00000  Uiso   1.00
O1016  O     0.87012   0.58953   0.71360   0.00000  Uiso   1.00
Zn1017 Zn    0.86005   0.47327   0.78734   0.00000  Uiso   1.00
Zn1018 Zn    0.80046   0.45791   0.71875   0.00000  Uiso   1.00
Zn1019 Zn    0.87723   0.53109   0.70657   0.00000  Uiso   1.00
Zn1020 Zn    0.79560   0.53773   0.78733   0.00000  Uiso   1.00
Br1021 Br    0.22588   0.73291   0.59367   0.00000  Uiso   1.00
Br1022 Br    0.14763   0.70097   0.95289   0.00000  Uiso   1.00
Br1023 Br    0.23494   0.71221   0.98428   0.00000  Uiso   1.00
Br1024 Br    0.09341   0.93080   0.91687   0.00000  Uiso   1.00
C1025  C     0.05305   0.82701   0.75996   0.00000  Uiso   1.00
C1026  C     0.18236   0.83464   0.55451   0.00000  Uiso   1.00
C1027  C     0.20408   0.76797   0.56088   0.00000  Uiso   1.00
C1028  C     0.28063   0.84045   0.74043   0.00000  Uiso   1.00
C1029  C     0.13621   0.85715   0.92162   0.00000  Uiso   1.00
C1030  C     0.32619   0.84088   0.73620   0.00000  Uiso   1.00
C1031  C     0.00768   0.82566   0.76725   0.00000  Uiso   1.00
C1032  C     0.17959   0.98900   0.73572   0.00000  Uiso   1.00
C1033  C     0.15306   0.67979   0.76606   0.00000  Uiso   1.00
C1034  C     0.15613   0.72303   0.76074   0.00000  Uiso   1.00
C1035  C     0.17637   0.94457   0.74015   0.00000  Uiso   1.00
C1036  C     0.11150   0.90071   0.99033   0.00000  Uiso   1.00
C1037  C     0.18503   0.81526   0.62929   0.00000  Uiso   1.00
C1038  C     0.14750   0.85087   0.87145   0.00000  Uiso   1.00
C1039  C     0.20134   0.75547   0.51694   0.00000  Uiso   1.00
C1040  C     0.19231   0.80671   0.58054   0.00000  Uiso   1.00
C1041  C     0.11685   0.89270   0.94424   0.00000  Uiso   1.00
C1042  C     0.31556   0.81617   0.81340   0.00000  Uiso   1.00
C1043  C     0.21260   0.67303   0.69653   0.00000  Uiso   1.00
C1044  C     0.12520   0.66709   0.80986   0.00000  Uiso   1.00
C1045  C     0.19018   0.87984   0.56632   0.00000  Uiso   1.00
C1046  C     0.12297   0.76590   0.90194   0.00000  Uiso   1.00
C1047  C     0.12795   0.87632   0.51393   0.00000  Uiso   1.00
C1048  C     0.14936   0.84216   0.99216   0.00000  Uiso   1.00
C1049  C     0.14584   0.82853   0.94817   0.00000  Uiso   1.00
C1050  C     0.17042   0.81898   0.51428   0.00000  Uiso   1.00
C1051  C     0.17893   0.77816   0.99609   0.00000  Uiso   1.00
C1052  C     0.16214   0.76039   0.95978   0.00000  Uiso   1.00
C1053  C     0.14659   0.78571   0.93501   0.00000  Uiso   1.00
H1054  H     0.12142   0.88336   0.54985   0.00000  Uiso   1.00
H1055  H     0.09506   0.92665   0.50807   0.00000  Uiso   1.00
H1056  H     0.01512   0.85216   0.70583   0.00000  Uiso   1.00
H1057  H     0.30393   0.77829   0.86356   0.00000  Uiso   1.00
H1058  H     0.25914   0.71859   0.67350   0.00000  Uiso   1.00
H1059  H     0.06685   0.99918   0.85355   0.00000  Uiso   1.00
H1060  H     0.21699   0.93558   0.54462   0.00000  Uiso   1.00
H1061  H     0.07030   0.76211   0.87876   0.00000  Uiso   1.00
O1062  O     0.16667   0.83333   0.75000   0.00000  Uiso   1.00
O1063  O     0.15451   0.79304   0.65458   0.00000  Uiso   1.00
O1064  O     0.12940   0.87058   0.84968   0.00000  Uiso   1.00
O1065  O     0.20824   0.84425   0.64606   0.00000  Uiso   1.00
O1066  O     0.17451   0.82546   0.84968   0.00000  Uiso   1.00
O1067  O     0.29104   0.84005   0.83630   0.00000  Uiso   1.00
O1068  O     0.32221   0.78117   0.83165   0.00000  Uiso   1.00
O1069  O     0.21941   0.98677   0.65979   0.00000  Uiso   1.00
O1070  O     0.23681   0.71094   0.70205   0.00000  Uiso   1.00
O1071  O     0.14043   0.98585   0.83604   0.00000  Uiso   1.00
O1072  O     0.08232   0.67470   0.82240   0.00000  Uiso   1.00
O1073  O     0.17930   0.74686   0.78213   0.00000  Uiso   1.00
O1074  O     0.17492   0.89480   0.60432   0.00000  Uiso   1.00
O1075  O     0.21426   0.90542   0.53305   0.00000  Uiso   1.00
O1076  O     0.13872   0.73978   0.87333   0.00000  Uiso   1.00
O1077  O     0.08290   0.77748   0.90332   0.00000  Uiso   1.00
O1078  O     0.14632   0.92751   0.77013   0.00000  Uiso   1.00
O1079  O     0.07412   0.79958   0.73413   0.00000  Uiso   1.00
O1080  O     0.26693   0.85939   0.71360   0.00000  Uiso   1.00
O1081  O     0.07071   0.85544   0.78213   0.00000  Uiso   1.00
O1082  O     0.25491   0.81892   0.77013   0.00000  Uiso   1.00
O1083  O     0.13760   0.73610   0.73413   0.00000  Uiso   1.00
O1084  O     0.20345   0.92286   0.71360   0.00000  Uiso   1.00
Zn1085 Zn    0.19338   0.80661   0.78734   0.00000  Uiso   1.00
Zn1086 Zn    0.13379   0.79124   0.71875   0.00000  Uiso   1.00
Zn1087 Zn    0.21056   0.86442   0.70657   0.00000  Uiso   1.00
Zn1088 Zn    0.12893   0.87106   0.78733   0.00000  Uiso   1.00
Br1089 Br    0.55921   0.73291   0.59367   0.00000  Uiso   1.00
Br1090 Br    0.48096   0.70097   0.95289   0.00000  Uiso   1.00
Br1091 Br    0.56827   0.71221   0.98428   0.00000  Uiso   1.00
Br1092 Br    0.42674   0.93080   0.91687   0.00000  Uiso   1.00
C1093  C     0.38638   0.82701   0.75996   0.00000  Uiso   1.00
C1094  C     0.51569   0.83464   0.55451   0.00000  Uiso   1.00
C1095  C     0.53742   0.76797   0.56088   0.00000  Uiso   1.00
C1096  C     0.61397   0.84045   0.74043   0.00000  Uiso   1.00
C1097  C     0.46954   0.85715   0.92162   0.00000  Uiso   1.00
C1098  C     0.65953   0.84088   0.73620   0.00000  Uiso   1.00
C1099  C     0.34101   0.82566   0.76725   0.00000  Uiso   1.00
C1100  C     0.51292   0.98900   0.73572   0.00000  Uiso   1.00
C1101  C     0.48639   0.67979   0.76606   0.00000  Uiso   1.00
C1102  C     0.48947   0.72303   0.76074   0.00000  Uiso   1.00
C1103  C     0.50970   0.94457   0.74015   0.00000  Uiso   1.00
C1104  C     0.44483   0.90071   0.99033   0.00000  Uiso   1.00
C1105  C     0.51836   0.81526   0.62929   0.00000  Uiso   1.00
C1106  C     0.48083   0.85087   0.87145   0.00000  Uiso   1.00
C1107  C     0.53467   0.75547   0.51694   0.00000  Uiso   1.00
C1108  C     0.52564   0.80671   0.58054   0.00000  Uiso   1.00
C1109  C     0.45018   0.89270   0.94424   0.00000  Uiso   1.00
C1110  C     0.64890   0.81617   0.81340   0.00000  Uiso   1.00
C1111  C     0.54594   0.67303   0.69653   0.00000  Uiso   1.00
C1112  C     0.45854   0.66709   0.80986   0.00000  Uiso   1.00
C1113  C     0.52351   0.87984   0.56632   0.00000  Uiso   1.00
C1114  C     0.45630   0.76590   0.90194   0.00000  Uiso   1.00
C1115  C     0.46128   0.87632   0.51393   0.00000  Uiso   1.00
C1116  C     0.48269   0.84216   0.99216   0.00000  Uiso   1.00
C1117  C     0.47918   0.82853   0.94817   0.00000  Uiso   1.00
C1118  C     0.50375   0.81898   0.51428   0.00000  Uiso   1.00
C1119  C     0.51227   0.77816   0.99609   0.00000  Uiso   1.00
C1120  C     0.49547   0.76039   0.95978   0.00000  Uiso   1.00
C1121  C     0.47992   0.78571   0.93501   0.00000  Uiso   1.00
H1122  H     0.45475   0.88336   0.54985   0.00000  Uiso   1.00
H1123  H     0.42839   0.92665   0.50807   0.00000  Uiso   1.00
H1124  H     0.34845   0.85216   0.70583   0.00000  Uiso   1.00
H1125  H     0.63726   0.77829   0.86356   0.00000  Uiso   1.00
H1126  H     0.59247   0.71859   0.67350   0.00000  Uiso   1.00
H1127  H     0.40019   0.99918   0.85355   0.00000  Uiso   1.00
H1128  H     0.55033   0.93558   0.54462   0.00000  Uiso   1.00
H1129  H     0.40363   0.76211   0.87876   0.00000  Uiso   1.00
O1130  O     0.50000   0.83333   0.75000   0.00000  Uiso   1.00
O1131  O     0.48784   0.79304   0.65458   0.00000  Uiso   1.00
O1132  O     0.46274   0.87058   0.84968   0.00000  Uiso   1.00
O1133  O     0.54157   0.84425   0.64606   0.00000  Uiso   1.00
O1134  O     0.50785   0.82546   0.84968   0.00000  Uiso   1.00
O1135  O     0.62438   0.84005   0.83630   0.00000  Uiso   1.00
O1136  O     0.65554   0.78117   0.83165   0.00000  Uiso   1.00
O1137  O     0.55274   0.98677   0.65979   0.00000  Uiso   1.00
O1138  O     0.57015   0.71094   0.70205   0.00000  Uiso   1.00
O1139  O     0.47376   0.98585   0.83604   0.00000  Uiso   1.00
O1140  O     0.41565   0.67470   0.82240   0.00000  Uiso   1.00
O1141  O     0.51264   0.74686   0.78213   0.00000  Uiso   1.00
O1142  O     0.50825   0.89480   0.60432   0.00000  Uiso   1.00
O1143  O     0.54760   0.90542   0.53305   0.00000  Uiso   1.00
O1144  O     0.47205   0.73978   0.87333   0.00000  Uiso   1.00
O1145  O     0.41623   0.77748   0.90332   0.00000  Uiso   1.00
O1146  O     0.47965   0.92751   0.77013   0.00000  Uiso   1.00
O1147  O     0.40745   0.79958   0.73413   0.00000  Uiso   1.00
O1148  O     0.60026   0.85939   0.71360   0.00000  Uiso   1.00
O1149  O     0.40405   0.85544   0.78213   0.00000  Uiso   1.00
O1150  O     0.58824   0.81892   0.77013   0.00000  Uiso   1.00
O1151  O     0.47093   0.73610   0.73413   0.00000  Uiso   1.00
O1152  O     0.53678   0.92286   0.71360   0.00000  Uiso   1.00
Zn1153 Zn    0.52672   0.80661   0.78734   0.00000  Uiso   1.00
Zn1154 Zn    0.46713   0.79124   0.71875   0.00000  Uiso   1.00
Zn1155 Zn    0.54389   0.86442   0.70657   0.00000  Uiso   1.00
Zn1156 Zn    0.46226   0.87106   0.78733   0.00000  Uiso   1.00
Br1157 Br    0.89254   0.73291   0.59367   0.00000  Uiso   1.00
Br1158 Br    0.81430   0.70097   0.95289   0.00000  Uiso   1.00
Br1159 Br    0.90160   0.71221   0.98428   0.00000  Uiso   1.00
Br1160 Br    0.76008   0.93080   0.91687   0.00000  Uiso   1.00
C1161  C     0.71971   0.82701   0.75996   0.00000  Uiso   1.00
C1162  C     0.84903   0.83464   0.55451   0.00000  Uiso   1.00
C1163  C     0.87075   0.76797   0.56088   0.00000  Uiso   1.00
C1164  C     0.94730   0.84045   0.74043   0.00000  Uiso   1.00
C1165  C     0.80287   0.85715   0.92162   0.00000  Uiso   1.00
C1166  C     0.99286   0.84088   0.73620   0.00000  Uiso   1.00
C1167  C     0.67434   0.82566   0.76725   0.00000  Uiso   1.00
C1168  C     0.84626   0.98900   0.73572   0.00000  Uiso   1.00
C1169  C     0.81972   0.67979   0.76606   0.00000  Uiso   1.00
C1170  C     0.82280   0.72303   0.76074   0.00000  Uiso   1.00
C1171  C     0.84303   0.94457   0.74015   0.00000  Uiso   1.00
C1172  C     0.77816   0.90071   0.99033   0.00000  Uiso   1.00
C1173  C     0.85169   0.81526   0.62929   0.00000  Uiso   1.00
C1174  C     0.81417   0.85087   0.87145   0.00000  Uiso   1.00
C1175  C     0.86800   0.75547   0.51694   0.00000  Uiso   1.00
C1176  C     0.85898   0.80671   0.58054   0.00000  Uiso   1.00
C1177  C     0.78351   0.89270   0.94424   0.00000  Uiso   1.00
C1178  C     0.98223   0.81617   0.81340   0.00000  Uiso   1.00
C1179  C     0.87927   0.67303   0.69653   0.00000  Uiso   1.00
C1180  C     0.79187   0.66709   0.80986   0.00000  Uiso   1.00
C1181  C     0.85684   0.87984   0.56632   0.00000  Uiso   1.00
C1182  C     0.78964   0.76590   0.90194   0.00000  Uiso   1.00
C1183  C     0.79461   0.87632   0.51393   0.00000  Uiso   1.00
C1184  C     0.81603   0.84216   0.99216   0.00000  Uiso   1.00
C1185  C     0.81251   0.82853   0.94817   0.00000  Uiso   1.00
C1186  C     0.83709   0.81898   0.51428   0.00000  Uiso   1.00
C1187  C     0.84560   0.77816   0.99609   0.00000  Uiso   1.00
C1188  C     0.82880   0.76039   0.95978   0.00000  Uiso   1.00
C1189  C     0.81326   0.78571   0.93501   0.00000  Uiso   1.00
H1190  H     0.78809   0.88336   0.54985   0.00000  Uiso   1.00
H1191  H     0.76172   0.92665   0.50807   0.00000  Uiso   1.00
H1192  H     0.68178   0.85216   0.70583   0.00000  Uiso   1.00
H1193  H     0.97059   0.77829   0.86356   0.00000  Uiso   1.00
H1194  H     0.92581   0.71859   0.67350   0.00000  Uiso   1.00
H1195  H     0.73352   0.99918   0.85355   0.00000  Uiso   1.00
H1196  H     0.88366   0.93558   0.54462   0.00000  Uiso   1.00
H1197  H     0.73697   0.76211   0.87876   0.00000  Uiso   1.00
O1198  O     0.83333   0.83333   0.75000   0.00000  Uiso   1.00
O1199  O     0.82118   0.79304   0.65458   0.00000  Uiso   1.00
O1200  O     0.79607   0.87058   0.84968   0.00000  Uiso   1.00
O1201  O     0.87491   0.84425   0.64606   0.00000  Uiso   1.00
O1202  O     0.84118   0.82546   0.84968   0.00000  Uiso   1.00
O1203  O     0.95771   0.84005   0.83630   0.00000  Uiso   1.00
O1204  O     0.98887   0.78117   0.83165   0.00000  Uiso   1.00
O1205  O     0.88608   0.98677   0.65979   0.00000  Uiso   1.00
O1206  O     0.90348   0.71094   0.70205   0.00000  Uiso   1.00
O1207  O     0.80710   0.98585   0.83604   0.00000  Uiso   1.00
O1208  O     0.74899   0.67470   0.82240   0.00000  Uiso   1.00
O1209  O     0.84597   0.74686   0.78213   0.00000  Uiso   1.00
O1210  O     0.84158   0.89480   0.60432   0.00000  Uiso   1.00
O1211  O     0.88093   0.90542   0.53305   0.00000  Uiso   1.00
O1212  O     0.80539   0.73978   0.87333   0.00000  Uiso   1.00
O1213  O     0.74957   0.77748   0.90332   0.00000  Uiso   1.00
O1214  O     0.81298   0.92751   0.77013   0.00000  Uiso   1.00
O1215  O     0.74078   0.79958   0.73413   0.00000  Uiso   1.00
O1216  O     0.93360   0.85939   0.71360   0.00000  Uiso   1.00
O1217  O     0.73738   0.85544   0.78213   0.00000  Uiso   1.00
O1218  O     0.92158   0.81892   0.77013   0.00000  Uiso   1.00
O1219  O     0.80426   0.73610   0.73413   0.00000  Uiso   1.00
O1220  O     0.87012   0.92286   0.71360   0.00000  Uiso   1.00
Zn1221 Zn    0.86005   0.80661   0.78734   0.00000  Uiso   1.00
Zn1222 Zn    0.80046   0.79124   0.71875   0.00000  Uiso   1.00
Zn1223 Zn    0.87723   0.86442   0.70657   0.00000  Uiso   1.00
Zn1224 Zn    0.79560   0.87106   0.78733   0.00000  Uiso   1.00
loop_
_geom_bond_atom_site_label_1
_geom_bond_atom_site_label_2
_geom_bond_distance
_geom_bond_site_symmetry_2
_ccdc_geom_bond_type
Br1    C7      1.927   .     S
Br2    C32     1.942   .     S
Br3    C631    1.934   .     S
Br4    C21     1.922   .     S
C5     C11     1.432   .     S
C5     O59     1.278   .     A
C5     O61     1.264   .     A
C6     C25     1.490   .     S
C6     C20     1.404   .     A
C6     C30     1.425   .     A
C7     C19     1.399   .     A
C7     C20     1.401   .     A
C8     O60     1.288   .     A
C8     C10     1.456   .     S
C8     O62     1.270   .     A
C9     C29     1.428   .     A
C9     C21     1.424   .     A
C9     C18     1.493   .     S
C10    C79     1.350   .     S
C10    H104    1.088   .     S
C11    C146    1.350   1_455 S
C11    C158    1.488   1_455 S
C12    C15     1.464   .     S
C12    C217    1.357   .     S
C12    C227    1.496   .     S
C13    C14     1.430   .     S
C13    C24     1.482   .     S
C13    C420    1.357   1_545 S
C14    O63     1.281   .     A
C14    O53     1.271   .     A
C15    O64     1.270   .     A
C15    O58     1.269   .     A
C16    C21     1.389   .     A
C16    C639    1.383   .     S
C16    H647    1.083   .     S
C17    O43     1.282   .     A
C17    C20     1.464   .     S
C17    O45     1.286   .     A
C18    O44     1.277   .     A
C18    O46     1.296   .     A
C19    Br615   1.934   1_554 S
C19    C643    1.417   1_554 S
C22    O48     1.398   .     S
C22    O47     1.224   .     D
C22    C79     1.488   .     S
C23    O50     1.399   .     S
C23    C420    1.496   1_545 S
C23    O457    1.223   1_545 S
C24    O52     1.398   .     S
C24    O459    1.223   1_545 S
C25    O54     1.223   .     D
C25    O55     1.398   .     S
C26    C33     1.485   .     S
C26    O57     1.399   .     S
C26    O56     1.220   .     D
C27    H34     1.079   .     S
C27    C628    1.383   1_554 S
C27    C640    1.409   1_554 S
C28    C29     1.415   .     A
C28    C639    1.409   .     S
C28    C642    1.423   .     S
C29    C33     1.419   .     A
C30    C640    1.423   1_554 S
C30    C643    1.426   1_554 S
C31    C32     1.415   .     A
C31    C642    1.426   .     S
C31    C631    1.417   .     S
C32    C33     1.412   .     A
H35    C628    1.083   1_554 S
H36    C146    1.088   1_455 S
H37    O48     1.014   .     S
H38    O50     1.013   .     S
H39    O256    1.014   .     S
H40    O55     1.014   .     S
H41    O57     1.014   .     S
O42    Zn65    1.957   .     S
O42    Zn68    1.927   .     S
O42    Zn67    1.941   .     S
O42    Zn66    1.963   .     S
O43    Zn66    1.922   .     S
O44    Zn68    1.935   .     S
O45    Zn67    1.934   .     S
O46    Zn65    1.919   .     S
O49    C227    1.223   .     S
O51    C228    1.223   .     S
O52    H447    1.014   1_545 S
O53    Zn65    1.948   .     S
O58    Zn68    1.948   .     S
O59    Zn66    1.927   .     S
O60    Zn67    1.940   .     S
O61    Zn68    1.945   .     S
O62    Zn65    1.932   .     S
O63    Zn66    1.945   .     S
O64    Zn67    1.941   .     S
Br69   C75     1.927   .     S
Br70   C100    1.942   .     S
Br71   C699    1.934   .     S
Br72   C89     1.922   .     S
C73    C79     1.432   .     S
C73    O127    1.278   .     A
C73    O129    1.264   .     A
C74    C93     1.490   .     S
C74    C88     1.404   .     A
C74    C98     1.425   .     A
C75    C87     1.399   .     A
C75    C88     1.401   .     A
C76    O128    1.288   .     A
C76    C78     1.456   .     S
C76    O130    1.270   .     A
C77    C97     1.428   .     A
C77    C89     1.424   .     A
C77    C86     1.493   .     S
C78    C147    1.350   .     S
C78    H172    1.088   .     S
C80    C83     1.464   .     S
C80    C285    1.357   .     S
C80    C295    1.496   .     S
C81    C82     1.430   .     S
C81    C92     1.482   .     S
C81    C488    1.357   1_545 S
C82    O131    1.281   .     A
C82    O121    1.271   .     A
C83    O132    1.270   .     A
C83    O126    1.269   .     A
C84    C89     1.389   .     A
C84    C707    1.383   .     S
C84    H715    1.083   .     S
C85    O111    1.282   .     A
C85    C88     1.464   .     S
C85    O113    1.286   .     A
C86    O112    1.277   .     A
C86    O114    1.296   .     A
C87    Br683   1.934   1_554 S
C87    C711    1.417   1_554 S
C90    O116    1.398   .     S
C90    O115    1.224   .     D
C90    C147    1.488   .     S
C91    O118    1.399   .     S
C91    C488    1.496   1_545 S
C91    O525    1.223   1_545 S
C92    O120    1.398   .     S
C92    O527    1.223   1_545 S
C93    O122    1.223   .     D
C93    O123    1.398   .     S
C94    C101    1.485   .     S
C94    O125    1.399   .     S
C94    O124    1.220   .     D
C95    H102    1.079   .     S
C95    C696    1.383   1_554 S
C95    C708    1.409   1_554 S
C96    C97     1.415   .     A
C96    C707    1.409   .     S
C96    C710    1.423   .     S
C97    C101    1.419   .     A
C98    C708    1.423   1_554 S
C98    C711    1.426   1_554 S
C99    C100    1.415   .     A
C99    C710    1.426   .     S
C99    C699    1.417   .     S
C100   C101    1.412   .     A
H103   C696    1.083   1_554 S
H105   O116    1.014   .     S
H106   O118    1.013   .     S
H107   O324    1.014   .     S
H108   O123    1.014   .     S
H109   O125    1.014   .     S
O110   Zn133   1.957   .     S
O110   Zn136   1.927   .     S
O110   Zn135   1.941   .     S
O110   Zn134   1.963   .     S
O111   Zn134   1.922   .     S
O112   Zn136   1.935   .     S
O113   Zn135   1.934   .     S
O114   Zn133   1.919   .     S
O117   C295    1.223   .     S
O119   C296    1.223   .     S
O120   H515    1.014   1_545 S
O121   Zn133   1.948   .     S
O126   Zn136   1.948   .     S
O127   Zn134   1.927   .     S
O128   Zn135   1.940   .     S
O129   Zn136   1.945   .     S
O130   Zn133   1.932   .     S
O131   Zn134   1.945   .     S
O132   Zn135   1.941   .     S
Br137  C143    1.927   .     S
Br138  C168    1.942   .     S
Br139  C767    1.934   .     S
Br140  C157    1.922   .     S
C141   C147    1.432   .     S
C141   O195    1.278   .     A
C141   O197    1.264   .     A
C142   C161    1.490   .     S
C142   C156    1.404   .     A
C142   C166    1.425   .     A
C143   C155    1.399   .     A
C143   C156    1.401   .     A
C144   O196    1.288   .     A
C144   C146    1.456   .     S
C144   O198    1.270   .     A
C145   C165    1.428   .     A
C145   C157    1.424   .     A
C145   C154    1.493   .     S
C146   C11     1.350   1_655 S
C146   H36     1.088   1_655 S
C148   C151    1.464   .     S
C148   C353    1.357   .     S
C148   C363    1.496   .     S
C149   C150    1.430   .     S
C149   C160    1.482   .     S
C149   C556    1.357   1_545 S
C150   O199    1.281   .     A
C150   O189    1.271   .     A
C151   O200    1.270   .     A
C151   O194    1.269   .     A
C152   C157    1.389   .     A
C152   C775    1.383   .     S
C152   H783    1.083   .     S
C153   O179    1.282   .     A
C153   C156    1.464   .     S
C153   O181    1.286   .     A
C154   O180    1.277   .     A
C154   O182    1.296   .     A
C155   Br751   1.934   1_554 S
C155   C779    1.417   1_554 S
C158   O184    1.398   .     S
C158   O183    1.224   .     D
C158   C11     1.488   1_655 S
C159   O186    1.399   .     S
C159   C556    1.496   1_545 S
C159   O593    1.223   1_545 S
C160   O188    1.398   .     S
C160   O595    1.223   1_545 S
C161   O190    1.223   .     D
C161   O191    1.398   .     S
C162   C169    1.485   .     S
C162   O193    1.399   .     S
C162   O192    1.220   .     D
C163   H170    1.079   .     S
C163   C764    1.383   1_554 S
C163   C776    1.409   1_554 S
C164   C165    1.415   .     A
C164   C775    1.409   .     S
C164   C778    1.423   .     S
C165   C169    1.419   .     A
C166   C776    1.423   1_554 S
C166   C779    1.426   1_554 S
C167   C168    1.415   .     A
C167   C778    1.426   .     S
C167   C767    1.417   .     S
C168   C169    1.412   .     A
H171   C764    1.083   1_554 S
H173   O184    1.014   .     S
H174   O186    1.013   .     S
H175   O392    1.014   .     S
H176   O191    1.014   .     S
H177   O193    1.014   .     S
O178   Zn201   1.957   .     S
O178   Zn204   1.927   .     S
O178   Zn203   1.941   .     S
O178   Zn202   1.963   .     S
O179   Zn202   1.922   .     S
O180   Zn204   1.935   .     S
O181   Zn203   1.934   .     S
O182   Zn201   1.919   .     S
O185   C363    1.223   .     S
O187   C364    1.223   .     S
O188   H583    1.014   1_545 S
O189   Zn201   1.948   .     S
O194   Zn204   1.948   .     S
O195   Zn202   1.927   .     S
O196   Zn203   1.940   .     S
O197   Zn204   1.945   .     S
O198   Zn201   1.932   .     S
O199   Zn202   1.945   .     S
O200   Zn203   1.941   .     S
Br205  C211    1.927   .     S
Br206  C236    1.942   .     S
Br207  C835    1.934   .     S
Br208  C225    1.922   .     S
C209   C215    1.432   .     S
C209   O263    1.278   .     A
C209   O265    1.264   .     A
C210   C229    1.490   .     S
C210   C224    1.404   .     A
C210   C234    1.425   .     A
C211   C223    1.399   .     A
C211   C224    1.401   .     A
C212   O264    1.288   .     A
C212   C214    1.456   .     S
C212   O266    1.270   .     A
C213   C233    1.428   .     A
C213   C225    1.424   .     A
C213   C222    1.493   .     S
C214   C283    1.350   .     S
C214   H308    1.088   .     S
C215   C350    1.350   1_455 S
C215   C362    1.488   1_455 S
C216   C219    1.464   .     S
C216   C421    1.357   .     S
C216   C431    1.496   .     S
C217   C218    1.430   .     S
C217   C228    1.482   .     S
C218   O267    1.281   .     A
C218   O257    1.271   .     A
C219   O268    1.270   .     A
C219   O262    1.269   .     A
C220   C225    1.389   .     A
C220   C843    1.383   .     S
C220   H851    1.083   .     S
C221   O247    1.282   .     A
C221   C224    1.464   .     S
C221   O249    1.286   .     A
C222   O248    1.277   .     A
C222   O250    1.296   .     A
C223   Br819   1.934   1_554 S
C223   C847    1.417   1_554 S
C226   O252    1.398   .     S
C226   O251    1.224   .     D
C226   C283    1.488   .     S
C227   O254    1.399   .     S
C228   O256    1.398   .     S
C229   O258    1.223   .     D
C229   O259    1.398   .     S
C230   C237    1.485   .     S
C230   O261    1.399   .     S
C230   O260    1.220   .     D
C231   H238    1.079   .     S
C231   C832    1.383   1_554 S
C231   C844    1.409   1_554 S
C232   C233    1.415   .     A
C232   C843    1.409   .     S
C232   C846    1.423   .     S
C233   C237    1.419   .     A
C234   C844    1.423   1_554 S
C234   C847    1.426   1_554 S
C235   C236    1.415   .     A
C235   C846    1.426   .     S
C235   C835    1.417   .     S
C236   C237    1.412   .     A
H239   C832    1.083   1_554 S
H240   C350    1.088   1_455 S
H241   O252    1.014   .     S
H242   O254    1.013   .     S
H243   O460    1.014   .     S
H244   O259    1.014   .     S
H245   O261    1.014   .     S
O246   Zn269   1.957   .     S
O246   Zn272   1.927   .     S
O246   Zn271   1.941   .     S
O246   Zn270   1.963   .     S
O247   Zn270   1.922   .     S
O248   Zn272   1.935   .     S
O249   Zn271   1.934   .     S
O250   Zn269   1.919   .     S
O253   C431    1.223   .     S
O255   C432    1.223   .     S
O257   Zn269   1.948   .     S
O262   Zn272   1.948   .     S
O263   Zn270   1.927   .     S
O264   Zn271   1.940   .     S
O265   Zn272   1.945   .     S
O266   Zn269   1.932   .     S
O267   Zn270   1.945   .     S
O268   Zn271   1.941   .     S
Br273  C279    1.927   .     S
Br274  C304    1.942   .     S
Br275  C903    1.934   .     S
Br276  C293    1.922   .     S
C277   C283    1.432   .     S
C277   O331    1.278   .     A
C277   O333    1.264   .     A
C278   C297    1.490   .     S
C278   C292    1.404   .     A
C278   C302    1.425   .     A
C279   C291    1.399   .     A
C279   C292    1.401   .     A
C280   O332    1.288   .     A
C280   C282    1.456   .     S
C280   O334    1.270   .     A
C281   C301    1.428   .     A
C281   C293    1.424   .     A
C281   C290    1.493   .     S
C282   C351    1.350   .     S
C282   H376    1.088   .     S
C284   C287    1.464   .     S
C284   C489    1.357   .     S
C284   C499    1.496   .     S
C285   C286    1.430   .     S
C285   C296    1.482   .     S
C286   O335    1.281   .     A
C286   O325    1.271   .     A
C287   O336    1.270   .     A
C287   O330    1.269   .     A
C288   C293    1.389   .     A
C288   C911    1.383   .     S
C288   H919    1.083   .     S
C289   O315    1.282   .     A
C289   C292    1.464   .     S
C289   O317    1.286   .     A
C290   O316    1.277   .     A
C290   O318    1.296   .     A
C291   Br887   1.934   1_554 S
C291   C915    1.417   1_554 S
C294   O320    1.398   .     S
C294   O319    1.224   .     D
C294   C351    1.488   .     S
C295   O322    1.399   .     S
C296   O324    1.398   .     S
C297   O326    1.223   .     D
C297   O327    1.398   .     S
C298   C305    1.485   .     S
C298   O329    1.399   .     S
C298   O328    1.220   .     D
C299   H306    1.079   .     S
C299   C900    1.383   1_554 S
C299   C912    1.409   1_554 S
C300   C301    1.415   .     A
C300   C911    1.409   .     S
C300   C914    1.423   .     S
C301   C305    1.419   .     A
C302   C912    1.423   1_554 S
C302   C915    1.426   1_554 S
C303   C304    1.415   .     A
C303   C914    1.426   .     S
C303   C903    1.417   .     S
C304   C305    1.412   .     A
H307   C900    1.083   1_554 S
H309   O320    1.014   .     S
H310   O322    1.013   .     S
H311   O528    1.014   .     S
H312   O327    1.014   .     S
H313   O329    1.014   .     S
O314   Zn337   1.957   .     S
O314   Zn340   1.927   .     S
O314   Zn339   1.941   .     S
O314   Zn338   1.963   .     S
O315   Zn338   1.922   .     S
O316   Zn340   1.935   .     S
O317   Zn339   1.934   .     S
O318   Zn337   1.919   .     S
O321   C499    1.223   .     S
O323   C500    1.223   .     S
O325   Zn337   1.948   .     S
O330   Zn340   1.948   .     S
O331   Zn338   1.927   .     S
O332   Zn339   1.940   .     S
O333   Zn340   1.945   .     S
O334   Zn337   1.932   .     S
O335   Zn338   1.945   .     S
O336   Zn339   1.941   .     S
Br341  C347    1.927   .     S
Br342  C372    1.942   .     S
Br343  C971    1.934   .     S
Br344  C361    1.922   .     S
C345   C351    1.432   .     S
C345   O399    1.278   .     A
C345   O401    1.264   .     A
C346   C365    1.490   .     S
C346   C360    1.404   .     A
C346   C370    1.425   .     A
C347   C359    1.399   .     A
C347   C360    1.401   .     A
C348   O400    1.288   .     A
C348   C350    1.456   .     S
C348   O402    1.270   .     A
C349   C369    1.428   .     A
C349   C361    1.424   .     A
C349   C358    1.493   .     S
C350   C215    1.350   1_655 S
C350   H240    1.088   1_655 S
C352   C355    1.464   .     S
C352   C557    1.357   .     S
C352   C567    1.496   .     S
C353   C354    1.430   .     S
C353   C364    1.482   .     S
C354   O403    1.281   .     A
C354   O393    1.271   .     A
C355   O404    1.270   .     A
C355   O398    1.269   .     A
C356   C361    1.389   .     A
C356   C979    1.383   .     S
C356   H987    1.083   .     S
C357   O383    1.282   .     A
C357   C360    1.464   .     S
C357   O385    1.286   .     A
C358   O384    1.277   .     A
C358   O386    1.296   .     A
C359   Br955   1.934   1_554 S
C359   C983    1.417   1_554 S
C362   O388    1.398   .     S
C362   O387    1.224   .     D
C362   C215    1.488   1_655 S
C363   O390    1.399   .     S
C364   O392    1.398   .     S
C365   O394    1.223   .     D
C365   O395    1.398   .     S
C366   C373    1.485   .     S
C366   O397    1.399   .     S
C366   O396    1.220   .     D
C367   H374    1.079   .     S
C367   C968    1.383   1_554 S
C367   C980    1.409   1_554 S
C368   C369    1.415   .     A
C368   C979    1.409   .     S
C368   C982    1.423   .     S
C369   C373    1.419   .     A
C370   C980    1.423   1_554 S
C370   C983    1.426   1_554 S
C371   C372    1.415   .     A
C371   C982    1.426   .     S
C371   C971    1.417   .     S
C372   C373    1.412   .     A
H375   C968    1.083   1_554 S
H377   O388    1.014   .     S
H378   O390    1.013   .     S
H379   O596    1.014   .     S
H380   O395    1.014   .     S
H381   O397    1.014   .     S
O382   Zn405   1.957   .     S
O382   Zn408   1.927   .     S
O382   Zn407   1.941   .     S
O382   Zn406   1.963   .     S
O383   Zn406   1.922   .     S
O384   Zn408   1.935   .     S
O385   Zn407   1.934   .     S
O386   Zn405   1.919   .     S
O389   C567    1.223   .     S
O391   C568    1.223   .     S
O393   Zn405   1.948   .     S
O398   Zn408   1.948   .     S
O399   Zn406   1.927   .     S
O400   Zn407   1.940   .     S
O401   Zn408   1.945   .     S
O402   Zn405   1.932   .     S
O403   Zn406   1.945   .     S
O404   Zn407   1.941   .     S
Br409  C415    1.927   .     S
Br410  C440    1.942   .     S
Br411  C1039   1.934   .     S
Br412  C429    1.922   .     S
C413   C419    1.432   .     S
C413   O467    1.278   .     A
C413   O469    1.264   .     A
C414   C433    1.490   .     S
C414   C428    1.404   .     A
C414   C438    1.425   .     A
C415   C427    1.399   .     A
C415   C428    1.401   .     A
C416   O468    1.288   .     A
C416   C418    1.456   .     S
C416   O470    1.270   .     A
C417   C437    1.428   .     A
C417   C429    1.424   .     A
C417   C426    1.493   .     S
C418   C487    1.350   .     S
C418   H512    1.088   .     S
C419   C554    1.350   1_455 S
C419   C566    1.488   1_455 S
C420   C423    1.464   .     S
C420   C13     1.357   1_565 S
C420   C23     1.496   1_565 S
C421   C422    1.430   .     S
C421   C432    1.482   .     S
C422   O471    1.281   .     A
C422   O461    1.271   .     A
C423   O472    1.270   .     A
C423   O466    1.269   .     A
C424   C429    1.389   .     A
C424   C1047   1.383   .     S
C424   H1055   1.083   .     S
C425   O451    1.282   .     A
C425   C428    1.464   .     S
C425   O453    1.286   .     A
C426   O452    1.277   .     A
C426   O454    1.296   .     A
C427   Br1023  1.934   1_554 S
C427   C1051   1.417   1_554 S
C430   O456    1.398   .     S
C430   O455    1.224   .     D
C430   C487    1.488   .     S
C431   O458    1.399   .     S
C432   O460    1.398   .     S
C433   O462    1.223   .     D
C433   O463    1.398   .     S
C434   C441    1.485   .     S
C434   O465    1.399   .     S
C434   O464    1.220   .     D
C435   H442    1.079   .     S
C435   C1036   1.383   1_554 S
C435   C1048   1.409   1_554 S
C436   C437    1.415   .     A
C436   C1047   1.409   .     S
C436   C1050   1.423   .     S
C437   C441    1.419   .     A
C438   C1048   1.423   1_554 S
C438   C1051   1.426   1_554 S
C439   C440    1.415   .     A
C439   C1050   1.426   .     S
C439   C1039   1.417   .     S
C440   C441    1.412   .     A
H443   C1036   1.083   1_554 S
H444   C554    1.088   1_455 S
H445   O456    1.014   .     S
H446   O458    1.013   .     S
H447   O52     1.014   1_565 S
H448   O463    1.014   .     S
H449   O465    1.014   .     S
O450   Zn473   1.957   .     S
O450   Zn476   1.927   .     S
O450   Zn475   1.941   .     S
O450   Zn474   1.963   .     S
O451   Zn474   1.922   .     S
O452   Zn476   1.935   .     S
O453   Zn475   1.934   .     S
O454   Zn473   1.919   .     S
O457   C23     1.223   1_565 S
O459   C24     1.223   1_565 S
O461   Zn473   1.948   .     S
O466   Zn476   1.948   .     S
O467   Zn474   1.927   .     S
O468   Zn475   1.940   .     S
O469   Zn476   1.945   .     S
O470   Zn473   1.932   .     S
O471   Zn474   1.945   .     S
O472   Zn475   1.941   .     S
Br477  C483    1.927   .     S
Br478  C508    1.942   .     S
Br479  C1107   1.934   .     S
Br480  C497    1.922   .     S
C481   C487    1.432   .     S
C481   O535    1.278   .     A
C481   O537    1.264   .     A
C482   C501    1.490   .     S
C482   C496    1.404   .     A
C482   C506    1.425   .     A
C483   C495    1.399   .     A
C483   C496    1.401   .     A
C484   O536    1.288   .     A
C484   C486    1.456   .     S
C484   O538    1.270   .     A
C485   C505    1.428   .     A
C485   C497    1.424   .     A
C485   C494    1.493   .     S
C486   C555    1.350   .     S
C486   H580    1.088   .     S
C488   C491    1.464   .     S
C488   C81     1.357   1_565 S
C488   C91     1.496   1_565 S
C489   C490    1.430   .     S
C489   C500    1.482   .     S
C490   O539    1.281   .     A
C490   O529    1.271   .     A
C491   O540    1.270   .     A
C491   O534    1.269   .     A
C492   C497    1.389   .     A
C492   C1115   1.383   .     S
C492   H1123   1.083   .     S
C493   O519    1.282   .     A
C493   C496    1.464   .     S
C493   O521    1.286   .     A
C494   O520    1.277   .     A
C494   O522    1.296   .     A
C495   Br1091  1.934   1_554 S
C495   C1119   1.417   1_554 S
C498   O524    1.398   .     S
C498   O523    1.224   .     D
C498   C555    1.488   .     S
C499   O526    1.399   .     S
C500   O528    1.398   .     S
C501   O530    1.223   .     D
C501   O531    1.398   .     S
C502   C509    1.485   .     S
C502   O533    1.399   .     S
C502   O532    1.220   .     D
C503   H510    1.079   .     S
C503   C1104   1.383   1_554 S
C503   C1116   1.409   1_554 S
C504   C505    1.415   .     A
C504   C1115   1.409   .     S
C504   C1118   1.423   .     S
C505   C509    1.419   .     A
C506   C1116   1.423   1_554 S
C506   C1119   1.426   1_554 S
C507   C508    1.415   .     A
C507   C1118   1.426   .     S
C507   C1107   1.417   .     S
C508   C509    1.412   .     A
H511   C1104   1.083   1_554 S
H513   O524    1.014   .     S
H514   O526    1.013   .     S
H515   O120    1.014   1_565 S
H516   O531    1.014   .     S
H517   O533    1.014   .     S
O518   Zn541   1.957   .     S
O518   Zn544   1.927   .     S
O518   Zn543   1.941   .     S
O518   Zn542   1.963   .     S
O519   Zn542   1.922   .     S
O520   Zn544   1.935   .     S
O521   Zn543   1.934   .     S
O522   Zn541   1.919   .     S
O525   C91     1.223   1_565 S
O527   C92     1.223   1_565 S
O529   Zn541   1.948   .     S
O534   Zn544   1.948   .     S
O535   Zn542   1.927   .     S
O536   Zn543   1.940   .     S
O537   Zn544   1.945   .     S
O538   Zn541   1.932   .     S
O539   Zn542   1.945   .     S
O540   Zn543   1.941   .     S
Br545  C551    1.927   .     S
Br546  C576    1.942   .     S
Br547  C1175   1.934   .     S
Br548  C565    1.922   .     S
C549   C555    1.432   .     S
C549   O603    1.278   .     A
C549   O605    1.264   .     A
C550   C569    1.490   .     S
C550   C564    1.404   .     A
C550   C574    1.425   .     A
C551   C563    1.399   .     A
C551   C564    1.401   .     A
C552   O604    1.288   .     A
C552   C554    1.456   .     S
C552   O606    1.270   .     A
C553   C573    1.428   .     A
C553   C565    1.424   .     A
C553   C562    1.493   .     S
C554   C419    1.350   1_655 S
C554   H444    1.088   1_655 S
C556   C559    1.464   .     S
C556   C149    1.357   1_565 S
C556   C159    1.496   1_565 S
C557   C558    1.430   .     S
C557   C568    1.482   .     S
C558   O607    1.281   .     A
C558   O597    1.271   .     A
C559   O608    1.270   .     A
C559   O602    1.269   .     A
C560   C565    1.389   .     A
C560   C1183   1.383   .     S
C560   H1191   1.083   .     S
C561   O587    1.282   .     A
C561   C564    1.464   .     S
C561   O589    1.286   .     A
C562   O588    1.277   .     A
C562   O590    1.296   .     A
C563   Br1159  1.934   1_554 S
C563   C1187   1.417   1_554 S
C566   O592    1.398   .     S
C566   O591    1.224   .     D
C566   C419    1.488   1_655 S
C567   O594    1.399   .     S
C568   O596    1.398   .     S
C569   O598    1.223   .     D
C569   O599    1.398   .     S
C570   C577    1.485   .     S
C570   O601    1.399   .     S
C570   O600    1.220   .     D
C571   H578    1.079   .     S
C571   C1172   1.383   1_554 S
C571   C1184   1.409   1_554 S
C572   C573    1.415   .     A
C572   C1183   1.409   .     S
C572   C1186   1.423   .     S
C573   C577    1.419   .     A
C574   C1184   1.423   1_554 S
C574   C1187   1.426   1_554 S
C575   C576    1.415   .     A
C575   C1186   1.426   .     S
C575   C1175   1.417   .     S
C576   C577    1.412   .     A
H579   C1172   1.083   1_554 S
H581   O592    1.014   .     S
H582   O594    1.013   .     S
H583   O188    1.014   1_565 S
H584   O599    1.014   .     S
H585   O601    1.014   .     S
O586   Zn609   1.957   .     S
O586   Zn612   1.927   .     S
O586   Zn611   1.941   .     S
O586   Zn610   1.963   .     S
O587   Zn610   1.922   .     S
O588   Zn612   1.935   .     S
O589   Zn611   1.934   .     S
O590   Zn609   1.919   .     S
O593   C159    1.223   1_565 S
O595   C160    1.223   1_565 S
O597   Zn609   1.948   .     S
O602   Zn612   1.948   .     S
O603   Zn610   1.927   .     S
O604   Zn611   1.940   .     S
O605   Zn612   1.945   .     S
O606   Zn609   1.932   .     S
O607   Zn610   1.945   .     S
O608   Zn611   1.941   .     S
Br613  C619    1.927   .     S
Br614  C644    1.942   .     S
Br615  C19     1.934   1_556 S
Br616  C633    1.922   .     S
C617   C623    1.432   .     S
C617   O671    1.278   .     A
C617   O673    1.264   .     A
C618   C637    1.490   .     S
C618   C632    1.404   .     A
C618   C642    1.425   .     A
C619   C631    1.399   .     A
C619   C632    1.401   .     A
C620   O672    1.288   .     A
C620   C622    1.456   .     S
C620   O674    1.270   .     A
C621   C641    1.428   .     A
C621   C633    1.424   .     A
C621   C630    1.493   .     S
C622   C691    1.350   .     S
C622   H716    1.088   .     S
C623   C758    1.350   1_455 S
C623   C770    1.488   1_455 S
C624   C627    1.464   .     S
C624   C829    1.357   .     S
C624   C839    1.496   .     S
C625   C626    1.430   .     S
C625   C636    1.482   .     S
C625   C1032   1.357   1_545 S
C626   O675    1.281   .     A
C626   O665    1.271   .     A
C627   O676    1.270   .     A
C627   O670    1.269   .     A
C628   C633    1.389   .     A
C628   C27     1.383   1_556 S
C628   H35     1.083   1_556 S
C629   O655    1.282   .     A
C629   C632    1.464   .     S
C629   O657    1.286   .     A
C630   O656    1.277   .     A
C630   O658    1.296   .     A
C634   O660    1.398   .     S
C634   O659    1.224   .     D
C634   C691    1.488   .     S
C635   O662    1.399   .     S
C635   C1032   1.496   1_545 S
C635   O1069   1.223   1_545 S
C636   O664    1.398   .     S
C636   O1071   1.223   1_545 S
C637   O666    1.223   .     D
C637   O667    1.398   .     S
C638   C645    1.485   .     S
C638   O669    1.399   .     S
C638   O668    1.220   .     D
C639   H646    1.079   .     S
C640   C641    1.415   .     A
C640   C27     1.409   1_556 S
C640   C30     1.423   1_556 S
C641   C645    1.419   .     A
C643   C644    1.415   .     A
C643   C30     1.426   1_556 S
C643   C19     1.417   1_556 S
C644   C645    1.412   .     A
H648   C758    1.088   1_455 S
H649   O660    1.014   .     S
H650   O662    1.013   .     S
H651   O868    1.014   .     S
H652   O667    1.014   .     S
H653   O669    1.014   .     S
O654   Zn677   1.957   .     S
O654   Zn680   1.927   .     S
O654   Zn679   1.941   .     S
O654   Zn678   1.963   .     S
O655   Zn678   1.922   .     S
O656   Zn680   1.935   .     S
O657   Zn679   1.934   .     S
O658   Zn677   1.919   .     S
O661   C839    1.223   .     S
O663   C840    1.223   .     S
O664   H1059   1.014   1_545 S
O665   Zn677   1.948   .     S
O670   Zn680   1.948   .     S
O671   Zn678   1.927   .     S
O672   Zn679   1.940   .     S
O673   Zn680   1.945   .     S
O674   Zn677   1.932   .     S
O675   Zn678   1.945   .     S
O676   Zn679   1.941   .     S
Br681  C687    1.927   .     S
Br682  C712    1.942   .     S
Br683  C87     1.934   1_556 S
Br684  C701    1.922   .     S
C685   C691    1.432   .     S
C685   O739    1.278   .     A
C685   O741    1.264   .     A
C686   C705    1.490   .     S
C686   C700    1.404   .     A
C686   C710    1.425   .     A
C687   C699    1.399   .     A
C687   C700    1.401   .     A
C688   O740    1.288   .     A
C688   C690    1.456   .     S
C688   O742    1.270   .     A
C689   C709    1.428   .     A
C689   C701    1.424   .     A
C689   C698    1.493   .     S
C690   C759    1.350   .     S
C690   H784    1.088   .     S
C692   C695    1.464   .     S
C692   C897    1.357   .     S
C692   C907    1.496   .     S
C693   C694    1.430   .     S
C693   C704    1.482   .     S
C693   C1100   1.357   1_545 S
C694   O743    1.281   .     A
C694   O733    1.271   .     A
C695   O744    1.270   .     A
C695   O738    1.269   .     A
C696   C701    1.389   .     A
C696   C95     1.383   1_556 S
C696   H103    1.083   1_556 S
C697   O723    1.282   .     A
C697   C700    1.464   .     S
C697   O725    1.286   .     A
C698   O724    1.277   .     A
C698   O726    1.296   .     A
C702   O728    1.398   .     S
C702   O727    1.224   .     D
C702   C759    1.488   .     S
C703   O730    1.399   .     S
C703   C1100   1.496   1_545 S
C703   O1137   1.223   1_545 S
C704   O732    1.398   .     S
C704   O1139   1.223   1_545 S
C705   O734    1.223   .     D
C705   O735    1.398   .     S
C706   C713    1.485   .     S
C706   O737    1.399   .     S
C706   O736    1.220   .     D
C707   H714    1.079   .     S
C708   C709    1.415   .     A
C708   C95     1.409   1_556 S
C708   C98     1.423   1_556 S
C709   C713    1.419   .     A
C711   C712    1.415   .     A
C711   C98     1.426   1_556 S
C711   C87     1.417   1_556 S
C712   C713    1.412   .     A
H717   O728    1.014   .     S
H718   O730    1.013   .     S
H719   O936    1.014   .     S
H720   O735    1.014   .     S
H721   O737    1.014   .     S
O722   Zn745   1.957   .     S
O722   Zn748   1.927   .     S
O722   Zn747   1.941   .     S
O722   Zn746   1.963   .     S
O723   Zn746   1.922   .     S
O724   Zn748   1.935   .     S
O725   Zn747   1.934   .     S
O726   Zn745   1.919   .     S
O729   C907    1.223   .     S
O731   C908    1.223   .     S
O732   H1127   1.014   1_545 S
O733   Zn745   1.948   .     S
O738   Zn748   1.948   .     S
O739   Zn746   1.927   .     S
O740   Zn747   1.940   .     S
O741   Zn748   1.945   .     S
O742   Zn745   1.932   .     S
O743   Zn746   1.945   .     S
O744   Zn747   1.941   .     S
Br749  C755    1.927   .     S
Br750  C780    1.942   .     S
Br751  C155    1.934   1_556 S
Br752  C769    1.922   .     S
C753   C759    1.432   .     S
C753   O807    1.278   .     A
C753   O809    1.264   .     A
C754   C773    1.490   .     S
C754   C768    1.404   .     A
C754   C778    1.425   .     A
C755   C767    1.399   .     A
C755   C768    1.401   .     A
C756   O808    1.288   .     A
C756   C758    1.456   .     S
C756   O810    1.270   .     A
C757   C777    1.428   .     A
C757   C769    1.424   .     A
C757   C766    1.493   .     S
C758   C623    1.350   1_655 S
C758   H648    1.088   1_655 S
C760   C763    1.464   .     S
C760   C965    1.357   .     S
C760   C975    1.496   .     S
C761   C762    1.430   .     S
C761   C772    1.482   .     S
C761   C1168   1.357   1_545 S
C762   O811    1.281   .     A
C762   O801    1.271   .     A
C763   O812    1.270   .     A
C763   O806    1.269   .     A
C764   C769    1.389   .     A
C764   C163    1.383   1_556 S
C764   H171    1.083   1_556 S
C765   O791    1.282   .     A
C765   C768    1.464   .     S
C765   O793    1.286   .     A
C766   O792    1.277   .     A
C766   O794    1.296   .     A
C770   O796    1.398   .     S
C770   O795    1.224   .     D
C770   C623    1.488   1_655 S
C771   O798    1.399   .     S
C771   C1168   1.496   1_545 S
C771   O1205   1.223   1_545 S
C772   O800    1.398   .     S
C772   O1207   1.223   1_545 S
C773   O802    1.223   .     D
C773   O803    1.398   .     S
C774   C781    1.485   .     S
C774   O805    1.399   .     S
C774   O804    1.220   .     D
C775   H782    1.079   .     S
C776   C777    1.415   .     A
C776   C163    1.409   1_556 S
C776   C166    1.423   1_556 S
C777   C781    1.419   .     A
C779   C780    1.415   .     A
C779   C166    1.426   1_556 S
C779   C155    1.417   1_556 S
C780   C781    1.412   .     A
H785   O796    1.014   .     S
H786   O798    1.013   .     S
H787   O1004   1.014   .     S
H788   O803    1.014   .     S
H789   O805    1.014   .     S
O790   Zn813   1.957   .     S
O790   Zn816   1.927   .     S
O790   Zn815   1.941   .     S
O790   Zn814   1.963   .     S
O791   Zn814   1.922   .     S
O792   Zn816   1.935   .     S
O793   Zn815   1.934   .     S
O794   Zn813   1.919   .     S
O797   C975    1.223   .     S
O799   C976    1.223   .     S
O800   H1195   1.014   1_545 S
O801   Zn813   1.948   .     S
O806   Zn816   1.948   .     S
O807   Zn814   1.927   .     S
O808   Zn815   1.940   .     S
O809   Zn816   1.945   .     S
O810   Zn813   1.932   .     S
O811   Zn814   1.945   .     S
O812   Zn815   1.941   .     S
Br817  C823    1.927   .     S
Br818  C848    1.942   .     S
Br819  C223    1.934   1_556 S
Br820  C837    1.922   .     S
C821   C827    1.432   .     S
C821   O875    1.278   .     A
C821   O877    1.264   .     A
C822   C841    1.490   .     S
C822   C836    1.404   .     A
C822   C846    1.425   .     A
C823   C835    1.399   .     A
C823   C836    1.401   .     A
C824   O876    1.288   .     A
C824   C826    1.456   .     S
C824   O878    1.270   .     A
C825   C845    1.428   .     A
C825   C837    1.424   .     A
C825   C834    1.493   .     S
C826   C895    1.350   .     S
C826   H920    1.088   .     S
C827   C962    1.350   1_455 S
C827   C974    1.488   1_455 S
C828   C831    1.464   .     S
C828   C1033   1.357   .     S
C828   C1043   1.496   .     S
C829   C830    1.430   .     S
C829   C840    1.482   .     S
C830   O879    1.281   .     A
C830   O869    1.271   .     A
C831   O880    1.270   .     A
C831   O874    1.269   .     A
C832   C837    1.389   .     A
C832   C231    1.383   1_556 S
C832   H239    1.083   1_556 S
C833   O859    1.282   .     A
C833   C836    1.464   .     S
C833   O861    1.286   .     A
C834   O860    1.277   .     A
C834   O862    1.296   .     A
C838   O864    1.398   .     S
C838   O863    1.224   .     D
C838   C895    1.488   .     S
C839   O866    1.399   .     S
C840   O868    1.398   .     S
C841   O870    1.223   .     D
C841   O871    1.398   .     S
C842   C849    1.485   .     S
C842   O873    1.399   .     S
C842   O872    1.220   .     D
C843   H850    1.079   .     S
C844   C845    1.415   .     A
C844   C231    1.409   1_556 S
C844   C234    1.423   1_556 S
C845   C849    1.419   .     A
C847   C848    1.415   .     A
C847   C234    1.426   1_556 S
C847   C223    1.417   1_556 S
C848   C849    1.412   .     A
H852   C962    1.088   1_455 S
H853   O864    1.014   .     S
H854   O866    1.013   .     S
H855   O1072   1.014   .     S
H856   O871    1.014   .     S
H857   O873    1.014   .     S
O858   Zn881   1.957   .     S
O858   Zn884   1.927   .     S
O858   Zn883   1.941   .     S
O858   Zn882   1.963   .     S
O859   Zn882   1.922   .     S
O860   Zn884   1.935   .     S
O861   Zn883   1.934   .     S
O862   Zn881   1.919   .     S
O865   C1043   1.223   .     S
O867   C1044   1.223   .     S
O869   Zn881   1.948   .     S
O874   Zn884   1.948   .     S
O875   Zn882   1.927   .     S
O876   Zn883   1.940   .     S
O877   Zn884   1.945   .     S
O878   Zn881   1.932   .     S
O879   Zn882   1.945   .     S
O880   Zn883   1.941   .     S
Br885  C891    1.927   .     S
Br886  C916    1.942   .     S
Br887  C291    1.934   1_556 S
Br888  C905    1.922   .     S
C889   C895    1.432   .     S
C889   O943    1.278   .     A
C889   O945    1.264   .     A
C890   C909    1.490   .     S
C890   C904    1.404   .     A
C890   C914    1.425   .     A
C891   C903    1.399   .     A
C891   C904    1.401   .     A
C892   O944    1.288   .     A
C892   C894    1.456   .     S
C892   O946    1.270   .     A
C893   C913    1.428   .     A
C893   C905    1.424   .     A
C893   C902    1.493   .     S
C894   C963    1.350   .     S
C894   H988    1.088   .     S
C896   C899    1.464   .     S
C896   C1101   1.357   .     S
C896   C1111   1.496   .     S
C897   C898    1.430   .     S
C897   C908    1.482   .     S
C898   O947    1.281   .     A
C898   O937    1.271   .     A
C899   O948    1.270   .     A
C899   O942    1.269   .     A
C900   C905    1.389   .     A
C900   C299    1.383   1_556 S
C900   H307    1.083   1_556 S
C901   O927    1.282   .     A
C901   C904    1.464   .     S
C901   O929    1.286   .     A
C902   O928    1.277   .     A
C902   O930    1.296   .     A
C906   O932    1.398   .     S
C906   O931    1.224   .     D
C906   C963    1.488   .     S
C907   O934    1.399   .     S
C908   O936    1.398   .     S
C909   O938    1.223   .     D
C909   O939    1.398   .     S
C910   C917    1.485   .     S
C910   O941    1.399   .     S
C910   O940    1.220   .     D
C911   H918    1.079   .     S
C912   C913    1.415   .     A
C912   C299    1.409   1_556 S
C912   C302    1.423   1_556 S
C913   C917    1.419   .     A
C915   C916    1.415   .     A
C915   C302    1.426   1_556 S
C915   C291    1.417   1_556 S
C916   C917    1.412   .     A
H921   O932    1.014   .     S
H922   O934    1.013   .     S
H923   O1140   1.014   .     S
H924   O939    1.014   .     S
H925   O941    1.014   .     S
O926   Zn949   1.957   .     S
O926   Zn952   1.927   .     S
O926   Zn951   1.941   .     S
O926   Zn950   1.963   .     S
O927   Zn950   1.922   .     S
O928   Zn952   1.935   .     S
O929   Zn951   1.934   .     S
O930   Zn949   1.919   .     S
O933   C1111   1.223   .     S
O935   C1112   1.223   .     S
O937   Zn949   1.948   .     S
O942   Zn952   1.948   .     S
O943   Zn950   1.927   .     S
O944   Zn951   1.940   .     S
O945   Zn952   1.945   .     S
O946   Zn949   1.932   .     S
O947   Zn950   1.945   .     S
O948   Zn951   1.941   .     S
Br953  C959    1.927   .     S
Br954  C984    1.942   .     S
Br955  C359    1.934   1_556 S
Br956  C973    1.922   .     S
C957   C963    1.432   .     S
C957   O1011   1.278   .     A
C957   O1013   1.264   .     A
C958   C977    1.490   .     S
C958   C972    1.404   .     A
C958   C982    1.425   .     A
C959   C971    1.399   .     A
C959   C972    1.401   .     A
C960   O1012   1.288   .     A
C960   C962    1.456   .     S
C960   O1014   1.270   .     A
C961   C981    1.428   .     A
C961   C973    1.424   .     A
C961   C970    1.493   .     S
C962   C827    1.350   1_655 S
C962   H852    1.088   1_655 S
C964   C967    1.464   .     S
C964   C1169   1.357   .     S
C964   C1179   1.496   .     S
C965   C966    1.430   .     S
C965   C976    1.482   .     S
C966   O1015   1.281   .     A
C966   O1005   1.271   .     A
C967   O1016   1.270   .     A
C967   O1010   1.269   .     A
C968   C973    1.389   .     A
C968   C367    1.383   1_556 S
C968   H375    1.083   1_556 S
C969   O995    1.282   .     A
C969   C972    1.464   .     S
C969   O997    1.286   .     A
C970   O996    1.277   .     A
C970   O998    1.296   .     A
C974   O1000   1.398   .     S
C974   O999    1.224   .     D
C974   C827    1.488   1_655 S
C975   O1002   1.399   .     S
C976   O1004   1.398   .     S
C977   O1006   1.223   .     D
C977   O1007   1.398   .     S
C978   C985    1.485   .     S
C978   O1009   1.399   .     S
C978   O1008   1.220   .     D
C979   H986    1.079   .     S
C980   C981    1.415   .     A
C980   C367    1.409   1_556 S
C980   C370    1.423   1_556 S
C981   C985    1.419   .     A
C983   C984    1.415   .     A
C983   C370    1.426   1_556 S
C983   C359    1.417   1_556 S
C984   C985    1.412   .     A
H989   O1000   1.014   .     S
H990   O1002   1.013   .     S
H991   O1208   1.014   .     S
H992   O1007   1.014   .     S
H993   O1009   1.014   .     S
O994   Zn1017  1.957   .     S
O994   Zn1020  1.927   .     S
O994   Zn1019  1.941   .     S
O994   Zn1018  1.963   .     S
O995   Zn1018  1.922   .     S
O996   Zn1020  1.935   .     S
O997   Zn1019  1.934   .     S
O998   Zn1017  1.919   .     S
O1001  C1179   1.223   .     S
O1003  C1180   1.223   .     S
O1005  Zn1017  1.948   .     S
O1010  Zn1020  1.948   .     S
O1011  Zn1018  1.927   .     S
O1012  Zn1019  1.940   .     S
O1013  Zn1020  1.945   .     S
O1014  Zn1017  1.932   .     S
O1015  Zn1018  1.945   .     S
O1016  Zn1019  1.941   .     S
Br1021 C1027   1.927   .     S
Br1022 C1052   1.942   .     S
Br1023 C427    1.934   1_556 S
Br1024 C1041   1.922   .     S
C1025  C1031   1.432   .     S
C1025  O1079   1.278   .     A
C1025  O1081   1.264   .     A
C1026  C1045   1.490   .     S
C1026  C1040   1.404   .     A
C1026  C1050   1.425   .     A
C1027  C1039   1.399   .     A
C1027  C1040   1.401   .     A
C1028  O1080   1.288   .     A
C1028  C1030   1.456   .     S
C1028  O1082   1.270   .     A
C1029  C1049   1.428   .     A
C1029  C1041   1.424   .     A
C1029  C1038   1.493   .     S
C1030  C1099   1.350   .     S
C1030  H1124   1.088   .     S
C1031  C1166   1.350   1_455 S
C1031  C1178   1.488   1_455 S
C1032  C1035   1.464   .     S
C1032  C625    1.357   1_565 S
C1032  C635    1.496   1_565 S
C1033  C1034   1.430   .     S
C1033  C1044   1.482   .     S
C1034  O1083   1.281   .     A
C1034  O1073   1.271   .     A
C1035  O1084   1.270   .     A
C1035  O1078   1.269   .     A
C1036  C1041   1.389   .     A
C1036  C435    1.383   1_556 S
C1036  H443    1.083   1_556 S
C1037  O1063   1.282   .     A
C1037  C1040   1.464   .     S
C1037  O1065   1.286   .     A
C1038  O1064   1.277   .     A
C1038  O1066   1.296   .     A
C1042  O1068   1.398   .     S
C1042  O1067   1.224   .     D
C1042  C1099   1.488   .     S
C1043  O1070   1.399   .     S
C1044  O1072   1.398   .     S
C1045  O1074   1.223   .     D
C1045  O1075   1.398   .     S
C1046  C1053   1.485   .     S
C1046  O1077   1.399   .     S
C1046  O1076   1.220   .     D
C1047  H1054   1.079   .     S
C1048  C1049   1.415   .     A
C1048  C435    1.409   1_556 S
C1048  C438    1.423   1_556 S
C1049  C1053   1.419   .     A
C1051  C1052   1.415   .     A
C1051  C438    1.426   1_556 S
C1051  C427    1.417   1_556 S
C1052  C1053   1.412   .     A
H1056  C1166   1.088   1_455 S
H1057  O1068   1.014   .     S
H1058  O1070   1.013   .     S
H1059  O664    1.014   1_565 S
H1060  O1075   1.014   .     S
H1061  O1077   1.014   .     S
O1062  Zn1085  1.957   .     S
O1062  Zn1088  1.927   .     S
O1062  Zn1087  1.941   .     S
O1062  Zn1086  1.963   .     S
O1063  Zn1086  1.922   .     S
O1064  Zn1088  1.935   .     S
O1065  Zn1087  1.934   .     S
O1066  Zn1085  1.919   .     S
O1069  C635    1.223   1_565 S
O1071  C636    1.223   1_565 S
O1073  Zn1085  1.948   .     S
O1078  Zn1088  1.948   .     S
O1079  Zn1086  1.927   .     S
O1080  Zn1087  1.940   .     S
O1081  Zn1088  1.945   .     S
O1082  Zn1085  1.932   .     S
O1083  Zn1086  1.945   .     S
O1084  Zn1087  1.941   .     S
Br1089 C1095   1.927   .     S
Br1090 C1120   1.942   .     S
Br1091 C495    1.934   1_556 S
Br1092 C1109   1.922   .     S
C1093  C1099   1.432   .     S
C1093  O1147   1.278   .     A
C1093  O1149   1.264   .     A
C1094  C1113   1.490   .     S
C1094  C1108   1.404   .     A
C1094  C1118   1.425   .     A
C1095  C1107   1.399   .     A
C1095  C1108   1.401   .     A
C1096  O1148   1.288   .     A
C1096  C1098   1.456   .     S
C1096  O1150   1.270   .     A
C1097  C1117   1.428   .     A
C1097  C1109   1.424   .     A
C1097  C1106   1.493   .     S
C1098  C1167   1.350   .     S
C1098  H1192   1.088   .     S
C1100  C1103   1.464   .     S
C1100  C693    1.357   1_565 S
C1100  C703    1.496   1_565 S
C1101  C1102   1.430   .     S
C1101  C1112   1.482   .     S
C1102  O1151   1.281   .     A
C1102  O1141   1.271   .     A
C1103  O1152   1.270   .     A
C1103  O1146   1.269   .     A
C1104  C1109   1.389   .     A
C1104  C503    1.383   1_556 S
C1104  H511    1.083   1_556 S
C1105  O1131   1.282   .     A
C1105  C1108   1.464   .     S
C1105  O1133   1.286   .     A
C1106  O1132   1.277   .     A
C1106  O1134   1.296   .     A
C1110  O1136   1.398   .     S
C1110  O1135   1.224   .     D
C1110  C1167   1.488   .     S
C1111  O1138   1.399   .     S
C1112  O1140   1.398   .     S
C1113  O1142   1.223   .     D
C1113  O1143   1.398   .     S
C1114  C1121   1.485   .     S
C1114  O1145   1.399   .     S
C1114  O1144   1.220   .     D
C1115  H1122   1.079   .     S
C1116  C1117   1.415   .     A
C1116  C503    1.409   1_556 S
C1116  C506    1.423   1_556 S
C1117  C1121   1.419   .     A
C1119  C1120   1.415   .     A
C1119  C506    1.426   1_556 S
C1119  C495    1.417   1_556 S
C1120  C1121   1.412   .     A
H1125  O1136   1.014   .     S
H1126  O1138   1.013   .     S
H1127  O732    1.014   1_565 S
H1128  O1143   1.014   .     S
H1129  O1145   1.014   .     S
O1130  Zn1153  1.957   .     S
O1130  Zn1156  1.927   .     S
O1130  Zn1155  1.941   .     S
O1130  Zn1154  1.963   .     S
O1131  Zn1154  1.922   .     S
O1132  Zn1156  1.935   .     S
O1133  Zn1155  1.934   .     S
O1134  Zn1153  1.919   .     S
O1137  C703    1.223   1_565 S
O1139  C704    1.223   1_565 S
O1141  Zn1153  1.948   .     S
O1146  Zn1156  1.948   .     S
O1147  Zn1154  1.927   .     S
O1148  Zn1155  1.940   .     S
O1149  Zn1156  1.945   .     S
O1150  Zn1153  1.932   .     S
O1151  Zn1154  1.945   .     S
O1152  Zn1155  1.941   .     S
Br1157 C1163   1.927   .     S
Br1158 C1188   1.942   .     S
Br1159 C563    1.934   1_556 S
Br1160 C1177   1.922   .     S
C1161  C1167   1.432   .     S
C1161  O1215   1.278   .     A
C1161  O1217   1.264   .     A
C1162  C1181   1.490   .     S
C1162  C1176   1.404   .     A
C1162  C1186   1.425   .     A
C1163  C1175   1.399   .     A
C1163  C1176   1.401   .     A
C1164  O1216   1.288   .     A
C1164  C1166   1.456   .     S
C1164  O1218   1.270   .     A
C1165  C1185   1.428   .     A
C1165  C1177   1.424   .     A
C1165  C1174   1.493   .     S
C1166  C1031   1.350   1_655 S
C1166  H1056   1.088   1_655 S
C1168  C1171   1.464   .     S
C1168  C761    1.357   1_565 S
C1168  C771    1.496   1_565 S
C1169  C1170   1.430   .     S
C1169  C1180   1.482   .     S
C1170  O1219   1.281   .     A
C1170  O1209   1.271   .     A
C1171  O1220   1.270   .     A
C1171  O1214   1.269   .     A
C1172  C1177   1.389   .     A
C1172  C571    1.383   1_556 S
C1172  H579    1.083   1_556 S
C1173  O1199   1.282   .     A
C1173  C1176   1.464   .     S
C1173  O1201   1.286   .     A
C1174  O1200   1.277   .     A
C1174  O1202   1.296   .     A
C1178  O1204   1.398   .     S
C1178  O1203   1.224   .     D
C1178  C1031   1.488   1_655 S
C1179  O1206   1.399   .     S
C1180  O1208   1.398   .     S
C1181  O1210   1.223   .     D
C1181  O1211   1.398   .     S
C1182  C1189   1.485   .     S
C1182  O1213   1.399   .     S
C1182  O1212   1.220   .     D
C1183  H1190   1.079   .     S
C1184  C1185   1.415   .     A
C1184  C571    1.409   1_556 S
C1184  C574    1.423   1_556 S
C1185  C1189   1.419   .     A
C1187  C1188   1.415   .     A
C1187  C574    1.426   1_556 S
C1187  C563    1.417   1_556 S
C1188  C1189   1.412   .     A
H1193  O1204   1.014   .     S
H1194  O1206   1.013   .     S
H1195  O800    1.014   1_565 S
H1196  O1211   1.014   .     S
H1197  O1213   1.014   .     S
O1198  Zn1221  1.957   .     S
O1198  Zn1224  1.927   .     S
O1198  Zn1223  1.941   .     S
O1198  Zn1222  1.963   .     S
O1199  Zn1222  1.922   .     S
O1200  Zn1224  1.935   .     S
O1201  Zn1223  1.934   .     S
O1202  Zn1221  1.919   .     S
O1205  C771    1.223   1_565 S
O1207  C772    1.223   1_565 S
O1209  Zn1221  1.948   .     S
O1214  Zn1224  1.948   .     S
O1215  Zn1222  1.927   .     S
O1216  Zn1223  1.940   .     S
O1217  Zn1224  1.945   .     S
O1218  Zn1221  1.932   .     S
O1219  Zn1222  1.945   .     S
O1220  Zn1223  1.941   .     S
