data_str_m1_o1_o1_pcu_sym.3
_audit_creation_date              2020-01-03
_audit_creation_method            'Materials Studio'
_symmetry_space_group_name_H-M    'P1'
_symmetry_Int_Tables_number       1
_symmetry_cell_setting            triclinic
loop_
_symmetry_equiv_pos_as_xyz
  x,y,z
_cell_length_a                    25.8117
_cell_length_b                    25.9254
_cell_length_c                    25.9159
_cell_angle_alpha                 89.9998
_cell_angle_beta                  89.9998
_cell_angle_gamma                 90.0001
loop_
_atom_site_label
_atom_site_type_symbol
_atom_site_fract_x
_atom_site_fract_y
_atom_site_fract_z
_atom_site_U_iso_or_equiv
_atom_site_adp_type
_atom_site_occupancy
C1     C     0.39001   0.25000   0.25000   0.00000  Uiso   1.00
C2     C     0.60999   0.25000   0.25000   0.00000  Uiso   1.00
C3     C     0.97292   0.71572   0.28242   0.00000  Uiso   1.00
C4     C     0.02708   0.78438   0.78231   0.00000  Uiso   1.00
C5     C     0.97292   0.21609   0.21721   0.00000  Uiso   1.00
C6     C     0.02708   0.71572   0.28242   0.00000  Uiso   1.00
C7     C     0.97292   0.28427   0.71757   0.00000  Uiso   1.00
C8     C     0.79689   0.75687   0.02696   0.00000  Uiso   1.00
C9     C     0.20311   0.24314   0.97304   0.00000  Uiso   1.00
C10    C     0.70311   0.25683   0.02696   0.00000  Uiso   1.00
C11    C     0.29689   0.74314   0.97304   0.00000  Uiso   1.00
C12    C     0.20311   0.24314   0.02695   0.00000  Uiso   1.00
C13    C     0.25000   0.75000   0.39008   0.00000  Uiso   1.00
C14    C     0.79689   0.75687   0.97304   0.00000  Uiso   1.00
C15    C     0.29689   0.74314   0.02696   0.00000  Uiso   1.00
C16    C     0.70310   0.25683   0.97304   0.00000  Uiso   1.00
C17    C     0.20311   0.75687   0.97304   0.00000  Uiso   1.00
C18    C     0.79689   0.24317   0.02695   0.00000  Uiso   1.00
C19    C     0.29689   0.25686   0.97304   0.00000  Uiso   1.00
C20    C     0.70311   0.74313   0.02696   0.00000  Uiso   1.00
C21    C     0.79689   0.24317   0.97304   0.00000  Uiso   1.00
C22    C     0.20311   0.75687   0.02696   0.00000  Uiso   1.00
C23    C     0.70311   0.74313   0.97304   0.00000  Uiso   1.00
C24    C     0.75000   0.25000   0.60992   0.00000  Uiso   1.00
C25    C     0.29689   0.25686   0.02696   0.00000  Uiso   1.00
C26    C     0.70305   0.47305   0.75648   0.00000  Uiso   1.00
C27    C     0.29695   0.52695   0.24352   0.00000  Uiso   1.00
C28    C     0.70305   0.47305   0.24354   0.00000  Uiso   1.00
C29    C     0.29695   0.52695   0.75646   0.00000  Uiso   1.00
C30    C     0.29695   0.47305   0.24352   0.00000  Uiso   1.00
C31    C     0.70305   0.52695   0.75648   0.00000  Uiso   1.00
C32    C     0.29695   0.47305   0.75646   0.00000  Uiso   1.00
C33    C     0.70305   0.52695   0.24354   0.00000  Uiso   1.00
C34    C     0.47292   0.28428   0.21758   0.00000  Uiso   1.00
C35    C     0.60999   0.75000   0.25000   0.00000  Uiso   1.00
C36    C     0.52708   0.71586   0.78256   0.00000  Uiso   1.00
C37    C     0.47292   0.71599   0.21730   0.00000  Uiso   1.00
C38    C     0.52708   0.28409   0.78261   0.00000  Uiso   1.00
C39    C     0.47292   0.71586   0.78256   0.00000  Uiso   1.00
C40    C     0.52708   0.28428   0.21758   0.00000  Uiso   1.00
C41    C     0.47292   0.28409   0.78261   0.00000  Uiso   1.00
C42    C     0.52708   0.71599   0.21731   0.00000  Uiso   1.00
C43    C     0.29689   0.75687   0.52696   0.00000  Uiso   1.00
C44    C     0.70311   0.24314   0.47304   0.00000  Uiso   1.00
C45    C     0.70311   0.75686   0.52696   0.00000  Uiso   1.00
C46    C     0.39001   0.25000   0.75000   0.00000  Uiso   1.00
C47    C     0.29690   0.24316   0.47304   0.00000  Uiso   1.00
C48    C     0.70311   0.24314   0.52696   0.00000  Uiso   1.00
C49    C     0.29689   0.75686   0.47304   0.00000  Uiso   1.00
C50    C     0.29690   0.24316   0.52696   0.00000  Uiso   1.00
C51    C     0.70311   0.75686   0.47304   0.00000  Uiso   1.00
C52    C     0.25000   0.55380   0.25000   0.00000  Uiso   1.00
C53    C     0.75000   0.44620   0.75000   0.00000  Uiso   1.00
C54    C     0.25000   0.55380   0.75000   0.00000  Uiso   1.00
C55    C     0.75000   0.44620   0.25000   0.00000  Uiso   1.00
C56    C     0.75000   0.55380   0.75000   0.00000  Uiso   1.00
C57    C     0.75000   0.75000   0.60992   0.00000  Uiso   1.00
C58    C     0.25000   0.44620   0.25000   0.00000  Uiso   1.00
C59    C     0.75000   0.55380   0.25000   0.00000  Uiso   1.00
C60    C     0.25000   0.44620   0.75000   0.00000  Uiso   1.00
C61    C     0.55387   0.75000   0.75000   0.00000  Uiso   1.00
C62    C     0.44613   0.25000   0.25000   0.00000  Uiso   1.00
C63    C     0.55387   0.25000   0.75000   0.00000  Uiso   1.00
C64    C     0.44613   0.75000   0.25000   0.00000  Uiso   1.00
C65    C     0.55387   0.25000   0.25000   0.00000  Uiso   1.00
C66    C     0.44613   0.75000   0.75000   0.00000  Uiso   1.00
C67    C     0.55387   0.75000   0.25000   0.00000  Uiso   1.00
C68    C     0.25000   0.25000   0.39008   0.00000  Uiso   1.00
C69    C     0.44613   0.25000   0.75000   0.00000  Uiso   1.00
C70    C     0.75000   0.25000   0.44619   0.00000  Uiso   1.00
C71    C     0.25000   0.75000   0.55381   0.00000  Uiso   1.00
C72    C     0.25000   0.25000   0.44619   0.00000  Uiso   1.00
C73    C     0.75000   0.75000   0.55381   0.00000  Uiso   1.00
C74    C     0.25000   0.75000   0.44619   0.00000  Uiso   1.00
C75    C     0.75000   0.25000   0.55381   0.00000  Uiso   1.00
C76    C     0.75000   0.75000   0.44619   0.00000  Uiso   1.00
C77    C     0.25000   0.25000   0.55381   0.00000  Uiso   1.00
C78    C     0.75000   0.05380   0.25000   0.00000  Uiso   1.00
C79    C     0.25000   0.39009   0.75000   0.00000  Uiso   1.00
C80    C     0.25000   0.94620   0.75000   0.00000  Uiso   1.00
C81    C     0.25000   0.05380   0.25000   0.00000  Uiso   1.00
C82    C     0.75000   0.94620   0.75000   0.00000  Uiso   1.00
C83    C     0.25000   0.05380   0.75000   0.00000  Uiso   1.00
C84    C     0.75000   0.94620   0.25000   0.00000  Uiso   1.00
C85    C     0.75000   0.05380   0.75000   0.00000  Uiso   1.00
C86    C     0.25000   0.94620   0.25000   0.00000  Uiso   1.00
C87    C     0.05387   0.75000   0.25000   0.00000  Uiso   1.00
C88    C     0.94613   0.25000   0.75000   0.00000  Uiso   1.00
C89    C     0.05387   0.75000   0.75000   0.00000  Uiso   1.00
C90    C     0.75000   0.60991   0.25000   0.00000  Uiso   1.00
C91    C     0.94613   0.25000   0.25000   0.00000  Uiso   1.00
C92    C     0.05387   0.25000   0.75000   0.00000  Uiso   1.00
C93    C     0.94613   0.75000   0.25000   0.00000  Uiso   1.00
C94    C     0.05387   0.25000   0.25000   0.00000  Uiso   1.00
C95    C     0.94613   0.75000   0.75000   0.00000  Uiso   1.00
C96    C     0.75000   0.75000   0.94619   0.00000  Uiso   1.00
C97    C     0.25000   0.25000   0.05381   0.00000  Uiso   1.00
C98    C     0.75000   0.25000   0.94619   0.00000  Uiso   1.00
C99    C     0.25000   0.75000   0.05381   0.00000  Uiso   1.00
C100   C     0.25000   0.25000   0.94619   0.00000  Uiso   1.00
C101   C     0.25000   0.60991   0.25000   0.00000  Uiso   1.00
C102   C     0.75000   0.75000   0.05381   0.00000  Uiso   1.00
C103   C     0.25000   0.75000   0.94619   0.00000  Uiso   1.00
C104   C     0.75000   0.25000   0.05381   0.00000  Uiso   1.00
C105   C     0.60999   0.75000   0.75000   0.00000  Uiso   1.00
C106   C     0.75000   0.39009   0.75000   0.00000  Uiso   1.00
C107   C     0.75000   0.60991   0.75000   0.00000  Uiso   1.00
C108   C     0.25000   0.39009   0.25000   0.00000  Uiso   1.00
C109   C     0.75000   0.39009   0.25000   0.00000  Uiso   1.00
C110   C     0.25000   0.60991   0.75000   0.00000  Uiso   1.00
C111   C     0.89001   0.75000   0.25000   0.00000  Uiso   1.00
C112   C     0.10999   0.25000   0.75000   0.00000  Uiso   1.00
C113   C     0.25000   0.75000   0.10992   0.00000  Uiso   1.00
C114   C     0.75000   0.25000   0.89008   0.00000  Uiso   1.00
C115   C     0.10999   0.75000   0.75000   0.00000  Uiso   1.00
C116   C     0.25000   0.25000   0.60992   0.00000  Uiso   1.00
C117   C     0.89001   0.25000   0.25000   0.00000  Uiso   1.00
C118   C     0.75000   0.75000   0.89008   0.00000  Uiso   1.00
C119   C     0.25000   0.25000   0.10992   0.00000  Uiso   1.00
C120   C     0.89001   0.25000   0.75000   0.00000  Uiso   1.00
C121   C     0.10999   0.75000   0.25000   0.00000  Uiso   1.00
C122   C     0.25000   0.25000   0.89008   0.00000  Uiso   1.00
C123   C     0.75000   0.75000   0.10992   0.00000  Uiso   1.00
C124   C     0.10999   0.25000   0.25000   0.00000  Uiso   1.00
C125   C     0.89001   0.75000   0.75000   0.00000  Uiso   1.00
C126   C     0.75000   0.25000   0.10992   0.00000  Uiso   1.00
C127   C     0.75000   0.75000   0.39008   0.00000  Uiso   1.00
C128   C     0.25000   0.75000   0.89008   0.00000  Uiso   1.00
C129   C     0.75000   0.89009   0.75000   0.00000  Uiso   1.00
C130   C     0.25000   0.10991   0.25000   0.00000  Uiso   1.00
C131   C     0.75000   0.10991   0.25000   0.00000  Uiso   1.00
C132   C     0.25000   0.89009   0.75000   0.00000  Uiso   1.00
C133   C     0.25000   0.10991   0.75000   0.00000  Uiso   1.00
C134   C     0.75000   0.89009   0.25000   0.00000  Uiso   1.00
C135   C     0.25000   0.89009   0.25000   0.00000  Uiso   1.00
C136   C     0.75000   0.10991   0.75000   0.00000  Uiso   1.00
C137   C     0.20305   0.47305   0.25648   0.00000  Uiso   1.00
C138   C     0.60999   0.25000   0.75000   0.00000  Uiso   1.00
C139   C     0.79694   0.52695   0.74352   0.00000  Uiso   1.00
C140   C     0.20305   0.47305   0.74355   0.00000  Uiso   1.00
C141   C     0.79695   0.52695   0.25645   0.00000  Uiso   1.00
C142   C     0.79694   0.47305   0.74352   0.00000  Uiso   1.00
C143   C     0.20305   0.52695   0.25648   0.00000  Uiso   1.00
C144   C     0.79695   0.47305   0.25646   0.00000  Uiso   1.00
C145   C     0.20305   0.52695   0.74355   0.00000  Uiso   1.00
C146   C     0.47292   0.78414   0.71744   0.00000  Uiso   1.00
C147   C     0.52708   0.21572   0.28242   0.00000  Uiso   1.00
C148   C     0.47292   0.21591   0.71739   0.00000  Uiso   1.00
C149   C     0.39001   0.75000   0.25000   0.00000  Uiso   1.00
C150   C     0.52708   0.78400   0.28270   0.00000  Uiso   1.00
C151   C     0.47292   0.21572   0.28242   0.00000  Uiso   1.00
C152   C     0.52708   0.78414   0.71744   0.00000  Uiso   1.00
C153   C     0.47292   0.78400   0.28270   0.00000  Uiso   1.00
C154   C     0.52708   0.21591   0.71739   0.00000  Uiso   1.00
C155   C     0.79689   0.25686   0.52696   0.00000  Uiso   1.00
C156   C     0.20311   0.74313   0.47304   0.00000  Uiso   1.00
C157   C     0.20310   0.25684   0.52696   0.00000  Uiso   1.00
C158   C     0.79690   0.74313   0.47304   0.00000  Uiso   1.00
C159   C     0.20311   0.74313   0.52696   0.00000  Uiso   1.00
C160   C     0.75000   0.25000   0.39008   0.00000  Uiso   1.00
C161   C     0.79689   0.25686   0.47304   0.00000  Uiso   1.00
C162   C     0.79690   0.74313   0.52696   0.00000  Uiso   1.00
C163   C     0.20310   0.25684   0.47304   0.00000  Uiso   1.00
C164   C     0.70306   0.97305   0.25648   0.00000  Uiso   1.00
C165   C     0.29695   0.02695   0.74351   0.00000  Uiso   1.00
C166   C     0.20305   0.97305   0.24353   0.00000  Uiso   1.00
C167   C     0.79695   0.02695   0.75645   0.00000  Uiso   1.00
C168   C     0.29695   0.97305   0.74351   0.00000  Uiso   1.00
C169   C     0.70305   0.02695   0.25648   0.00000  Uiso   1.00
C170   C     0.79695   0.97305   0.75645   0.00000  Uiso   1.00
C171   C     0.25000   0.75000   0.60992   0.00000  Uiso   1.00
C172   C     0.20305   0.02695   0.24353   0.00000  Uiso   1.00
C173   C     0.70305   0.02695   0.74354   0.00000  Uiso   1.00
C174   C     0.29695   0.97305   0.25647   0.00000  Uiso   1.00
C175   C     0.20306   0.02695   0.75648   0.00000  Uiso   1.00
C176   C     0.79695   0.97305   0.24352   0.00000  Uiso   1.00
C177   C     0.29695   0.02695   0.25646   0.00000  Uiso   1.00
C178   C     0.70305   0.97305   0.74354   0.00000  Uiso   1.00
C179   C     0.79695   0.02695   0.24352   0.00000  Uiso   1.00
C180   C     0.20306   0.97305   0.75648   0.00000  Uiso   1.00
C181   C     0.97292   0.78427   0.21758   0.00000  Uiso   1.00
C182   C     0.39001   0.75000   0.75000   0.00000  Uiso   1.00
C183   C     0.02708   0.21573   0.78243   0.00000  Uiso   1.00
C184   C     0.97292   0.71562   0.71769   0.00000  Uiso   1.00
C185   C     0.02708   0.28391   0.28279   0.00000  Uiso   1.00
C186   C     0.97292   0.21573   0.78243   0.00000  Uiso   1.00
C187   C     0.02708   0.78427   0.21758   0.00000  Uiso   1.00
C188   C     0.97292   0.28391   0.28279   0.00000  Uiso   1.00
C189   C     0.02708   0.71562   0.71769   0.00000  Uiso   1.00
C190   C     0.02708   0.21609   0.21721   0.00000  Uiso   1.00
C191   C     0.97292   0.78438   0.78231   0.00000  Uiso   1.00
C192   C     0.02708   0.28427   0.71757   0.00000  Uiso   1.00
Cl1    Cl    0.14428   0.43942   0.26709   0.00000  Uiso   1.00
Cl2    Cl    0.56140   0.17292   0.32313   0.00000  Uiso   1.00
Cl3    Cl    0.43860   0.17333   0.67645   0.00000  Uiso   1.00
Cl4    Cl    0.56140   0.82650   0.32373   0.00000  Uiso   1.00
Cl5    Cl    0.43860   0.17292   0.32313   0.00000  Uiso   1.00
Cl6    Cl    0.56140   0.82679   0.67657   0.00000  Uiso   1.00
Cl7    Cl    0.43860   0.82650   0.32372   0.00000  Uiso   1.00
Cl8    Cl    0.56140   0.17331   0.67646   0.00000  Uiso   1.00
Cl9    Cl    0.85557   0.26792   0.56062   0.00000  Uiso   1.00
Cl10   Cl    0.14443   0.73205   0.43938   0.00000  Uiso   1.00
Cl11   Cl    0.14442   0.26789   0.56062   0.00000  Uiso   1.00
Cl12   Cl    0.85572   0.56057   0.73292   0.00000  Uiso   1.00
Cl13   Cl    0.85557   0.73207   0.43937   0.00000  Uiso   1.00
Cl14   Cl    0.14443   0.73205   0.56063   0.00000  Uiso   1.00
Cl15   Cl    0.85557   0.26791   0.43938   0.00000  Uiso   1.00
Cl16   Cl    0.85557   0.73206   0.56062   0.00000  Uiso   1.00
Cl17   Cl    0.14442   0.26787   0.43938   0.00000  Uiso   1.00
Cl18   Cl    0.64428   0.93942   0.26708   0.00000  Uiso   1.00
Cl19   Cl    0.35572   0.06058   0.73291   0.00000  Uiso   1.00
Cl20   Cl    0.14427   0.93943   0.23295   0.00000  Uiso   1.00
Cl21   Cl    0.85573   0.06057   0.76702   0.00000  Uiso   1.00
Cl22   Cl    0.35572   0.93942   0.73291   0.00000  Uiso   1.00
Cl23   Cl    0.14427   0.43943   0.73297   0.00000  Uiso   1.00
Cl24   Cl    0.64428   0.06057   0.26707   0.00000  Uiso   1.00
Cl25   Cl    0.85573   0.93943   0.76701   0.00000  Uiso   1.00
Cl26   Cl    0.14427   0.06058   0.23294   0.00000  Uiso   1.00
Cl27   Cl    0.64427   0.06057   0.73297   0.00000  Uiso   1.00
Cl28   Cl    0.35573   0.93942   0.26705   0.00000  Uiso   1.00
Cl29   Cl    0.14428   0.06057   0.76708   0.00000  Uiso   1.00
Cl30   Cl    0.85572   0.93943   0.23293   0.00000  Uiso   1.00
Cl31   Cl    0.35573   0.06057   0.26704   0.00000  Uiso   1.00
Cl32   Cl    0.64427   0.93943   0.73297   0.00000  Uiso   1.00
Cl33   Cl    0.85572   0.06058   0.23291   0.00000  Uiso   1.00
Cl34   Cl    0.85573   0.56057   0.26702   0.00000  Uiso   1.00
Cl35   Cl    0.14428   0.93943   0.76708   0.00000  Uiso   1.00
Cl36   Cl    0.93860   0.82708   0.17687   0.00000  Uiso   1.00
Cl37   Cl    0.06140   0.17293   0.82316   0.00000  Uiso   1.00
Cl38   Cl    0.93860   0.67271   0.67709   0.00000  Uiso   1.00
Cl39   Cl    0.06140   0.32630   0.32393   0.00000  Uiso   1.00
Cl40   Cl    0.93860   0.17293   0.82315   0.00000  Uiso   1.00
Cl41   Cl    0.06140   0.82708   0.17686   0.00000  Uiso   1.00
Cl42   Cl    0.93860   0.32632   0.32391   0.00000  Uiso   1.00
Cl43   Cl    0.06140   0.67270   0.67710   0.00000  Uiso   1.00
Cl44   Cl    0.06140   0.17369   0.17608   0.00000  Uiso   1.00
Cl45   Cl    0.85572   0.43942   0.73292   0.00000  Uiso   1.00
Cl46   Cl    0.93860   0.82731   0.82290   0.00000  Uiso   1.00
Cl47   Cl    0.06140   0.32707   0.67684   0.00000  Uiso   1.00
Cl48   Cl    0.93860   0.67292   0.32313   0.00000  Uiso   1.00
Cl49   Cl    0.06140   0.82729   0.82291   0.00000  Uiso   1.00
Cl50   Cl    0.93860   0.17370   0.17607   0.00000  Uiso   1.00
Cl51   Cl    0.06140   0.67292   0.32313   0.00000  Uiso   1.00
Cl52   Cl    0.93860   0.32707   0.67684   0.00000  Uiso   1.00
Cl53   Cl    0.85557   0.76795   0.06062   0.00000  Uiso   1.00
Cl54   Cl    0.14443   0.23208   0.93937   0.00000  Uiso   1.00
Cl55   Cl    0.64443   0.26786   0.06062   0.00000  Uiso   1.00
Cl56   Cl    0.14428   0.56057   0.26707   0.00000  Uiso   1.00
Cl57   Cl    0.35557   0.73207   0.93938   0.00000  Uiso   1.00
Cl58   Cl    0.14443   0.23209   0.06062   0.00000  Uiso   1.00
Cl59   Cl    0.85557   0.76795   0.93937   0.00000  Uiso   1.00
Cl60   Cl    0.35557   0.73208   0.06062   0.00000  Uiso   1.00
Cl61   Cl    0.64442   0.26786   0.93938   0.00000  Uiso   1.00
Cl62   Cl    0.14443   0.76794   0.93937   0.00000  Uiso   1.00
Cl63   Cl    0.85558   0.23215   0.06062   0.00000  Uiso   1.00
Cl64   Cl    0.35557   0.26792   0.93938   0.00000  Uiso   1.00
Cl65   Cl    0.64444   0.73207   0.06062   0.00000  Uiso   1.00
Cl66   Cl    0.85557   0.23214   0.93938   0.00000  Uiso   1.00
Cl67   Cl    0.85573   0.43942   0.26703   0.00000  Uiso   1.00
Cl68   Cl    0.14443   0.76793   0.06062   0.00000  Uiso   1.00
Cl69   Cl    0.64444   0.73206   0.93938   0.00000  Uiso   1.00
Cl70   Cl    0.35557   0.26792   0.06062   0.00000  Uiso   1.00
Cl71   Cl    0.64428   0.43942   0.76709   0.00000  Uiso   1.00
Cl72   Cl    0.35572   0.56058   0.23292   0.00000  Uiso   1.00
Cl73   Cl    0.64427   0.43943   0.23297   0.00000  Uiso   1.00
Cl74   Cl    0.35573   0.56057   0.76703   0.00000  Uiso   1.00
Cl75   Cl    0.35572   0.43943   0.23293   0.00000  Uiso   1.00
Cl76   Cl    0.64428   0.56057   0.76709   0.00000  Uiso   1.00
Cl77   Cl    0.35573   0.43942   0.76704   0.00000  Uiso   1.00
Cl78   Cl    0.14427   0.56057   0.73298   0.00000  Uiso   1.00
Cl79   Cl    0.64427   0.56058   0.23297   0.00000  Uiso   1.00
Cl80   Cl    0.43860   0.32709   0.17687   0.00000  Uiso   1.00
Cl81   Cl    0.56140   0.67322   0.82344   0.00000  Uiso   1.00
Cl82   Cl    0.43860   0.67350   0.17628   0.00000  Uiso   1.00
Cl83   Cl    0.56140   0.32667   0.82355   0.00000  Uiso   1.00
Cl84   Cl    0.43860   0.67321   0.82343   0.00000  Uiso   1.00
Cl85   Cl    0.56140   0.32709   0.17687   0.00000  Uiso   1.00
Cl86   Cl    0.43860   0.32668   0.82354   0.00000  Uiso   1.00
Cl87   Cl    0.56140   0.67349   0.17629   0.00000  Uiso   1.00
Cl88   Cl    0.35556   0.76794   0.56062   0.00000  Uiso   1.00
Cl89   Cl    0.43860   0.82678   0.67656   0.00000  Uiso   1.00
Cl90   Cl    0.64443   0.23208   0.43937   0.00000  Uiso   1.00
Cl91   Cl    0.64443   0.76792   0.56062   0.00000  Uiso   1.00
Cl92   Cl    0.35558   0.23211   0.43937   0.00000  Uiso   1.00
Cl93   Cl    0.64443   0.23208   0.56062   0.00000  Uiso   1.00
Cl94   Cl    0.35557   0.76793   0.43938   0.00000  Uiso   1.00
Cl95   Cl    0.35558   0.23212   0.56062   0.00000  Uiso   1.00
Cl96   Cl    0.64443   0.76792   0.43938   0.00000  Uiso   1.00
O1     O     0.25000   0.25000   0.25000   0.00000  Uiso   1.00
O2     O     0.63420   0.71971   0.71971   0.00000  Uiso   1.00
O3     O     0.21971   0.36580   0.21971   0.00000  Uiso   1.00
O4     O     0.21971   0.63420   0.21971   0.00000  Uiso   1.00
O5     O     0.78029   0.36580   0.78029   0.00000  Uiso   1.00
O6     O     0.21971   0.36580   0.78029   0.00000  Uiso   1.00
O7     O     0.78029   0.63420   0.21971   0.00000  Uiso   1.00
O8     O     0.28029   0.28029   0.63420   0.00000  Uiso   1.00
O9     O     0.71971   0.71971   0.36580   0.00000  Uiso   1.00
O10    O     0.63420   0.28029   0.71971   0.00000  Uiso   1.00
O11    O     0.36580   0.71971   0.28029   0.00000  Uiso   1.00
O12    O     0.71971   0.28029   0.36580   0.00000  Uiso   1.00
O13    O     0.28029   0.71971   0.63420   0.00000  Uiso   1.00
O14    O     0.36580   0.71971   0.71971   0.00000  Uiso   1.00
O15    O     0.63420   0.28029   0.28029   0.00000  Uiso   1.00
O16    O     0.28029   0.71971   0.36580   0.00000  Uiso   1.00
O17    O     0.75000   0.75000   0.75000   0.00000  Uiso   1.00
O18    O     0.71971   0.28029   0.63420   0.00000  Uiso   1.00
O19    O     0.63420   0.71971   0.28029   0.00000  Uiso   1.00
O20    O     0.36580   0.28029   0.71971   0.00000  Uiso   1.00
O21    O     0.71971   0.71971   0.63420   0.00000  Uiso   1.00
O22    O     0.28029   0.28029   0.36580   0.00000  Uiso   1.00
O23    O     0.28029   0.36580   0.71971   0.00000  Uiso   1.00
O24    O     0.71971   0.63420   0.28029   0.00000  Uiso   1.00
O25    O     0.28029   0.63420   0.28029   0.00000  Uiso   1.00
O26    O     0.71971   0.36580   0.71971   0.00000  Uiso   1.00
O27    O     0.71971   0.63420   0.71971   0.00000  Uiso   1.00
O28    O     0.25000   0.25000   0.75000   0.00000  Uiso   1.00
O29    O     0.28029   0.36580   0.28029   0.00000  Uiso   1.00
O30    O     0.71971   0.36580   0.28029   0.00000  Uiso   1.00
O31    O     0.28029   0.63420   0.71971   0.00000  Uiso   1.00
O32    O     0.86580   0.78029   0.28029   0.00000  Uiso   1.00
O33    O     0.13420   0.21971   0.71971   0.00000  Uiso   1.00
O34    O     0.28029   0.78029   0.13420   0.00000  Uiso   1.00
O35    O     0.71971   0.21971   0.86580   0.00000  Uiso   1.00
O36    O     0.13420   0.78029   0.71971   0.00000  Uiso   1.00
O37    O     0.86580   0.21971   0.28029   0.00000  Uiso   1.00
O38    O     0.71971   0.78029   0.86580   0.00000  Uiso   1.00
O39    O     0.75000   0.75000   0.25000   0.00000  Uiso   1.00
O40    O     0.28029   0.21971   0.13420   0.00000  Uiso   1.00
O41    O     0.86580   0.21971   0.71971   0.00000  Uiso   1.00
O42    O     0.13420   0.78029   0.28029   0.00000  Uiso   1.00
O43    O     0.28029   0.21971   0.86580   0.00000  Uiso   1.00
O44    O     0.71971   0.78029   0.13420   0.00000  Uiso   1.00
O45    O     0.13420   0.21971   0.28029   0.00000  Uiso   1.00
O46    O     0.86580   0.78029   0.71971   0.00000  Uiso   1.00
O47    O     0.71971   0.21971   0.13420   0.00000  Uiso   1.00
O48    O     0.28029   0.78029   0.86580   0.00000  Uiso   1.00
O49    O     0.78029   0.71971   0.13420   0.00000  Uiso   1.00
O50    O     0.75000   0.25000   0.75000   0.00000  Uiso   1.00
O51    O     0.21971   0.28029   0.86580   0.00000  Uiso   1.00
O52    O     0.78029   0.86580   0.71971   0.00000  Uiso   1.00
O53    O     0.21971   0.13420   0.28029   0.00000  Uiso   1.00
O54    O     0.78029   0.28029   0.86580   0.00000  Uiso   1.00
O55    O     0.21971   0.71971   0.13420   0.00000  Uiso   1.00
O56    O     0.78029   0.13420   0.28029   0.00000  Uiso   1.00
O57    O     0.21971   0.86580   0.71971   0.00000  Uiso   1.00
O58    O     0.21971   0.28029   0.13420   0.00000  Uiso   1.00
O59    O     0.78029   0.71971   0.86580   0.00000  Uiso   1.00
O60    O     0.21971   0.13420   0.71971   0.00000  Uiso   1.00
O61    O     0.25000   0.75000   0.25000   0.00000  Uiso   1.00
O62    O     0.78029   0.86580   0.28029   0.00000  Uiso   1.00
O63    O     0.21971   0.71971   0.86580   0.00000  Uiso   1.00
O64    O     0.78029   0.28029   0.13420   0.00000  Uiso   1.00
O65    O     0.21971   0.86580   0.28029   0.00000  Uiso   1.00
O66    O     0.78029   0.13420   0.71971   0.00000  Uiso   1.00
O67    O     0.71971   0.86580   0.21971   0.00000  Uiso   1.00
O68    O     0.28029   0.13420   0.78029   0.00000  Uiso   1.00
O69    O     0.86580   0.28029   0.21971   0.00000  Uiso   1.00
O70    O     0.13420   0.71971   0.78029   0.00000  Uiso   1.00
O71    O     0.28029   0.13420   0.21971   0.00000  Uiso   1.00
O72    O     0.75000   0.25000   0.25000   0.00000  Uiso   1.00
O73    O     0.71971   0.86580   0.78029   0.00000  Uiso   1.00
O74    O     0.13420   0.71971   0.21971   0.00000  Uiso   1.00
O75    O     0.86580   0.28029   0.78029   0.00000  Uiso   1.00
O76    O     0.28029   0.86580   0.78029   0.00000  Uiso   1.00
O77    O     0.71971   0.13420   0.21971   0.00000  Uiso   1.00
O78    O     0.13420   0.28029   0.78029   0.00000  Uiso   1.00
O79    O     0.86580   0.71971   0.21971   0.00000  Uiso   1.00
O80    O     0.71971   0.13420   0.78029   0.00000  Uiso   1.00
O81    O     0.28029   0.86580   0.21971   0.00000  Uiso   1.00
O82    O     0.86580   0.71971   0.78029   0.00000  Uiso   1.00
O83    O     0.25000   0.75000   0.75000   0.00000  Uiso   1.00
O84    O     0.13420   0.28029   0.21971   0.00000  Uiso   1.00
O85    O     0.36580   0.78029   0.78029   0.00000  Uiso   1.00
O86    O     0.63420   0.21971   0.21971   0.00000  Uiso   1.00
O87    O     0.78029   0.78029   0.63420   0.00000  Uiso   1.00
O88    O     0.21971   0.21971   0.36580   0.00000  Uiso   1.00
O89    O     0.63420   0.78029   0.21971   0.00000  Uiso   1.00
O90    O     0.36580   0.21971   0.78029   0.00000  Uiso   1.00
O91    O     0.21971   0.78029   0.36580   0.00000  Uiso   1.00
O92    O     0.78029   0.21971   0.63420   0.00000  Uiso   1.00
O93    O     0.36580   0.21971   0.21971   0.00000  Uiso   1.00
O94    O     0.36580   0.28029   0.28029   0.00000  Uiso   1.00
O95    O     0.63420   0.78029   0.78029   0.00000  Uiso   1.00
O96    O     0.78029   0.21971   0.36580   0.00000  Uiso   1.00
O97    O     0.21971   0.78029   0.63420   0.00000  Uiso   1.00
O98    O     0.63420   0.21971   0.78029   0.00000  Uiso   1.00
O99    O     0.36580   0.78029   0.21971   0.00000  Uiso   1.00
O100   O     0.21971   0.21971   0.63420   0.00000  Uiso   1.00
O101   O     0.78029   0.78029   0.36580   0.00000  Uiso   1.00
O102   O     0.78029   0.36580   0.21971   0.00000  Uiso   1.00
O103   O     0.21971   0.63420   0.78029   0.00000  Uiso   1.00
O104   O     0.78029   0.63420   0.78029   0.00000  Uiso   1.00
Zn1    Zn    0.20660   0.29340   0.20660   0.00000  Uiso   1.00
Zn2    Zn    0.70660   0.20660   0.20660   0.00000  Uiso   1.00
Zn3    Zn    0.29340   0.20660   0.79340   0.00000  Uiso   1.00
Zn4    Zn    0.70660   0.79340   0.20660   0.00000  Uiso   1.00
Zn5    Zn    0.29340   0.20660   0.20660   0.00000  Uiso   1.00
Zn6    Zn    0.70660   0.79340   0.79340   0.00000  Uiso   1.00
Zn7    Zn    0.29340   0.79340   0.20660   0.00000  Uiso   1.00
Zn8    Zn    0.70660   0.20660   0.79340   0.00000  Uiso   1.00
Zn9    Zn    0.79340   0.20660   0.70660   0.00000  Uiso   1.00
Zn10   Zn    0.20660   0.79340   0.29340   0.00000  Uiso   1.00
Zn11   Zn    0.20660   0.20660   0.70660   0.00000  Uiso   1.00
Zn12   Zn    0.79340   0.70660   0.79340   0.00000  Uiso   1.00
Zn13   Zn    0.79340   0.79340   0.29340   0.00000  Uiso   1.00
Zn14   Zn    0.20660   0.79340   0.70660   0.00000  Uiso   1.00
Zn15   Zn    0.79340   0.20660   0.29340   0.00000  Uiso   1.00
Zn16   Zn    0.79340   0.79340   0.70660   0.00000  Uiso   1.00
Zn17   Zn    0.20660   0.20660   0.29340   0.00000  Uiso   1.00
Zn18   Zn    0.70660   0.29340   0.70660   0.00000  Uiso   1.00
Zn19   Zn    0.29340   0.70660   0.29340   0.00000  Uiso   1.00
Zn20   Zn    0.70660   0.29340   0.29340   0.00000  Uiso   1.00
Zn21   Zn    0.29340   0.70660   0.70660   0.00000  Uiso   1.00
Zn22   Zn    0.29340   0.29340   0.29340   0.00000  Uiso   1.00
Zn23   Zn    0.20660   0.29340   0.79340   0.00000  Uiso   1.00
Zn24   Zn    0.70660   0.70660   0.70660   0.00000  Uiso   1.00
Zn25   Zn    0.29340   0.29340   0.70660   0.00000  Uiso   1.00
Zn26   Zn    0.70660   0.70660   0.29340   0.00000  Uiso   1.00
Zn27   Zn    0.79340   0.70660   0.20660   0.00000  Uiso   1.00
Zn28   Zn    0.79340   0.29340   0.79340   0.00000  Uiso   1.00
Zn29   Zn    0.20660   0.70660   0.20660   0.00000  Uiso   1.00
Zn30   Zn    0.79340   0.29340   0.20660   0.00000  Uiso   1.00
Zn31   Zn    0.20660   0.70660   0.79340   0.00000  Uiso   1.00
Zn32   Zn    0.29340   0.79340   0.79340   0.00000  Uiso   1.00
loop_
_geom_bond_atom_site_label_1
_geom_bond_atom_site_label_2
_geom_bond_distance
_geom_bond_site_symmetry_2
_ccdc_geom_bond_type
C1     O93     1.274   .     A
C1     C62     1.448   .     S
C1     O94     1.274   .     A
C2     C65     1.448   .     S
C2     O15     1.274   .     A
C2     O86     1.274   .     A
C3     Cl48    1.769   .     S
C3     C93     1.405   .     A
C3     C6      1.398   1_655 S
C4     C89     1.405   .     A
C4     Cl49    1.769   .     S
C4     C191    1.398   1_455 S
C5     C91     1.405   .     A
C5     Cl50    1.769   .     S
C5     C190    1.398   1_655 S
C6     C87     1.405   .     A
C6     Cl51    1.769   .     S
C6     C3      1.398   1_455 S
C7     C88     1.405   .     A
C7     Cl52    1.769   .     S
C7     C192    1.398   1_655 S
C8     Cl53    1.771   .     S
C8     C102    1.407   .     A
C8     C14     1.397   1_554 S
C9     Cl54    1.771   .     S
C9     C100    1.407   .     A
C9     C12     1.397   1_556 S
C10    Cl55    1.771   .     S
C10    C104    1.407   .     A
C10    C16     1.397   1_554 S
C11    Cl57    1.771   .     S
C11    C103    1.407   .     A
C11    C15     1.397   1_556 S
C12    C97     1.407   .     A
C12    Cl58    1.771   .     S
C12    C9      1.397   1_554 S
C13    O91     1.274   .     A
C13    C74     1.454   .     S
C13    O16     1.274   .     A
C14    Cl59    1.771   .     S
C14    C96     1.407   .     A
C14    C8      1.397   1_556 S
C15    Cl60    1.771   .     S
C15    C99     1.407   .     A
C15    C11     1.397   1_554 S
C16    Cl61    1.771   .     S
C16    C98     1.407   .     A
C16    C10     1.397   1_556 S
C17    Cl62    1.771   .     S
C17    C103    1.407   .     A
C17    C22     1.397   1_556 S
C18    C104    1.407   .     A
C18    Cl63    1.771   .     S
C18    C21     1.397   1_554 S
C19    C100    1.407   .     A
C19    Cl64    1.771   .     S
C19    C25     1.397   1_556 S
C20    C102    1.407   .     A
C20    Cl65    1.771   .     S
C20    C23     1.397   1_554 S
C21    C98     1.407   .     A
C21    Cl66    1.771   .     S
C21    C18     1.397   1_556 S
C22    Cl68    1.771   .     S
C22    C99     1.407   .     A
C22    C17     1.397   1_554 S
C23    Cl69    1.771   .     S
C23    C96     1.407   .     A
C23    C20     1.397   1_556 S
C24    O92     1.274   .     A
C24    C75     1.454   .     S
C24    O18     1.274   .     A
C25    Cl70    1.771   .     S
C25    C97     1.407   .     A
C25    C19     1.397   1_554 S
C26    Cl71    1.771   .     S
C26    C31     1.397   .     A
C26    C53     1.408   .     A
C27    Cl72    1.771   .     S
C27    C30     1.397   .     A
C27    C52     1.408   .     A
C28    Cl73    1.771   .     S
C28    C33     1.397   .     A
C28    C55     1.408   .     A
C29    Cl74    1.771   .     S
C29    C32     1.397   .     A
C29    C54     1.408   .     A
C30    Cl75    1.771   .     S
C30    C58     1.408   .     A
C31    C56     1.408   .     A
C31    Cl76    1.771   .     S
C32    Cl77    1.771   .     S
C32    C60     1.408   .     A
C33    C59     1.408   .     A
C33    Cl79    1.771   .     S
C34    Cl80    1.769   .     S
C34    C62     1.405   .     A
C34    C40     1.398   .     A
C35    C67     1.448   .     S
C35    O19     1.274   .     A
C35    O89     1.274   .     A
C36    C39     1.398   .     A
C36    C61     1.405   .     A
C36    Cl81    1.769   .     S
C37    C42     1.398   .     A
C37    Cl82    1.769   .     S
C37    C64     1.405   .     A
C38    C41     1.398   .     A
C38    Cl83    1.769   .     S
C38    C63     1.405   .     A
C39    Cl84    1.769   .     S
C39    C66     1.405   .     A
C40    C65     1.405   .     A
C40    Cl85    1.769   .     S
C41    Cl86    1.769   .     S
C41    C69     1.405   .     A
C42    C67     1.405   .     A
C42    Cl87    1.769   .     S
C43    C71     1.407   .     A
C43    C49     1.397   .     A
C43    Cl88    1.771   .     S
C44    C70     1.407   .     A
C44    C48     1.397   .     A
C44    Cl90    1.771   .     S
C45    Cl91    1.771   .     S
C45    C51     1.397   .     A
C45    C73     1.407   .     A
C46    O20     1.274   .     A
C46    C69     1.448   .     S
C46    O90     1.274   .     A
C47    C50     1.397   .     A
C47    C72     1.407   .     A
C47    Cl92    1.771   .     S
C48    Cl93    1.771   .     S
C48    C75     1.407   .     A
C49    Cl94    1.771   .     S
C49    C74     1.407   .     A
C50    C77     1.407   .     A
C50    Cl95    1.771   .     S
C51    Cl96    1.771   .     S
C51    C76     1.407   .     A
C52    C101    1.455   .     S
C52    C143    1.408   .     A
C53    C106    1.455   .     S
C53    C142    1.408   .     A
C54    C145    1.408   .     A
C54    C110    1.455   .     S
C55    C109    1.455   .     S
C55    C144    1.408   .     A
C56    C139    1.408   .     A
C56    C107    1.455   .     S
C57    O21     1.274   .     A
C57    C73     1.454   .     S
C57    O87     1.274   .     A
C58    C108    1.455   .     S
C58    C137    1.408   .     A
C59    C141    1.408   .     A
C59    C90     1.455   .     S
C60    C79     1.455   .     S
C60    C140    1.408   .     A
C61    C105    1.448   .     S
C61    C152    1.405   .     A
C62    C151    1.405   .     A
C63    C154    1.405   .     A
C63    C138    1.448   .     S
C64    C153    1.405   .     A
C64    C149    1.448   .     S
C65    C147    1.405   .     A
C66    C182    1.448   .     S
C66    C146    1.405   .     A
C67    C150    1.405   .     A
C68    C72     1.454   .     S
C68    O22     1.274   .     A
C68    O88     1.274   .     A
C69    C148    1.405   .     A
C70    C160    1.454   .     S
C70    C161    1.407   .     A
C71    C171    1.454   .     S
C71    C159    1.407   .     A
C72    C163    1.407   .     A
C73    C162    1.407   .     A
C74    C156    1.407   .     A
C75    C155    1.407   .     A
C76    C127    1.454   .     S
C76    C158    1.407   .     A
C77    C116    1.454   .     S
C77    C157    1.407   .     A
C78    C179    1.408   .     A
C78    C169    1.408   .     A
C78    C131    1.455   .     S
C79    O23     1.274   .     A
C79    O6      1.274   .     A
C80    C132    1.455   .     S
C80    C168    1.408   .     A
C80    C180    1.408   .     A
C81    C177    1.408   .     A
C81    C130    1.455   .     S
C81    C172    1.408   .     A
C82    C178    1.408   .     A
C82    C129    1.455   .     S
C82    C170    1.408   .     A
C83    C165    1.408   .     A
C83    C175    1.408   .     A
C83    C133    1.455   .     S
C84    C176    1.408   .     A
C84    C134    1.455   .     S
C84    C164    1.408   .     A
C85    C167    1.408   .     A
C85    C136    1.455   .     S
C85    C173    1.408   .     A
C86    C174    1.408   .     A
C86    C135    1.455   .     S
C86    C166    1.408   .     A
C87    C187    1.405   .     A
C87    C121    1.448   .     S
C88    C120    1.448   .     S
C88    C186    1.405   .     A
C89    C115    1.448   .     S
C89    C189    1.405   .     A
C90    O24     1.274   .     A
C90    O7      1.274   .     A
C91    C188    1.405   .     A
C91    C117    1.448   .     S
C92    C112    1.448   .     S
C92    C192    1.405   .     A
C92    C183    1.405   .     A
C93    C181    1.405   .     A
C93    C111    1.448   .     S
C94    C190    1.405   .     A
C94    C185    1.405   .     A
C94    C124    1.448   .     S
C95    C184    1.405   .     A
C95    C191    1.405   .     A
C95    C125    1.448   .     S
C96    C118    1.454   .     S
C97    C119    1.454   .     S
C98    C114    1.454   .     S
C99    C113    1.454   .     S
C100   C122    1.454   .     S
C101   O25     1.274   .     A
C101   O4      1.274   .     A
C102   C123    1.454   .     S
C103   C128    1.454   .     S
C104   C126    1.454   .     S
C105   O2      1.274   .     A
C105   O95     1.274   .     A
C106   O5      1.274   .     A
C106   O26     1.274   .     A
C107   O27     1.274   .     A
C107   O104    1.274   .     A
C108   O3      1.274   .     A
C108   O29     1.274   .     A
C109   O102    1.274   .     A
C109   O30     1.274   .     A
C110   O103    1.274   .     A
C110   O31     1.274   .     A
C111   O79     1.274   .     A
C111   O32     1.274   .     A
C112   O33     1.274   .     A
C112   O78     1.274   .     A
C113   O34     1.274   .     A
C113   O55     1.274   .     A
C114   O54     1.274   .     A
C114   O35     1.274   .     A
C115   O70     1.274   .     A
C115   O36     1.274   .     A
C116   O100    1.274   .     A
C116   O8      1.274   .     A
C117   O69     1.274   .     A
C117   O37     1.274   .     A
C118   O59     1.274   .     A
C118   O38     1.274   .     A
C119   O40     1.274   .     A
C119   O58     1.274   .     A
C120   O41     1.274   .     A
C120   O75     1.274   .     A
C121   O74     1.274   .     A
C121   O42     1.274   .     A
C122   O51     1.274   .     A
C122   O43     1.274   .     A
C123   O44     1.274   .     A
C123   O49     1.274   .     A
C124   O84     1.274   .     A
C124   O45     1.274   .     A
C125   O46     1.274   .     A
C125   O82     1.274   .     A
C126   O64     1.274   .     A
C126   O47     1.274   .     A
C127   O101    1.274   .     A
C127   O9      1.274   .     A
C128   O48     1.274   .     A
C128   O63     1.274   .     A
C129   O73     1.274   .     A
C129   O52     1.274   .     A
C130   O53     1.274   .     A
C130   O71     1.274   .     A
C131   O56     1.274   .     A
C131   O77     1.274   .     A
C132   O76     1.274   .     A
C132   O57     1.274   .     A
C133   O60     1.274   .     A
C133   O68     1.274   .     A
C134   O67     1.274   .     A
C134   O62     1.274   .     A
C135   O81     1.274   .     A
C135   O65     1.274   .     A
C136   O66     1.274   .     A
C136   O80     1.274   .     A
C137   C143    1.397   .     A
C137   Cl1     1.771   .     S
C138   O98     1.274   .     A
C138   O10     1.274   .     A
C139   C142    1.397   .     A
C139   Cl12    1.771   .     S
C140   C145    1.397   .     A
C140   Cl23    1.771   .     S
C141   C144    1.397   .     A
C141   Cl34    1.771   .     S
C142   Cl45    1.771   .     S
C143   Cl56    1.771   .     S
C144   Cl67    1.771   .     S
C145   Cl78    1.771   .     S
C146   Cl89    1.769   .     S
C146   C152    1.398   .     A
C147   C151    1.398   .     A
C147   Cl2     1.769   .     S
C148   Cl3     1.769   .     S
C148   C154    1.398   .     A
C149   O11     1.274   .     A
C149   O99     1.274   .     A
C150   C153    1.398   .     A
C150   Cl4     1.769   .     S
C151   Cl5     1.769   .     S
C152   Cl6     1.769   .     S
C153   Cl7     1.769   .     S
C154   Cl8     1.769   .     S
C155   Cl9     1.771   .     S
C155   C161    1.397   .     A
C156   Cl10    1.771   .     S
C156   C159    1.397   .     A
C157   Cl11    1.771   .     S
C157   C163    1.397   .     A
C158   Cl13    1.771   .     S
C158   C162    1.397   .     A
C159   Cl14    1.771   .     S
C160   O96     1.274   .     A
C160   O12     1.274   .     A
C161   Cl15    1.771   .     S
C162   Cl16    1.771   .     S
C163   Cl17    1.771   .     S
C164   Cl18    1.771   .     S
C164   C169    1.397   1_565 S
C165   Cl19    1.771   .     S
C165   C168    1.397   1_545 S
C166   Cl20    1.771   .     S
C166   C172    1.397   1_565 S
C167   Cl21    1.771   .     S
C167   C170    1.397   1_545 S
C168   Cl22    1.771   .     S
C168   C165    1.397   1_565 S
C169   Cl24    1.771   .     S
C169   C164    1.397   1_545 S
C170   Cl25    1.771   .     S
C170   C167    1.397   1_565 S
C171   O13     1.274   .     A
C171   O97     1.274   .     A
C172   Cl26    1.771   .     S
C172   C166    1.397   1_545 S
C173   Cl27    1.771   .     S
C173   C178    1.397   1_545 S
C174   Cl28    1.771   .     S
C174   C177    1.397   1_565 S
C175   Cl29    1.771   .     S
C175   C180    1.397   1_545 S
C176   Cl30    1.771   .     S
C176   C179    1.397   1_565 S
C177   Cl31    1.771   .     S
C177   C174    1.397   1_545 S
C178   Cl32    1.771   .     S
C178   C173    1.397   1_565 S
C179   Cl33    1.771   .     S
C179   C176    1.397   1_545 S
C180   Cl35    1.771   .     S
C180   C175    1.397   1_565 S
C181   Cl36    1.769   .     S
C181   C187    1.398   1_655 S
C182   O14     1.274   .     A
C182   O85     1.274   .     A
C183   Cl37    1.769   .     S
C183   C186    1.398   1_455 S
C184   Cl38    1.769   .     S
C184   C189    1.398   1_655 S
C185   Cl39    1.769   .     S
C185   C188    1.398   1_455 S
C186   Cl40    1.769   .     S
C186   C183    1.398   1_655 S
C187   Cl41    1.769   .     S
C187   C181    1.398   1_455 S
C188   Cl42    1.769   .     S
C188   C185    1.398   1_655 S
C189   Cl43    1.769   .     S
C189   C184    1.398   1_455 S
C190   Cl44    1.769   .     S
C190   C5      1.398   1_455 S
C191   Cl46    1.769   .     S
C191   C4      1.398   1_655 S
C192   Cl47    1.769   .     S
C192   C7      1.398   1_455 S
O1     Zn1     1.946   .     S
O1     Zn22    1.946   .     S
O1     Zn17    1.946   .     S
O1     Zn5     1.946   .     S
O2     Zn24    1.930   .     S
O3     Zn1     1.937   .     S
O4     Zn29    1.937   .     S
O5     Zn28    1.937   .     S
O6     Zn23    1.937   .     S
O7     Zn27    1.937   .     S
O8     Zn25    1.937   .     S
O9     Zn26    1.937   .     S
O10    Zn18    1.930   .     S
O11    Zn19    1.930   .     S
O12    Zn20    1.937   .     S
O13    Zn21    1.937   .     S
O14    Zn21    1.930   .     S
O15    Zn20    1.930   .     S
O16    Zn19    1.937   .     S
O17    Zn24    1.946   .     S
O17    Zn6     1.946   .     S
O17    Zn12    1.946   .     S
O17    Zn16    1.946   .     S
O18    Zn18    1.937   .     S
O19    Zn26    1.930   .     S
O20    Zn25    1.930   .     S
O21    Zn24    1.937   .     S
O22    Zn22    1.937   .     S
O23    Zn25    1.937   .     S
O24    Zn26    1.937   .     S
O25    Zn19    1.937   .     S
O26    Zn18    1.937   .     S
O27    Zn24    1.937   .     S
O28    Zn23    1.946   .     S
O28    Zn11    1.946   .     S
O28    Zn25    1.946   .     S
O28    Zn3     1.946   .     S
O29    Zn22    1.937   .     S
O30    Zn20    1.937   .     S
O31    Zn21    1.937   .     S
O32    Zn13    1.930   .     S
O33    Zn11    1.930   .     S
O34    Zn7     1.937   .     S
O35    Zn8     1.937   .     S
O36    Zn14    1.930   .     S
O37    Zn15    1.930   .     S
O38    Zn6     1.937   .     S
O39    Zn26    1.946   .     S
O39    Zn27    1.946   .     S
O39    Zn4     1.946   .     S
O39    Zn13    1.946   .     S
O40    Zn5     1.937   .     S
O41    Zn9     1.930   .     S
O42    Zn10    1.930   .     S
O43    Zn3     1.937   .     S
O44    Zn4     1.937   .     S
O45    Zn17    1.930   .     S
O46    Zn16    1.930   .     S
O47    Zn2     1.937   .     S
O48    Zn32    1.937   .     S
O49    Zn27    1.937   .     S
O50    Zn18    1.946   .     S
O50    Zn9     1.946   .     S
O50    Zn28    1.946   .     S
O50    Zn8     1.946   .     S
O51    Zn23    1.937   .     S
O52    Zn16    1.937   .     S
O53    Zn17    1.937   .     S
O54    Zn28    1.937   .     S
O55    Zn29    1.937   .     S
O56    Zn15    1.937   .     S
O57    Zn14    1.937   .     S
O58    Zn1     1.937   .     S
O59    Zn12    1.937   .     S
O60    Zn11    1.937   .     S
O61    Zn7     1.946   .     S
O61    Zn29    1.946   .     S
O61    Zn19    1.946   .     S
O61    Zn10    1.946   .     S
O62    Zn13    1.937   .     S
O63    Zn31    1.937   .     S
O64    Zn30    1.937   .     S
O65    Zn10    1.937   .     S
O66    Zn9     1.937   .     S
O67    Zn4     1.937   .     S
O68    Zn3     1.937   .     S
O69    Zn30    1.930   .     S
O70    Zn31    1.930   .     S
O71    Zn5     1.937   .     S
O72    Zn15    1.946   .     S
O72    Zn20    1.946   .     S
O72    Zn2     1.946   .     S
O72    Zn30    1.946   .     S
O73    Zn6     1.937   .     S
O74    Zn29    1.930   .     S
O75    Zn28    1.930   .     S
O76    Zn32    1.937   .     S
O77    Zn2     1.937   .     S
O78    Zn23    1.930   .     S
O79    Zn27    1.930   .     S
O80    Zn8     1.937   .     S
O81    Zn7     1.937   .     S
O82    Zn12    1.930   .     S
O83    Zn21    1.946   .     S
O83    Zn31    1.946   .     S
O83    Zn14    1.946   .     S
O83    Zn32    1.946   .     S
O84    Zn1     1.930   .     S
O85    Zn32    1.930   .     S
O86    Zn2     1.930   .     S
O87    Zn16    1.937   .     S
O88    Zn17    1.937   .     S
O89    Zn4     1.930   .     S
O90    Zn3     1.930   .     S
O91    Zn10    1.937   .     S
O92    Zn9     1.937   .     S
O93    Zn5     1.930   .     S
O94    Zn22    1.930   .     S
O95    Zn6     1.930   .     S
O96    Zn15    1.937   .     S
O97    Zn14    1.937   .     S
O98    Zn8     1.930   .     S
O99    Zn7     1.930   .     S
O100   Zn11    1.937   .     S
O101   Zn13    1.937   .     S
O102   Zn30    1.937   .     S
O103   Zn31    1.937   .     S
O104   Zn12    1.937   .     S
