data_str_m1_o1_o2_pcu_sym.87
_audit_creation_date              2020-01-03
_audit_creation_method            'Materials Studio'
_symmetry_space_group_name_H-M    'P1'
_symmetry_Int_Tables_number       1
_symmetry_cell_setting            triclinic
loop_
_symmetry_equiv_pos_as_xyz
  x,y,z
_cell_length_a                    36.6230
_cell_length_b                    36.6223
_cell_length_c                    34.4699
_cell_angle_alpha                 89.9969
_cell_angle_beta                  90.0022
_cell_angle_gamma                 90.0017
loop_
_atom_site_label
_atom_site_type_symbol
_atom_site_fract_x
_atom_site_fract_y
_atom_site_fract_z
_atom_site_U_iso_or_equiv
_atom_site_adp_type
_atom_site_occupancy
C1     C     0.22280   0.01957   0.04180   0.00000  Uiso   1.00
C2     C     0.02975   0.26536   0.45862   0.00000  Uiso   1.00
C3     C     0.34789   0.40155   0.74990   0.00000  Uiso   1.00
C4     C     0.40167   0.15223   0.25028   0.00000  Uiso   1.00
C5     C     0.09845   0.34789   0.74990   0.00000  Uiso   1.00
C6     C     0.34776   0.40166   0.25028   0.00000  Uiso   1.00
C7     C     0.15211   0.09846   0.74989   0.00000  Uiso   1.00
C8     C     0.09775   0.15166   0.75027   0.00000  Uiso   1.00
C9     C     0.40211   0.34845   0.24990   0.00000  Uiso   1.00
C10    C     0.15166   0.40224   0.75027   0.00000  Uiso   1.00
C11    C     0.34845   0.09789   0.24990   0.00000  Uiso   1.00
C12    C     0.40224   0.34834   0.75028   0.00000  Uiso   1.00
C13    C     0.23005   0.47290   0.54181   0.00000  Uiso   1.00
C14    C     0.09790   0.15155   0.24990   0.00000  Uiso   1.00
C15    C     0.34833   0.09777   0.75028   0.00000  Uiso   1.00
C16    C     0.15155   0.40211   0.24990   0.00000  Uiso   1.00
C17    C     0.25000   0.00011   0.10255   0.00000  Uiso   1.00
C18    C     0.25000   0.00001   0.89763   0.00000  Uiso   1.00
C19    C     0.00006   0.25000   0.10253   0.00000  Uiso   1.00
C20    C     0.00003   0.25000   0.89764   0.00000  Uiso   1.00
C21    C     0.49999   0.24979   0.60255   0.00000  Uiso   1.00
C22    C     0.00001   0.25005   0.39765   0.00000  Uiso   1.00
C23    C     0.24979   0.00001   0.60255   0.00000  Uiso   1.00
C24    C     0.23429   0.02945   0.45845   0.00000  Uiso   1.00
C25    C     0.24997   0.49999   0.39764   0.00000  Uiso   1.00
C26    C     0.20066   0.07589   0.02675   0.00000  Uiso   1.00
C27    C     0.31102   0.06812   0.97131   0.00000  Uiso   1.00
C28    C     0.42526   0.20434   0.02127   0.00000  Uiso   1.00
C29    C     0.43269   0.31460   0.96752   0.00000  Uiso   1.00
C30    C     0.29642   0.42474   0.02321   0.00000  Uiso   1.00
C31    C     0.18608   0.43295   0.96886   0.00000  Uiso   1.00
C32    C     0.07531   0.29725   0.02355   0.00000  Uiso   1.00
C33    C     0.06815   0.18711   0.96877   0.00000  Uiso   1.00
C34    C     0.45603   0.32544   0.52123   0.00000  Uiso   1.00
C35    C     0.02696   0.22982   0.54178   0.00000  Uiso   1.00
C36    C     0.06620   0.31587   0.46759   0.00000  Uiso   1.00
C37    C     0.17368   0.44968   0.52828   0.00000  Uiso   1.00
C38    C     0.18167   0.05990   0.47256   0.00000  Uiso   1.00
C39    C     0.05193   0.17354   0.53036   0.00000  Uiso   1.00
C40    C     0.44181   0.18183   0.47492   0.00000  Uiso   1.00
C41    C     0.32504   0.04456   0.52115   0.00000  Uiso   1.00
C42    C     0.31613   0.43425   0.46765   0.00000  Uiso   1.00
C43    C     0.13665   0.42628   0.15806   0.00000  Uiso   1.00
C44    C     0.35780   0.07525   0.84310   0.00000  Uiso   1.00
C45    C     0.07379   0.13675   0.15802   0.00000  Uiso   1.00
C46    C     0.47049   0.23462   0.45845   0.00000  Uiso   1.00
C47    C     0.42513   0.35826   0.84292   0.00000  Uiso   1.00
C48    C     0.36298   0.07407   0.15789   0.00000  Uiso   1.00
C49    C     0.14160   0.42529   0.84288   0.00000  Uiso   1.00
C50    C     0.42620   0.36327   0.15802   0.00000  Uiso   1.00
C51    C     0.07465   0.14147   0.84285   0.00000  Uiso   1.00
C52    C     0.14120   0.07420   0.84244   0.00000  Uiso   1.00
C53    C     0.30490   0.37675   0.17432   0.00000  Uiso   1.00
C54    C     0.07423   0.35877   0.84244   0.00000  Uiso   1.00
C55    C     0.37652   0.19532   0.17455   0.00000  Uiso   1.00
C56    C     0.35852   0.42555   0.84253   0.00000  Uiso   1.00
C57    C     0.26898   0.02708   0.54176   0.00000  Uiso   1.00
C58    C     0.19508   0.12323   0.17429   0.00000  Uiso   1.00
C59    C     0.42543   0.14169   0.84252   0.00000  Uiso   1.00
C60    C     0.12319   0.30497   0.17426   0.00000  Uiso   1.00
C61    C     0.38702   0.17594   0.65790   0.00000  Uiso   1.00
C62    C     0.10827   0.32483   0.34292   0.00000  Uiso   1.00
C63    C     0.32379   0.38673   0.65802   0.00000  Uiso   1.00
C64    C     0.17498   0.10806   0.34301   0.00000  Uiso   1.00
C65    C     0.11354   0.32354   0.65815   0.00000  Uiso   1.00
C66    C     0.39222   0.17476   0.34307   0.00000  Uiso   1.00
C67    C     0.17651   0.11357   0.65816   0.00000  Uiso   1.00
C68    C     0.26538   0.47035   0.45862   0.00000  Uiso   1.00
C69    C     0.32490   0.39181   0.34294   0.00000  Uiso   1.00
C70    C     0.39150   0.32446   0.34253   0.00000  Uiso   1.00
C71    C     0.05518   0.12707   0.67400   0.00000  Uiso   1.00
C72    C     0.32466   0.10828   0.34258   0.00000  Uiso   1.00
C73    C     0.12700   0.44487   0.67406   0.00000  Uiso   1.00
C74    C     0.10855   0.17557   0.34249   0.00000  Uiso   1.00
C75    C     0.44509   0.37327   0.67433   0.00000  Uiso   1.00
C76    C     0.17562   0.39140   0.34250   0.00000  Uiso   1.00
C77    C     0.37348   0.05469   0.67456   0.00000  Uiso   1.00
C78    C     0.22223   0.01817   0.08235   0.00000  Uiso   1.00
C79    C     0.27993   0.01409   0.91793   0.00000  Uiso   1.00
C80    C     0.48221   0.22214   0.08225   0.00000  Uiso   1.00
C81    C     0.27946   0.01571   0.95848   0.00000  Uiso   1.00
C82    C     0.48558   0.27976   0.91793   0.00000  Uiso   1.00
C83    C     0.27777   0.48215   0.08226   0.00000  Uiso   1.00
C84    C     0.22005   0.48596   0.91795   0.00000  Uiso   1.00
C85    C     0.01797   0.27786   0.08231   0.00000  Uiso   1.00
C86    C     0.01452   0.22027   0.91792   0.00000  Uiso   1.00
C87    C     0.47247   0.26808   0.58224   0.00000  Uiso   1.00
C88    C     0.03007   0.26392   0.41795   0.00000  Uiso   1.00
C89    C     0.23153   0.47234   0.58239   0.00000  Uiso   1.00
C90    C     0.23593   0.02993   0.41793   0.00000  Uiso   1.00
C91    C     0.02753   0.23132   0.58240   0.00000  Uiso   1.00
C92    C     0.48109   0.22266   0.04177   0.00000  Uiso   1.00
C93    C     0.47002   0.23615   0.41796   0.00000  Uiso   1.00
C94    C     0.26788   0.02767   0.58223   0.00000  Uiso   1.00
C95    C     0.26394   0.47000   0.41796   0.00000  Uiso   1.00
C96    C     0.24997   0.00024   0.02143   0.00000  Uiso   1.00
C97    C     0.24993   0.00019   0.97879   0.00000  Uiso   1.00
C98    C     0.00016   0.25002   0.02141   0.00000  Uiso   1.00
C99    C     0.00015   0.25005   0.97877   0.00000  Uiso   1.00
C100   C     0.00011   0.24963   0.52145   0.00000  Uiso   1.00
C101   C     0.00017   0.24978   0.47881   0.00000  Uiso   1.00
C102   C     0.24955   0.49994   0.52144   0.00000  Uiso   1.00
C103   C     0.48402   0.27933   0.95857   0.00000  Uiso   1.00
C104   C     0.24965   0.49986   0.47879   0.00000  Uiso   1.00
C105   C     0.25000  -0.00000   0.35524   0.00000  Uiso   1.00
C106   C     0.24999   0.00000   0.64483   0.00000  Uiso   1.00
C107   C     0.00000   0.25001   0.35524   0.00000  Uiso   1.00
C108   C    -0.00000   0.24998   0.64483   0.00000  Uiso   1.00
C109   C     0.00000   0.25000   0.85524   0.00000  Uiso   1.00
C110   C     0.00000   0.25000   0.14482   0.00000  Uiso   1.00
C111   C     0.25000  -0.00000   0.85524   0.00000  Uiso   1.00
C112   C     0.25000   0.00001   0.14483   0.00000  Uiso   1.00
C113   C     0.17988   0.06987   0.25031   0.00000  Uiso   1.00
C114   C     0.27719   0.48096   0.04177   0.00000  Uiso   1.00
C115   C     0.32003   0.42993   0.74993   0.00000  Uiso   1.00
C116   C     0.43013   0.17987   0.25032   0.00000  Uiso   1.00
C117   C     0.07007   0.32003   0.74993   0.00000  Uiso   1.00
C118   C     0.32012   0.43013   0.25032   0.00000  Uiso   1.00
C119   C     0.17997   0.07007   0.74993   0.00000  Uiso   1.00
C120   C     0.06987   0.32013   0.25032   0.00000  Uiso   1.00
C121   C     0.42993   0.17997   0.74993   0.00000  Uiso   1.00
C122   C     0.18013   0.42988   0.75031   0.00000  Uiso   1.00
C123   C     0.32007   0.07003   0.24993   0.00000  Uiso   1.00
C124   C     0.42988   0.31987   0.75032   0.00000  Uiso   1.00
C125   C     0.22044   0.48446   0.95857   0.00000  Uiso   1.00
C126   C     0.07003   0.17993   0.24993   0.00000  Uiso   1.00
C127   C     0.31987   0.07013   0.75032   0.00000  Uiso   1.00
C128   C     0.17993   0.42997   0.24993   0.00000  Uiso   1.00
C129   C     0.07012   0.18012   0.75031   0.00000  Uiso   1.00
C130   C     0.42997   0.32007   0.24993   0.00000  Uiso   1.00
C131   C     0.14005   0.38665   0.21441   0.00000  Uiso   1.00
C132   C     0.35879   0.11415   0.78552   0.00000  Uiso   1.00
C133   C     0.11339   0.14008   0.21441   0.00000  Uiso   1.00
C134   C     0.38597   0.35892   0.78555   0.00000  Uiso   1.00
C135   C     0.35982   0.11349   0.21442   0.00000  Uiso   1.00
C136   C     0.01923   0.27735   0.04180   0.00000  Uiso   1.00
C137   C     0.14099   0.38605   0.78556   0.00000  Uiso   1.00
C138   C     0.38662   0.35993   0.21441   0.00000  Uiso   1.00
C139   C     0.11392   0.14096   0.78556   0.00000  Uiso   1.00
C140   C     0.14098   0.11388   0.78542   0.00000  Uiso   1.00
C141   C     0.35813   0.38566   0.21484   0.00000  Uiso   1.00
C142   C     0.11390   0.35900   0.78543   0.00000  Uiso   1.00
C143   C     0.38556   0.14197   0.21486   0.00000  Uiso   1.00
C144   C     0.35891   0.38601   0.78541   0.00000  Uiso   1.00
C145   C     0.14187   0.11434   0.21483   0.00000  Uiso   1.00
C146   C     0.38592   0.14118   0.78540   0.00000  Uiso   1.00
C147   C     0.01617   0.22074   0.95852   0.00000  Uiso   1.00
C148   C     0.11431   0.35816   0.21483   0.00000  Uiso   1.00
C149   C     0.39018   0.13652   0.71443   0.00000  Uiso   1.00
C150   C     0.10895   0.36401   0.28555   0.00000  Uiso   1.00
C151   C     0.36338   0.39008   0.71441   0.00000  Uiso   1.00
C152   C     0.13594   0.10889   0.28554   0.00000  Uiso   1.00
C153   C     0.11003   0.36328   0.71440   0.00000  Uiso   1.00
C154   C     0.39122   0.13583   0.28552   0.00000  Uiso   1.00
C155   C     0.13673   0.11005   0.71439   0.00000  Uiso   1.00
C156   C     0.36404   0.39108   0.28555   0.00000  Uiso   1.00
C157   C     0.39110   0.36399   0.28541   0.00000  Uiso   1.00
C158   C     0.47310   0.26923   0.54178   0.00000  Uiso   1.00
C159   C     0.10825   0.13579   0.71480   0.00000  Uiso   1.00
C160   C     0.36410   0.10880   0.28539   0.00000  Uiso   1.00
C161   C     0.13576   0.39177   0.71481   0.00000  Uiso   1.00
C162   C     0.10890   0.13600   0.28541   0.00000  Uiso   1.00
C163   C     0.39186   0.36434   0.71484   0.00000  Uiso   1.00
C164   C     0.13604   0.39106   0.28542   0.00000  Uiso   1.00
C165   C     0.36444   0.10803   0.71486   0.00000  Uiso   1.00
C166   C     0.09834   0.34776   0.25028   0.00000  Uiso   1.00
C167   C     0.40155   0.15210   0.74990   0.00000  Uiso   1.00
C168   C     0.15224   0.09833   0.25027   0.00000  Uiso   1.00
H169   H     0.20056   0.03186   0.09804   0.00000  Uiso   1.00
H170   H     0.05349   0.27407   0.40218   0.00000  Uiso   1.00
H171   H     0.12958   0.08509   0.86982   0.00000  Uiso   1.00
H172   H     0.35496   0.39601   0.15525   0.00000  Uiso   1.00
H173   H     0.30953   0.34698   0.17052   0.00000  Uiso   1.00
H174   H     0.29130   0.38760   0.14793   0.00000  Uiso   1.00
H175   H     0.28643   0.38126   0.19942   0.00000  Uiso   1.00
H176   H     0.12430   0.33150   0.83749   0.00000  Uiso   1.00
H177   H     0.05341   0.33797   0.85010   0.00000  Uiso   1.00
H178   H     0.06072   0.38085   0.82555   0.00000  Uiso   1.00
H179   H     0.08513   0.37043   0.86979   0.00000  Uiso   1.00
H180   H     0.39572   0.14532   0.15525   0.00000  Uiso   1.00
H181   H     0.21784   0.45072   0.59817   0.00000  Uiso   1.00
H182   H     0.34674   0.19070   0.17083   0.00000  Uiso   1.00
H183   H     0.38729   0.20901   0.14818   0.00000  Uiso   1.00
H184   H     0.38110   0.21372   0.19970   0.00000  Uiso   1.00
H185   H     0.33129   0.37548   0.83737   0.00000  Uiso   1.00
H186   H     0.33769   0.44635   0.85016   0.00000  Uiso   1.00
H187   H     0.38065   0.43910   0.82574   0.00000  Uiso   1.00
H188   H     0.37010   0.41460   0.86990   0.00000  Uiso   1.00
H189   H     0.14501   0.10398   0.15525   0.00000  Uiso   1.00
H190   H     0.19047   0.15300   0.17048   0.00000  Uiso   1.00
H191   H     0.20867   0.11237   0.14790   0.00000  Uiso   1.00
H192   H     0.22553   0.05339   0.40236   0.00000  Uiso   1.00
H193   H     0.21356   0.11872   0.19938   0.00000  Uiso   1.00
H194   H     0.37531   0.16881   0.83735   0.00000  Uiso   1.00
H195   H     0.44599   0.16264   0.85051   0.00000  Uiso   1.00
H196   H     0.43929   0.11985   0.82559   0.00000  Uiso   1.00
H197   H     0.41443   0.12974   0.86968   0.00000  Uiso   1.00
H198   H     0.10391   0.35505   0.15525   0.00000  Uiso   1.00
H199   H     0.15295   0.30960   0.17042   0.00000  Uiso   1.00
H200   H     0.11231   0.29140   0.14786   0.00000  Uiso   1.00
H201   H     0.11870   0.28648   0.19934   0.00000  Uiso   1.00
H202   H     0.41522   0.12681   0.66134   0.00000  Uiso   1.00
H203   H     0.04904   0.21757   0.59825   0.00000  Uiso   1.00
H204   H     0.40496   0.18748   0.63501   0.00000  Uiso   1.00
H205   H     0.36229   0.16449   0.64389   0.00000  Uiso   1.00
H206   H     0.37845   0.19845   0.67745   0.00000  Uiso   1.00
H207   H     0.08145   0.37510   0.33743   0.00000  Uiso   1.00
H208   H     0.11807   0.33541   0.37122   0.00000  Uiso   1.00
H209   H     0.13166   0.31239   0.32712   0.00000  Uiso   1.00
H210   H     0.08778   0.30323   0.34873   0.00000  Uiso   1.00
H211   H     0.37293   0.41496   0.66121   0.00000  Uiso   1.00
H212   H     0.33521   0.36197   0.64404   0.00000  Uiso   1.00
H213   H     0.31218   0.40461   0.63512   0.00000  Uiso   1.00
H214   H     0.44654   0.22566   0.40248   0.00000  Uiso   1.00
H215   H     0.30135   0.37820   0.67768   0.00000  Uiso   1.00
H216   H     0.12472   0.08124   0.33729   0.00000  Uiso   1.00
H217   H     0.16436   0.11759   0.37142   0.00000  Uiso   1.00
H218   H     0.18732   0.13163   0.32742   0.00000  Uiso   1.00
H219   H     0.19666   0.08762   0.34864   0.00000  Uiso   1.00
H220   H     0.08530   0.37268   0.66108   0.00000  Uiso   1.00
H221   H     0.13832   0.33492   0.64417   0.00000  Uiso   1.00
H222   H     0.09571   0.31183   0.63526   0.00000  Uiso   1.00
H223   H     0.12205   0.30117   0.67791   0.00000  Uiso   1.00
H224   H     0.41897   0.12448   0.33719   0.00000  Uiso   1.00
H225   H     0.28210   0.04914   0.59772   0.00000  Uiso   1.00
H226   H     0.38273   0.16410   0.37147   0.00000  Uiso   1.00
H227   H     0.36864   0.18716   0.32756   0.00000  Uiso   1.00
H228   H     0.41271   0.19640   0.34870   0.00000  Uiso   1.00
H229   H     0.12735   0.08535   0.66106   0.00000  Uiso   1.00
H230   H     0.19886   0.12208   0.67794   0.00000  Uiso   1.00
H231   H     0.18824   0.09574   0.63528   0.00000  Uiso   1.00
H232   H     0.16513   0.13834   0.64416   0.00000  Uiso   1.00
H233   H     0.37518   0.41861   0.33740   0.00000  Uiso   1.00
H234   H     0.33550   0.38202   0.37124   0.00000  Uiso   1.00
H235   H     0.31245   0.36840   0.32716   0.00000  Uiso   1.00
H236   H     0.27420   0.44662   0.40221   0.00000  Uiso   1.00
H237   H     0.30331   0.41230   0.34875   0.00000  Uiso   1.00
H238   H     0.41874   0.37453   0.33736   0.00000  Uiso   1.00
H239   H     0.41232   0.30365   0.35015   0.00000  Uiso   1.00
H240   H     0.36935   0.31092   0.32576   0.00000  Uiso   1.00
H241   H     0.37993   0.33541   0.36990   0.00000  Uiso   1.00
H242   H     0.10533   0.14637   0.65525   0.00000  Uiso   1.00
H243   H     0.05980   0.09731   0.67008   0.00000  Uiso   1.00
H244   H     0.04170   0.13803   0.64759   0.00000  Uiso   1.00
H245   H     0.03661   0.13149   0.69902   0.00000  Uiso   1.00
H246   H     0.37473   0.08108   0.33728   0.00000  Uiso   1.00
H247   H     0.22890   0.08456   0.01903   0.00000  Uiso   1.00
H248   H     0.30398   0.08740   0.35038   0.00000  Uiso   1.00
H249   H     0.31096   0.13032   0.32578   0.00000  Uiso   1.00
H250   H     0.33569   0.12000   0.36985   0.00000  Uiso   1.00
H251   H     0.14630   0.39474   0.65525   0.00000  Uiso   1.00
H252   H     0.09724   0.44024   0.67016   0.00000  Uiso   1.00
H253   H     0.13794   0.45837   0.64766   0.00000  Uiso   1.00
H254   H     0.13144   0.46342   0.69910   0.00000  Uiso   1.00
H255   H     0.08133   0.12549   0.33740   0.00000  Uiso   1.00
H256   H     0.08770   0.19630   0.35026   0.00000  Uiso   1.00
H257   H     0.13057   0.18921   0.32561   0.00000  Uiso   1.00
H258   H     0.19398   0.08439   0.05689   0.00000  Uiso   1.00
H259   H     0.12030   0.16461   0.36978   0.00000  Uiso   1.00
H260   H     0.39503   0.35400   0.65525   0.00000  Uiso   1.00
H261   H     0.44046   0.40304   0.67053   0.00000  Uiso   1.00
H262   H     0.45870   0.36242   0.64794   0.00000  Uiso   1.00
H263   H     0.46356   0.36876   0.69943   0.00000  Uiso   1.00
H264   H     0.12555   0.41865   0.33740   0.00000  Uiso   1.00
H265   H     0.19644   0.41221   0.35012   0.00000  Uiso   1.00
H266   H     0.18914   0.36926   0.32570   0.00000  Uiso   1.00
H267   H     0.16469   0.37982   0.36988   0.00000  Uiso   1.00
H268   H     0.35427   0.10469   0.65525   0.00000  Uiso   1.00
H269   H     0.18165   0.09043   0.00702   0.00000  Uiso   1.00
H270   H     0.40326   0.05931   0.67084   0.00000  Uiso   1.00
H271   H     0.36271   0.04101   0.64818   0.00000  Uiso   1.00
H272   H     0.36890   0.03629   0.69970   0.00000  Uiso   1.00
H273   H     0.30337   0.02447   0.90232   0.00000  Uiso   1.00
H274   H     0.28427   0.08206   0.97548   0.00000  Uiso   1.00
H275   H     0.32174   0.07345   0.94168   0.00000  Uiso   1.00
H276   H     0.33054   0.08032   0.99223   0.00000  Uiso   1.00
H277   H     0.42049   0.23121   0.00701   0.00000  Uiso   1.00
H278   H     0.41337   0.20422   0.05098   0.00000  Uiso   1.00
H279   H     0.41067   0.18334   0.00402   0.00000  Uiso   1.00
H280   H     0.41693   0.28881   0.96370   0.00000  Uiso   1.00
H281   H     0.43198   0.33114   0.94053   0.00000  Uiso   1.00
H282   H     0.41880   0.33067   0.99045   0.00000  Uiso   1.00
H283   H     0.26892   0.41870   0.01100   0.00000  Uiso   1.00
H284   H     0.46827   0.20051   0.09778   0.00000  Uiso   1.00
H285   H     0.29865   0.41394   0.05330   0.00000  Uiso   1.00
H286   H     0.31679   0.41012   0.00517   0.00000  Uiso   1.00
H287   H     0.21226   0.41746   0.96779   0.00000  Uiso   1.00
H288   H     0.17135   0.43068   0.94079   0.00000  Uiso   1.00
H289   H     0.16874   0.41991   0.99132   0.00000  Uiso   1.00
H290   H     0.08178   0.26976   0.01156   0.00000  Uiso   1.00
H291   H     0.08592   0.29980   0.05368   0.00000  Uiso   1.00
H292   H     0.08976   0.31771   0.00546   0.00000  Uiso   1.00
H293   H     0.08327   0.21351   0.96779   0.00000  Uiso   1.00
H294   H     0.07063   0.17251   0.94064   0.00000  Uiso   1.00
H295   H     0.47499   0.30299   0.90217   0.00000  Uiso   1.00
H296   H     0.08144   0.16988   0.99116   0.00000  Uiso   1.00
H297   H     0.48300   0.32961   0.50697   0.00000  Uiso   1.00
H298   H     0.45618   0.33734   0.55094   0.00000  Uiso   1.00
H299   H     0.43536   0.34048   0.50398   0.00000  Uiso   1.00
H300   H     0.04079   0.33222   0.46372   0.00000  Uiso   1.00
H301   H     0.08281   0.31620   0.44063   0.00000  Uiso   1.00
H302   H     0.08254   0.32940   0.49055   0.00000  Uiso   1.00
H303   H     0.16412   0.47811   0.52294   0.00000  Uiso   1.00
H304   H     0.16629   0.44083   0.55811   0.00000  Uiso   1.00
H305   H     0.15894   0.43164   0.50771   0.00000  Uiso   1.00
H306   H     0.29936   0.46817   0.09781   0.00000  Uiso   1.00
H307   H     0.16856   0.03314   0.47902   0.00000  Uiso   1.00
H308   H     0.17504   0.06876   0.44253   0.00000  Uiso   1.00
H309   H     0.16976   0.08032   0.49268   0.00000  Uiso   1.00
H310   H     0.02348   0.16283   0.52905   0.00000  Uiso   1.00
H311   H     0.06421   0.16793   0.55923   0.00000  Uiso   1.00
H312   H     0.06818   0.15833   0.50853   0.00000  Uiso   1.00
H313   H     0.46838   0.17034   0.48481   0.00000  Uiso   1.00
H314   H     0.43591   0.17311   0.44466   0.00000  Uiso   1.00
H315   H     0.42018   0.17023   0.49377   0.00000  Uiso   1.00
H316   H     0.32938   0.01764   0.50686   0.00000  Uiso   1.00
H317   H     0.19665   0.47564   0.90224   0.00000  Uiso   1.00
H318   H     0.33698   0.04447   0.55084   0.00000  Uiso   1.00
H319   H     0.33992   0.06535   0.50390   0.00000  Uiso   1.00
H320   H     0.33231   0.45978   0.46384   0.00000  Uiso   1.00
H321   H     0.31661   0.41768   0.44067   0.00000  Uiso   1.00
H322   H     0.32974   0.41798   0.49062   0.00000  Uiso   1.00
H323   H     0.16488   0.37715   0.16117   0.00000  Uiso   1.00
H324   H     0.15451   0.43793   0.13516   0.00000  Uiso   1.00
H325   H     0.11188   0.41487   0.14408   0.00000  Uiso   1.00
H326   H     0.12813   0.44870   0.17774   0.00000  Uiso   1.00
H327   H     0.33100   0.12550   0.83716   0.00000  Uiso   1.00
H328   H     0.03177   0.29953   0.09791   0.00000  Uiso   1.00
H329   H     0.36721   0.08592   0.87153   0.00000  Uiso   1.00
H330   H     0.38143   0.06290   0.82764   0.00000  Uiso   1.00
H331   H     0.33735   0.05357   0.84868   0.00000  Uiso   1.00
H332   H     0.12294   0.16497   0.16121   0.00000  Uiso   1.00
H333   H     0.08521   0.11201   0.14401   0.00000  Uiso   1.00
H334   H     0.06217   0.15465   0.13514   0.00000  Uiso   1.00
H335   H     0.05136   0.12821   0.17768   0.00000  Uiso   1.00
H336   H     0.37488   0.33140   0.83742   0.00000  Uiso   1.00
H337   H     0.41454   0.36799   0.87126   0.00000  Uiso   1.00
H338   H     0.43751   0.38172   0.82716   0.00000  Uiso   1.00
H339   H     0.02510   0.19700   0.90221   0.00000  Uiso   1.00
H340   H     0.44678   0.33782   0.84868   0.00000  Uiso   1.00
H341   H     0.33478   0.12320   0.16134   0.00000  Uiso   1.00
H342   H     0.38771   0.08552   0.14388   0.00000  Uiso   1.00
H343   H     0.34504   0.06253   0.13501   0.00000  Uiso   1.00
H344   H     0.37155   0.05156   0.17744   0.00000  Uiso   1.00
H345   H     0.16845   0.37502   0.83748   0.00000  Uiso   1.00
H346   H     0.13184   0.41473   0.87123   0.00000  Uiso   1.00
H347   H     0.11817   0.43765   0.82708   0.00000  Uiso   1.00
H348   H     0.16204   0.44694   0.84864   0.00000  Uiso   1.00
H349   H     0.37706   0.33505   0.16121   0.00000  Uiso   1.00
H350   H     0.45110   0.28244   0.59774   0.00000  Uiso   1.00
H351   H     0.44864   0.37180   0.17767   0.00000  Uiso   1.00
H352   H     0.43781   0.34540   0.13512   0.00000  Uiso   1.00
H353   H     0.41478   0.38803   0.14404   0.00000  Uiso   1.00
H354   H     0.12490   0.16837   0.83752   0.00000  Uiso   1.00
H355   H     0.08518   0.13173   0.87121   0.00000  Uiso   1.00
H356   H     0.06235   0.11802   0.82703   0.00000  Uiso   1.00
H357   H     0.05296   0.16188   0.84857   0.00000  Uiso   1.00
H358   H     0.16848   0.12427   0.83749   0.00000  Uiso   1.00
H359   H     0.16198   0.05336   0.85005   0.00000  Uiso   1.00
H360   H     0.11907   0.06073   0.82557   0.00000  Uiso   1.00
N361   N     0.15645   0.39818   0.17891   0.00000  Uiso   1.00
N362   N     0.33933   0.39538   0.18003   0.00000  Uiso   1.00
N363   N     0.10330   0.34145   0.82063   0.00000  Uiso   1.00
N364   N     0.39517   0.16088   0.18008   0.00000  Uiso   1.00
N365   N     0.34127   0.39652   0.82059   0.00000  Uiso   1.00
N366   N     0.16065   0.10461   0.18001   0.00000  Uiso   1.00
N367   N     0.39637   0.15887   0.82057   0.00000  Uiso   1.00
N368   N     0.10456   0.33939   0.18001   0.00000  Uiso   1.00
N369   N     0.40673   0.14791   0.67896   0.00000  Uiso   1.00
N370   N     0.09123   0.35387   0.32080   0.00000  Uiso   1.00
N371   N     0.35188   0.40652   0.67892   0.00000  Uiso   1.00
N372   N     0.34089   0.10418   0.82072   0.00000  Uiso   1.00
N373   N     0.14600   0.09108   0.32076   0.00000  Uiso   1.00
N374   N     0.09370   0.35168   0.67889   0.00000  Uiso   1.00
N375   N     0.40912   0.14580   0.32072   0.00000  Uiso   1.00
N376   N     0.14834   0.09373   0.67888   0.00000  Uiso   1.00
N377   N     0.35393   0.40883   0.32079   0.00000  Uiso   1.00
N378   N     0.40875   0.35348   0.32059   0.00000  Uiso   1.00
N379   N     0.08960   0.14565   0.67995   0.00000  Uiso   1.00
N380   N     0.35366   0.09108   0.32055   0.00000  Uiso   1.00
N381   N     0.14560   0.41045   0.67996   0.00000  Uiso   1.00
N382   N     0.09129   0.14652   0.32059   0.00000  Uiso   1.00
N383   N     0.10189   0.15652   0.17892   0.00000  Uiso   1.00
N384   N     0.41067   0.35463   0.68003   0.00000  Uiso   1.00
N385   N     0.14658   0.40867   0.32060   0.00000  Uiso   1.00
N386   N     0.35482   0.08913   0.68008   0.00000  Uiso   1.00
N387   N     0.39612   0.34120   0.82079   0.00000  Uiso   1.00
N388   N     0.34327   0.10210   0.17895   0.00000  Uiso   1.00
N389   N     0.15867   0.39624   0.82082   0.00000  Uiso   1.00
N390   N     0.39811   0.34349   0.17892   0.00000  Uiso   1.00
N391   N     0.10370   0.15860   0.82083   0.00000  Uiso   1.00
N392   N     0.15852   0.10327   0.82063   0.00000  Uiso   1.00
O393   O     0.25000   0.00000   0.25000   0.00000  Uiso   1.00
O394   O     0.25000   0.46964   0.66317   0.00000  Uiso   1.00
O395   O     0.46964   0.25000   0.33683   0.00000  Uiso   1.00
O396   O     0.03036   0.25000   0.66317   0.00000  Uiso   1.00
O397   O     0.00000   0.21964   0.83683   0.00000  Uiso   1.00
O398   O     0.00000   0.28036   0.16317   0.00000  Uiso   1.00
O399   O     0.28036   0.00000   0.83683   0.00000  Uiso   1.00
O400   O     0.21964  -0.00000   0.16317   0.00000  Uiso   1.00
O401   O     0.00000   0.28036   0.83683   0.00000  Uiso   1.00
O402   O     0.00000   0.21964   0.16317   0.00000  Uiso   1.00
O403   O     0.21964   0.00000   0.83683   0.00000  Uiso   1.00
O404   O     0.25000  -0.00000   0.75000   0.00000  Uiso   1.00
O405   O     0.28036  -0.00000   0.16317   0.00000  Uiso   1.00
O406   O     0.20726   0.07307   0.27282   0.00000  Uiso   1.00
O407   O     0.29275   0.42693   0.72718   0.00000  Uiso   1.00
O408   O     0.42693   0.20726   0.27282   0.00000  Uiso   1.00
O409   O     0.07307   0.29275   0.72718   0.00000  Uiso   1.00
O410   O     0.29275   0.42693   0.27282   0.00000  Uiso   1.00
O411   O     0.20726   0.07307   0.72718   0.00000  Uiso   1.00
O412   O     0.07307   0.29275   0.27282   0.00000  Uiso   1.00
O413   O     0.42693   0.20726   0.72718   0.00000  Uiso   1.00
O414   O     0.20726   0.42693   0.72718   0.00000  Uiso   1.00
O415   O     0.00000   0.25000   0.25000   0.00000  Uiso   1.00
O416   O     0.29275   0.07307   0.27282   0.00000  Uiso   1.00
O417   O     0.42693   0.29275   0.72718   0.00000  Uiso   1.00
O418   O     0.07307   0.20726   0.27282   0.00000  Uiso   1.00
O419   O     0.29275   0.07307   0.72718   0.00000  Uiso   1.00
O420   O     0.20726   0.42693   0.27282   0.00000  Uiso   1.00
O421   O     0.07307   0.20726   0.72718   0.00000  Uiso   1.00
O422   O     0.42693   0.29275   0.27282   0.00000  Uiso   1.00
O423   O     0.45726   0.32307   0.77282   0.00000  Uiso   1.00
O424   O     0.04275   0.17693   0.22718   0.00000  Uiso   1.00
O425   O     0.17693   0.45726   0.77282   0.00000  Uiso   1.00
O426   O     0.00000   0.25000   0.75000   0.00000  Uiso   1.00
O427   O     0.32307   0.04274   0.22718   0.00000  Uiso   1.00
O428   O     0.04275   0.17693   0.77282   0.00000  Uiso   1.00
O429   O     0.45726   0.32307   0.22718   0.00000  Uiso   1.00
O430   O     0.32307   0.04274   0.77282   0.00000  Uiso   1.00
O431   O     0.17693   0.45726   0.22718   0.00000  Uiso   1.00
O432   O     0.45726   0.17693   0.22718   0.00000  Uiso   1.00
O433   O     0.04275   0.32307   0.77282   0.00000  Uiso   1.00
O434   O     0.17693   0.04274   0.22718   0.00000  Uiso   1.00
O435   O     0.32307   0.45726   0.77282   0.00000  Uiso   1.00
O436   O     0.04275   0.32307   0.22718   0.00000  Uiso   1.00
O437   O     0.25000   0.46964   0.33683   0.00000  Uiso   1.00
O438   O     0.45726   0.17693   0.77282   0.00000  Uiso   1.00
O439   O     0.32307   0.45726   0.22718   0.00000  Uiso   1.00
O440   O     0.17693   0.04274   0.77282   0.00000  Uiso   1.00
O441   O     0.19573   0.03799   0.02172   0.00000  Uiso   1.00
O442   O     0.30869   0.03031   0.97875   0.00000  Uiso   1.00
O443   O     0.46270   0.19545   0.02200   0.00000  Uiso   1.00
O444   O     0.46905   0.30818   0.97932   0.00000  Uiso   1.00
O445   O     0.30424   0.46242   0.02188   0.00000  Uiso   1.00
O446   O     0.19132   0.46989   0.97916   0.00000  Uiso   1.00
O447   O     0.03755   0.30457   0.02194   0.00000  Uiso   1.00
O448   O     0.25000   0.03036   0.66317   0.00000  Uiso   1.00
O449   O     0.03114   0.19181   0.97908   0.00000  Uiso   1.00
O450   O     0.44631   0.28821   0.52198   0.00000  Uiso   1.00
O451   O     0.05893   0.27968   0.47939   0.00000  Uiso   1.00
O452   O     0.21151   0.44595   0.52164   0.00000  Uiso   1.00
O453   O     0.21975   0.05876   0.47859   0.00000  Uiso   1.00
O454   O     0.05368   0.21109   0.52138   0.00000  Uiso   1.00
O455   O     0.44107   0.22018   0.47843   0.00000  Uiso   1.00
O456   O     0.28774   0.05401   0.52195   0.00000  Uiso   1.00
O457   O     0.27987   0.44126   0.47940   0.00000  Uiso   1.00
O458   O     0.03036   0.25000   0.33683   0.00000  Uiso   1.00
O459   O     0.46964   0.25000   0.66317   0.00000  Uiso   1.00
O460   O     0.25000   0.03036   0.33683   0.00000  Uiso   1.00
Zn461  Zn    0.20660   0.00000   0.21760   0.00000  Uiso   1.00
Zn462  Zn    0.04340   0.25000   0.28240   0.00000  Uiso   1.00
Zn463  Zn    0.25000   0.45660   0.71760   0.00000  Uiso   1.00
Zn464  Zn    0.25000   0.04340   0.28240   0.00000  Uiso   1.00
Zn465  Zn    0.04340   0.25000   0.71760   0.00000  Uiso   1.00
Zn466  Zn    0.45660   0.25000   0.28240   0.00000  Uiso   1.00
Zn467  Zn    0.25000   0.04340   0.71760   0.00000  Uiso   1.00
Zn468  Zn    0.25000   0.45660   0.28240   0.00000  Uiso   1.00
Zn469  Zn    0.29340  -0.00000   0.78240   0.00000  Uiso   1.00
Zn470  Zn    0.00000   0.20660   0.21760   0.00000  Uiso   1.00
Zn471  Zn    0.00000   0.29340   0.78240   0.00000  Uiso   1.00
Zn472  Zn    0.29340   0.00000   0.21760   0.00000  Uiso   1.00
Zn473  Zn    0.20660  -0.00000   0.78240   0.00000  Uiso   1.00
Zn474  Zn    0.00000   0.29340   0.21760   0.00000  Uiso   1.00
Zn475  Zn    0.00000   0.20660   0.78240   0.00000  Uiso   1.00
Zn476  Zn    0.45660   0.25000   0.71760   0.00000  Uiso   1.00
C477   C     0.72280   0.01957   0.04180   0.00000  Uiso   1.00
C478   C     0.52975   0.26536   0.45862   0.00000  Uiso   1.00
C479   C     0.84789   0.40155   0.74990   0.00000  Uiso   1.00
C480   C     0.90167   0.15223   0.25028   0.00000  Uiso   1.00
C481   C     0.59845   0.34789   0.74990   0.00000  Uiso   1.00
C482   C     0.84776   0.40166   0.25028   0.00000  Uiso   1.00
C483   C     0.65211   0.09846   0.74989   0.00000  Uiso   1.00
C484   C     0.59775   0.15166   0.75027   0.00000  Uiso   1.00
C485   C     0.90211   0.34845   0.24990   0.00000  Uiso   1.00
C486   C     0.65166   0.40224   0.75027   0.00000  Uiso   1.00
C487   C     0.84845   0.09789   0.24990   0.00000  Uiso   1.00
C488   C     0.90224   0.34834   0.75028   0.00000  Uiso   1.00
C489   C     0.73005   0.47290   0.54181   0.00000  Uiso   1.00
C490   C     0.59790   0.15155   0.24990   0.00000  Uiso   1.00
C491   C     0.84833   0.09777   0.75028   0.00000  Uiso   1.00
C492   C     0.65155   0.40211   0.24990   0.00000  Uiso   1.00
C493   C     0.75000   0.00011   0.10255   0.00000  Uiso   1.00
C494   C     0.75000   0.00001   0.89763   0.00000  Uiso   1.00
C495   C     0.50006   0.25000   0.10253   0.00000  Uiso   1.00
C496   C     0.50003   0.25000   0.89764   0.00000  Uiso   1.00
C497   C     0.99999   0.24979   0.60255   0.00000  Uiso   1.00
C498   C     0.50001   0.25005   0.39765   0.00000  Uiso   1.00
C499   C     0.74979   0.00001   0.60255   0.00000  Uiso   1.00
C500   C     0.73429   0.02945   0.45845   0.00000  Uiso   1.00
C501   C     0.74997   0.49999   0.39764   0.00000  Uiso   1.00
C502   C     0.70066   0.07589   0.02675   0.00000  Uiso   1.00
C503   C     0.81102   0.06812   0.97131   0.00000  Uiso   1.00
C504   C     0.92526   0.20434   0.02127   0.00000  Uiso   1.00
C505   C     0.93269   0.31460   0.96752   0.00000  Uiso   1.00
C506   C     0.79642   0.42474   0.02321   0.00000  Uiso   1.00
C507   C     0.68608   0.43295   0.96886   0.00000  Uiso   1.00
C508   C     0.57531   0.29725   0.02355   0.00000  Uiso   1.00
C509   C     0.56815   0.18711   0.96877   0.00000  Uiso   1.00
C510   C     0.95603   0.32544   0.52123   0.00000  Uiso   1.00
C511   C     0.52696   0.22982   0.54178   0.00000  Uiso   1.00
C512   C     0.56620   0.31587   0.46759   0.00000  Uiso   1.00
C513   C     0.67368   0.44968   0.52828   0.00000  Uiso   1.00
C514   C     0.68167   0.05990   0.47256   0.00000  Uiso   1.00
C515   C     0.55193   0.17354   0.53036   0.00000  Uiso   1.00
C516   C     0.94181   0.18183   0.47492   0.00000  Uiso   1.00
C517   C     0.82504   0.04456   0.52115   0.00000  Uiso   1.00
C518   C     0.81613   0.43425   0.46765   0.00000  Uiso   1.00
C519   C     0.63665   0.42628   0.15806   0.00000  Uiso   1.00
C520   C     0.85780   0.07525   0.84310   0.00000  Uiso   1.00
C521   C     0.57379   0.13675   0.15802   0.00000  Uiso   1.00
C522   C     0.97049   0.23462   0.45845   0.00000  Uiso   1.00
C523   C     0.92513   0.35826   0.84292   0.00000  Uiso   1.00
C524   C     0.86298   0.07407   0.15789   0.00000  Uiso   1.00
C525   C     0.64160   0.42529   0.84288   0.00000  Uiso   1.00
C526   C     0.92620   0.36327   0.15802   0.00000  Uiso   1.00
C527   C     0.57465   0.14147   0.84285   0.00000  Uiso   1.00
C528   C     0.64120   0.07420   0.84244   0.00000  Uiso   1.00
C529   C     0.80490   0.37675   0.17432   0.00000  Uiso   1.00
C530   C     0.57423   0.35877   0.84244   0.00000  Uiso   1.00
C531   C     0.87652   0.19532   0.17455   0.00000  Uiso   1.00
C532   C     0.85852   0.42555   0.84253   0.00000  Uiso   1.00
C533   C     0.76898   0.02708   0.54176   0.00000  Uiso   1.00
C534   C     0.69508   0.12323   0.17429   0.00000  Uiso   1.00
C535   C     0.92543   0.14169   0.84252   0.00000  Uiso   1.00
C536   C     0.62319   0.30497   0.17426   0.00000  Uiso   1.00
C537   C     0.88702   0.17594   0.65790   0.00000  Uiso   1.00
C538   C     0.60827   0.32483   0.34292   0.00000  Uiso   1.00
C539   C     0.82379   0.38673   0.65802   0.00000  Uiso   1.00
C540   C     0.67498   0.10806   0.34301   0.00000  Uiso   1.00
C541   C     0.61354   0.32354   0.65815   0.00000  Uiso   1.00
C542   C     0.89222   0.17476   0.34307   0.00000  Uiso   1.00
C543   C     0.67651   0.11357   0.65816   0.00000  Uiso   1.00
C544   C     0.76538   0.47035   0.45862   0.00000  Uiso   1.00
C545   C     0.82490   0.39181   0.34294   0.00000  Uiso   1.00
C546   C     0.89150   0.32446   0.34253   0.00000  Uiso   1.00
C547   C     0.55518   0.12707   0.67400   0.00000  Uiso   1.00
C548   C     0.82466   0.10828   0.34258   0.00000  Uiso   1.00
C549   C     0.62700   0.44487   0.67406   0.00000  Uiso   1.00
C550   C     0.60855   0.17557   0.34249   0.00000  Uiso   1.00
C551   C     0.94509   0.37327   0.67433   0.00000  Uiso   1.00
C552   C     0.67562   0.39140   0.34250   0.00000  Uiso   1.00
C553   C     0.87348   0.05469   0.67456   0.00000  Uiso   1.00
C554   C     0.72223   0.01817   0.08235   0.00000  Uiso   1.00
C555   C     0.77993   0.01409   0.91793   0.00000  Uiso   1.00
C556   C     0.98221   0.22214   0.08225   0.00000  Uiso   1.00
C557   C     0.77946   0.01571   0.95848   0.00000  Uiso   1.00
C558   C     0.98558   0.27976   0.91793   0.00000  Uiso   1.00
C559   C     0.77777   0.48215   0.08226   0.00000  Uiso   1.00
C560   C     0.72005   0.48596   0.91795   0.00000  Uiso   1.00
C561   C     0.51797   0.27786   0.08231   0.00000  Uiso   1.00
C562   C     0.51452   0.22027   0.91792   0.00000  Uiso   1.00
C563   C     0.97247   0.26808   0.58224   0.00000  Uiso   1.00
C564   C     0.53007   0.26392   0.41795   0.00000  Uiso   1.00
C565   C     0.73153   0.47234   0.58239   0.00000  Uiso   1.00
C566   C     0.73593   0.02993   0.41793   0.00000  Uiso   1.00
C567   C     0.52753   0.23132   0.58240   0.00000  Uiso   1.00
C568   C     0.98109   0.22266   0.04177   0.00000  Uiso   1.00
C569   C     0.97002   0.23615   0.41796   0.00000  Uiso   1.00
C570   C     0.76788   0.02767   0.58223   0.00000  Uiso   1.00
C571   C     0.76394   0.47000   0.41796   0.00000  Uiso   1.00
C572   C     0.74997   0.00024   0.02143   0.00000  Uiso   1.00
C573   C     0.74993   0.00019   0.97879   0.00000  Uiso   1.00
C574   C     0.50016   0.25002   0.02141   0.00000  Uiso   1.00
C575   C     0.50015   0.25005   0.97877   0.00000  Uiso   1.00
C576   C     0.50011   0.24963   0.52145   0.00000  Uiso   1.00
C577   C     0.50017   0.24978   0.47881   0.00000  Uiso   1.00
C578   C     0.74955   0.49994   0.52144   0.00000  Uiso   1.00
C579   C     0.98402   0.27933   0.95857   0.00000  Uiso   1.00
C580   C     0.74965   0.49986   0.47879   0.00000  Uiso   1.00
C581   C     0.75000  -0.00000   0.35524   0.00000  Uiso   1.00
C582   C     0.74999   0.00000   0.64483   0.00000  Uiso   1.00
C583   C     0.50000   0.25001   0.35524   0.00000  Uiso   1.00
C584   C     0.50000   0.24998   0.64483   0.00000  Uiso   1.00
C585   C     0.50000   0.25000   0.85524   0.00000  Uiso   1.00
C586   C     0.50000   0.25000   0.14482   0.00000  Uiso   1.00
C587   C     0.75000  -0.00000   0.85524   0.00000  Uiso   1.00
C588   C     0.75000   0.00001   0.14483   0.00000  Uiso   1.00
C589   C     0.67988   0.06987   0.25031   0.00000  Uiso   1.00
C590   C     0.77719   0.48096   0.04177   0.00000  Uiso   1.00
C591   C     0.82003   0.42993   0.74993   0.00000  Uiso   1.00
C592   C     0.93013   0.17987   0.25032   0.00000  Uiso   1.00
C593   C     0.57007   0.32003   0.74993   0.00000  Uiso   1.00
C594   C     0.82012   0.43013   0.25032   0.00000  Uiso   1.00
C595   C     0.67997   0.07007   0.74993   0.00000  Uiso   1.00
C596   C     0.56987   0.32013   0.25032   0.00000  Uiso   1.00
C597   C     0.92993   0.17997   0.74993   0.00000  Uiso   1.00
C598   C     0.68013   0.42988   0.75031   0.00000  Uiso   1.00
C599   C     0.82007   0.07003   0.24993   0.00000  Uiso   1.00
C600   C     0.92988   0.31987   0.75032   0.00000  Uiso   1.00
C601   C     0.72044   0.48446   0.95857   0.00000  Uiso   1.00
C602   C     0.57003   0.17993   0.24993   0.00000  Uiso   1.00
C603   C     0.81987   0.07013   0.75032   0.00000  Uiso   1.00
C604   C     0.67993   0.42997   0.24993   0.00000  Uiso   1.00
C605   C     0.57012   0.18012   0.75031   0.00000  Uiso   1.00
C606   C     0.92997   0.32007   0.24993   0.00000  Uiso   1.00
C607   C     0.64005   0.38665   0.21441   0.00000  Uiso   1.00
C608   C     0.85879   0.11415   0.78552   0.00000  Uiso   1.00
C609   C     0.61339   0.14008   0.21441   0.00000  Uiso   1.00
C610   C     0.88597   0.35892   0.78555   0.00000  Uiso   1.00
C611   C     0.85982   0.11349   0.21442   0.00000  Uiso   1.00
C612   C     0.51923   0.27735   0.04180   0.00000  Uiso   1.00
C613   C     0.64099   0.38605   0.78556   0.00000  Uiso   1.00
C614   C     0.88662   0.35993   0.21441   0.00000  Uiso   1.00
C615   C     0.61392   0.14096   0.78556   0.00000  Uiso   1.00
C616   C     0.64098   0.11388   0.78542   0.00000  Uiso   1.00
C617   C     0.85813   0.38566   0.21484   0.00000  Uiso   1.00
C618   C     0.61390   0.35900   0.78543   0.00000  Uiso   1.00
C619   C     0.88556   0.14197   0.21486   0.00000  Uiso   1.00
C620   C     0.85891   0.38601   0.78541   0.00000  Uiso   1.00
C621   C     0.64187   0.11434   0.21483   0.00000  Uiso   1.00
C622   C     0.88592   0.14118   0.78540   0.00000  Uiso   1.00
C623   C     0.51617   0.22074   0.95852   0.00000  Uiso   1.00
C624   C     0.61431   0.35816   0.21483   0.00000  Uiso   1.00
C625   C     0.89018   0.13652   0.71443   0.00000  Uiso   1.00
C626   C     0.60895   0.36401   0.28555   0.00000  Uiso   1.00
C627   C     0.86338   0.39008   0.71441   0.00000  Uiso   1.00
C628   C     0.63594   0.10889   0.28554   0.00000  Uiso   1.00
C629   C     0.61003   0.36328   0.71440   0.00000  Uiso   1.00
C630   C     0.89122   0.13583   0.28552   0.00000  Uiso   1.00
C631   C     0.63673   0.11005   0.71439   0.00000  Uiso   1.00
C632   C     0.86404   0.39108   0.28555   0.00000  Uiso   1.00
C633   C     0.89110   0.36399   0.28541   0.00000  Uiso   1.00
C634   C     0.97310   0.26923   0.54178   0.00000  Uiso   1.00
C635   C     0.60825   0.13579   0.71480   0.00000  Uiso   1.00
C636   C     0.86410   0.10880   0.28539   0.00000  Uiso   1.00
C637   C     0.63576   0.39177   0.71481   0.00000  Uiso   1.00
C638   C     0.60890   0.13600   0.28541   0.00000  Uiso   1.00
C639   C     0.89186   0.36434   0.71484   0.00000  Uiso   1.00
C640   C     0.63604   0.39106   0.28542   0.00000  Uiso   1.00
C641   C     0.86444   0.10803   0.71486   0.00000  Uiso   1.00
C642   C     0.59834   0.34776   0.25028   0.00000  Uiso   1.00
C643   C     0.90155   0.15210   0.74990   0.00000  Uiso   1.00
C644   C     0.65224   0.09833   0.25027   0.00000  Uiso   1.00
H645   H     0.70056   0.03186   0.09804   0.00000  Uiso   1.00
H646   H     0.55349   0.27407   0.40218   0.00000  Uiso   1.00
H647   H     0.62958   0.08509   0.86982   0.00000  Uiso   1.00
H648   H     0.85496   0.39601   0.15525   0.00000  Uiso   1.00
H649   H     0.80953   0.34698   0.17052   0.00000  Uiso   1.00
H650   H     0.79130   0.38760   0.14793   0.00000  Uiso   1.00
H651   H     0.78643   0.38126   0.19942   0.00000  Uiso   1.00
H652   H     0.62430   0.33150   0.83749   0.00000  Uiso   1.00
H653   H     0.55341   0.33797   0.85010   0.00000  Uiso   1.00
H654   H     0.56072   0.38085   0.82555   0.00000  Uiso   1.00
H655   H     0.58513   0.37043   0.86979   0.00000  Uiso   1.00
H656   H     0.89572   0.14532   0.15525   0.00000  Uiso   1.00
H657   H     0.71784   0.45072   0.59817   0.00000  Uiso   1.00
H658   H     0.84674   0.19070   0.17083   0.00000  Uiso   1.00
H659   H     0.88729   0.20901   0.14818   0.00000  Uiso   1.00
H660   H     0.88110   0.21372   0.19970   0.00000  Uiso   1.00
H661   H     0.83129   0.37548   0.83737   0.00000  Uiso   1.00
H662   H     0.83769   0.44635   0.85016   0.00000  Uiso   1.00
H663   H     0.88065   0.43910   0.82574   0.00000  Uiso   1.00
H664   H     0.87010   0.41460   0.86990   0.00000  Uiso   1.00
H665   H     0.64501   0.10398   0.15525   0.00000  Uiso   1.00
H666   H     0.69047   0.15300   0.17048   0.00000  Uiso   1.00
H667   H     0.70867   0.11237   0.14790   0.00000  Uiso   1.00
H668   H     0.72553   0.05339   0.40236   0.00000  Uiso   1.00
H669   H     0.71356   0.11872   0.19938   0.00000  Uiso   1.00
H670   H     0.87531   0.16881   0.83735   0.00000  Uiso   1.00
H671   H     0.94599   0.16264   0.85051   0.00000  Uiso   1.00
H672   H     0.93929   0.11985   0.82559   0.00000  Uiso   1.00
H673   H     0.91443   0.12974   0.86968   0.00000  Uiso   1.00
H674   H     0.60391   0.35505   0.15525   0.00000  Uiso   1.00
H675   H     0.65295   0.30960   0.17042   0.00000  Uiso   1.00
H676   H     0.61231   0.29140   0.14786   0.00000  Uiso   1.00
H677   H     0.61870   0.28648   0.19934   0.00000  Uiso   1.00
H678   H     0.91522   0.12681   0.66134   0.00000  Uiso   1.00
H679   H     0.54904   0.21757   0.59825   0.00000  Uiso   1.00
H680   H     0.90496   0.18748   0.63501   0.00000  Uiso   1.00
H681   H     0.86229   0.16449   0.64389   0.00000  Uiso   1.00
H682   H     0.87845   0.19845   0.67745   0.00000  Uiso   1.00
H683   H     0.58145   0.37510   0.33743   0.00000  Uiso   1.00
H684   H     0.61807   0.33541   0.37122   0.00000  Uiso   1.00
H685   H     0.63166   0.31239   0.32712   0.00000  Uiso   1.00
H686   H     0.58778   0.30323   0.34873   0.00000  Uiso   1.00
H687   H     0.87293   0.41496   0.66121   0.00000  Uiso   1.00
H688   H     0.83521   0.36197   0.64404   0.00000  Uiso   1.00
H689   H     0.81218   0.40461   0.63512   0.00000  Uiso   1.00
H690   H     0.94654   0.22566   0.40248   0.00000  Uiso   1.00
H691   H     0.80135   0.37820   0.67768   0.00000  Uiso   1.00
H692   H     0.62472   0.08124   0.33729   0.00000  Uiso   1.00
H693   H     0.66436   0.11759   0.37142   0.00000  Uiso   1.00
H694   H     0.68732   0.13163   0.32742   0.00000  Uiso   1.00
H695   H     0.69666   0.08762   0.34864   0.00000  Uiso   1.00
H696   H     0.58530   0.37268   0.66108   0.00000  Uiso   1.00
H697   H     0.63832   0.33492   0.64417   0.00000  Uiso   1.00
H698   H     0.59571   0.31183   0.63526   0.00000  Uiso   1.00
H699   H     0.62205   0.30117   0.67791   0.00000  Uiso   1.00
H700   H     0.91897   0.12448   0.33719   0.00000  Uiso   1.00
H701   H     0.78210   0.04914   0.59772   0.00000  Uiso   1.00
H702   H     0.88273   0.16410   0.37147   0.00000  Uiso   1.00
H703   H     0.86864   0.18716   0.32756   0.00000  Uiso   1.00
H704   H     0.91271   0.19640   0.34870   0.00000  Uiso   1.00
H705   H     0.62735   0.08535   0.66106   0.00000  Uiso   1.00
H706   H     0.69886   0.12208   0.67794   0.00000  Uiso   1.00
H707   H     0.68824   0.09574   0.63528   0.00000  Uiso   1.00
H708   H     0.66513   0.13834   0.64416   0.00000  Uiso   1.00
H709   H     0.87518   0.41861   0.33740   0.00000  Uiso   1.00
H710   H     0.83550   0.38202   0.37124   0.00000  Uiso   1.00
H711   H     0.81245   0.36840   0.32716   0.00000  Uiso   1.00
H712   H     0.77420   0.44662   0.40221   0.00000  Uiso   1.00
H713   H     0.80331   0.41230   0.34875   0.00000  Uiso   1.00
H714   H     0.91874   0.37453   0.33736   0.00000  Uiso   1.00
H715   H     0.91232   0.30365   0.35015   0.00000  Uiso   1.00
H716   H     0.86935   0.31092   0.32576   0.00000  Uiso   1.00
H717   H     0.87993   0.33541   0.36990   0.00000  Uiso   1.00
H718   H     0.60533   0.14637   0.65525   0.00000  Uiso   1.00
H719   H     0.55980   0.09731   0.67008   0.00000  Uiso   1.00
H720   H     0.54170   0.13803   0.64759   0.00000  Uiso   1.00
H721   H     0.53661   0.13149   0.69902   0.00000  Uiso   1.00
H722   H     0.87473   0.08108   0.33728   0.00000  Uiso   1.00
H723   H     0.72890   0.08456   0.01903   0.00000  Uiso   1.00
H724   H     0.80398   0.08740   0.35038   0.00000  Uiso   1.00
H725   H     0.81096   0.13032   0.32578   0.00000  Uiso   1.00
H726   H     0.83569   0.12000   0.36985   0.00000  Uiso   1.00
H727   H     0.64630   0.39474   0.65525   0.00000  Uiso   1.00
H728   H     0.59724   0.44024   0.67016   0.00000  Uiso   1.00
H729   H     0.63794   0.45837   0.64766   0.00000  Uiso   1.00
H730   H     0.63144   0.46342   0.69910   0.00000  Uiso   1.00
H731   H     0.58133   0.12549   0.33740   0.00000  Uiso   1.00
H732   H     0.58770   0.19630   0.35026   0.00000  Uiso   1.00
H733   H     0.63057   0.18921   0.32561   0.00000  Uiso   1.00
H734   H     0.69398   0.08439   0.05689   0.00000  Uiso   1.00
H735   H     0.62030   0.16461   0.36978   0.00000  Uiso   1.00
H736   H     0.89503   0.35400   0.65525   0.00000  Uiso   1.00
H737   H     0.94046   0.40304   0.67053   0.00000  Uiso   1.00
H738   H     0.95870   0.36242   0.64794   0.00000  Uiso   1.00
H739   H     0.96356   0.36876   0.69943   0.00000  Uiso   1.00
H740   H     0.62555   0.41865   0.33740   0.00000  Uiso   1.00
H741   H     0.69644   0.41221   0.35012   0.00000  Uiso   1.00
H742   H     0.68914   0.36926   0.32570   0.00000  Uiso   1.00
H743   H     0.66469   0.37982   0.36988   0.00000  Uiso   1.00
H744   H     0.85427   0.10469   0.65525   0.00000  Uiso   1.00
H745   H     0.68165   0.09043   0.00702   0.00000  Uiso   1.00
H746   H     0.90326   0.05931   0.67084   0.00000  Uiso   1.00
H747   H     0.86271   0.04101   0.64818   0.00000  Uiso   1.00
H748   H     0.86890   0.03629   0.69970   0.00000  Uiso   1.00
H749   H     0.80337   0.02447   0.90232   0.00000  Uiso   1.00
H750   H     0.78427   0.08206   0.97548   0.00000  Uiso   1.00
H751   H     0.82174   0.07345   0.94168   0.00000  Uiso   1.00
H752   H     0.83054   0.08032   0.99223   0.00000  Uiso   1.00
H753   H     0.92049   0.23121   0.00701   0.00000  Uiso   1.00
H754   H     0.91337   0.20422   0.05098   0.00000  Uiso   1.00
H755   H     0.91067   0.18334   0.00402   0.00000  Uiso   1.00
H756   H     0.91693   0.28881   0.96370   0.00000  Uiso   1.00
H757   H     0.93198   0.33114   0.94053   0.00000  Uiso   1.00
H758   H     0.91880   0.33067   0.99045   0.00000  Uiso   1.00
H759   H     0.76892   0.41870   0.01100   0.00000  Uiso   1.00
H760   H     0.96827   0.20051   0.09778   0.00000  Uiso   1.00
H761   H     0.79865   0.41394   0.05330   0.00000  Uiso   1.00
H762   H     0.81679   0.41012   0.00517   0.00000  Uiso   1.00
H763   H     0.71226   0.41746   0.96779   0.00000  Uiso   1.00
H764   H     0.67135   0.43068   0.94079   0.00000  Uiso   1.00
H765   H     0.66874   0.41991   0.99132   0.00000  Uiso   1.00
H766   H     0.58178   0.26976   0.01156   0.00000  Uiso   1.00
H767   H     0.58592   0.29980   0.05368   0.00000  Uiso   1.00
H768   H     0.58976   0.31771   0.00546   0.00000  Uiso   1.00
H769   H     0.58327   0.21351   0.96779   0.00000  Uiso   1.00
H770   H     0.57063   0.17251   0.94064   0.00000  Uiso   1.00
H771   H     0.97499   0.30299   0.90217   0.00000  Uiso   1.00
H772   H     0.58144   0.16988   0.99116   0.00000  Uiso   1.00
H773   H     0.98300   0.32961   0.50697   0.00000  Uiso   1.00
H774   H     0.95618   0.33734   0.55094   0.00000  Uiso   1.00
H775   H     0.93536   0.34048   0.50398   0.00000  Uiso   1.00
H776   H     0.54079   0.33222   0.46372   0.00000  Uiso   1.00
H777   H     0.58281   0.31620   0.44063   0.00000  Uiso   1.00
H778   H     0.58254   0.32940   0.49055   0.00000  Uiso   1.00
H779   H     0.66412   0.47811   0.52294   0.00000  Uiso   1.00
H780   H     0.66629   0.44083   0.55811   0.00000  Uiso   1.00
H781   H     0.65894   0.43164   0.50771   0.00000  Uiso   1.00
H782   H     0.79936   0.46817   0.09781   0.00000  Uiso   1.00
H783   H     0.66856   0.03314   0.47902   0.00000  Uiso   1.00
H784   H     0.67504   0.06876   0.44253   0.00000  Uiso   1.00
H785   H     0.66976   0.08032   0.49268   0.00000  Uiso   1.00
H786   H     0.52348   0.16283   0.52905   0.00000  Uiso   1.00
H787   H     0.56421   0.16793   0.55923   0.00000  Uiso   1.00
H788   H     0.56818   0.15833   0.50853   0.00000  Uiso   1.00
H789   H     0.96838   0.17034   0.48481   0.00000  Uiso   1.00
H790   H     0.93591   0.17311   0.44466   0.00000  Uiso   1.00
H791   H     0.92018   0.17023   0.49377   0.00000  Uiso   1.00
H792   H     0.82938   0.01764   0.50686   0.00000  Uiso   1.00
H793   H     0.69665   0.47564   0.90224   0.00000  Uiso   1.00
H794   H     0.83698   0.04447   0.55084   0.00000  Uiso   1.00
H795   H     0.83992   0.06535   0.50390   0.00000  Uiso   1.00
H796   H     0.83231   0.45978   0.46384   0.00000  Uiso   1.00
H797   H     0.81661   0.41768   0.44067   0.00000  Uiso   1.00
H798   H     0.82974   0.41798   0.49062   0.00000  Uiso   1.00
H799   H     0.66488   0.37715   0.16117   0.00000  Uiso   1.00
H800   H     0.65451   0.43793   0.13516   0.00000  Uiso   1.00
H801   H     0.61188   0.41487   0.14408   0.00000  Uiso   1.00
H802   H     0.62813   0.44870   0.17774   0.00000  Uiso   1.00
H803   H     0.83100   0.12550   0.83716   0.00000  Uiso   1.00
H804   H     0.53177   0.29953   0.09791   0.00000  Uiso   1.00
H805   H     0.86721   0.08592   0.87153   0.00000  Uiso   1.00
H806   H     0.88143   0.06290   0.82764   0.00000  Uiso   1.00
H807   H     0.83735   0.05357   0.84868   0.00000  Uiso   1.00
H808   H     0.62294   0.16497   0.16121   0.00000  Uiso   1.00
H809   H     0.58521   0.11201   0.14401   0.00000  Uiso   1.00
H810   H     0.56217   0.15465   0.13514   0.00000  Uiso   1.00
H811   H     0.55136   0.12821   0.17768   0.00000  Uiso   1.00
H812   H     0.87488   0.33140   0.83742   0.00000  Uiso   1.00
H813   H     0.91454   0.36799   0.87126   0.00000  Uiso   1.00
H814   H     0.93751   0.38172   0.82716   0.00000  Uiso   1.00
H815   H     0.52510   0.19700   0.90221   0.00000  Uiso   1.00
H816   H     0.94678   0.33782   0.84868   0.00000  Uiso   1.00
H817   H     0.83478   0.12320   0.16134   0.00000  Uiso   1.00
H818   H     0.88771   0.08552   0.14388   0.00000  Uiso   1.00
H819   H     0.84504   0.06253   0.13501   0.00000  Uiso   1.00
H820   H     0.87155   0.05156   0.17744   0.00000  Uiso   1.00
H821   H     0.66845   0.37502   0.83748   0.00000  Uiso   1.00
H822   H     0.63184   0.41473   0.87123   0.00000  Uiso   1.00
H823   H     0.61817   0.43765   0.82708   0.00000  Uiso   1.00
H824   H     0.66204   0.44694   0.84864   0.00000  Uiso   1.00
H825   H     0.87706   0.33505   0.16121   0.00000  Uiso   1.00
H826   H     0.95110   0.28244   0.59774   0.00000  Uiso   1.00
H827   H     0.94864   0.37180   0.17767   0.00000  Uiso   1.00
H828   H     0.93781   0.34540   0.13512   0.00000  Uiso   1.00
H829   H     0.91478   0.38803   0.14404   0.00000  Uiso   1.00
H830   H     0.62490   0.16837   0.83752   0.00000  Uiso   1.00
H831   H     0.58518   0.13173   0.87121   0.00000  Uiso   1.00
H832   H     0.56235   0.11802   0.82703   0.00000  Uiso   1.00
H833   H     0.55296   0.16188   0.84857   0.00000  Uiso   1.00
H834   H     0.66848   0.12427   0.83749   0.00000  Uiso   1.00
H835   H     0.66198   0.05336   0.85005   0.00000  Uiso   1.00
H836   H     0.61907   0.06073   0.82557   0.00000  Uiso   1.00
N837   N     0.65645   0.39818   0.17891   0.00000  Uiso   1.00
N838   N     0.83933   0.39538   0.18003   0.00000  Uiso   1.00
N839   N     0.60330   0.34145   0.82063   0.00000  Uiso   1.00
N840   N     0.89517   0.16088   0.18008   0.00000  Uiso   1.00
N841   N     0.84127   0.39652   0.82059   0.00000  Uiso   1.00
N842   N     0.66065   0.10461   0.18001   0.00000  Uiso   1.00
N843   N     0.89637   0.15887   0.82057   0.00000  Uiso   1.00
N844   N     0.60456   0.33939   0.18001   0.00000  Uiso   1.00
N845   N     0.90673   0.14791   0.67896   0.00000  Uiso   1.00
N846   N     0.59123   0.35387   0.32080   0.00000  Uiso   1.00
N847   N     0.85188   0.40652   0.67892   0.00000  Uiso   1.00
N848   N     0.84089   0.10418   0.82072   0.00000  Uiso   1.00
N849   N     0.64600   0.09108   0.32076   0.00000  Uiso   1.00
N850   N     0.59370   0.35168   0.67889   0.00000  Uiso   1.00
N851   N     0.90912   0.14580   0.32072   0.00000  Uiso   1.00
N852   N     0.64834   0.09373   0.67888   0.00000  Uiso   1.00
N853   N     0.85393   0.40883   0.32079   0.00000  Uiso   1.00
N854   N     0.90875   0.35348   0.32059   0.00000  Uiso   1.00
N855   N     0.58960   0.14565   0.67995   0.00000  Uiso   1.00
N856   N     0.85366   0.09108   0.32055   0.00000  Uiso   1.00
N857   N     0.64560   0.41045   0.67996   0.00000  Uiso   1.00
N858   N     0.59129   0.14652   0.32059   0.00000  Uiso   1.00
N859   N     0.60189   0.15652   0.17892   0.00000  Uiso   1.00
N860   N     0.91067   0.35463   0.68003   0.00000  Uiso   1.00
N861   N     0.64658   0.40867   0.32060   0.00000  Uiso   1.00
N862   N     0.85482   0.08913   0.68008   0.00000  Uiso   1.00
N863   N     0.89612   0.34120   0.82079   0.00000  Uiso   1.00
N864   N     0.84327   0.10210   0.17895   0.00000  Uiso   1.00
N865   N     0.65867   0.39624   0.82082   0.00000  Uiso   1.00
N866   N     0.89811   0.34349   0.17892   0.00000  Uiso   1.00
N867   N     0.60370   0.15860   0.82083   0.00000  Uiso   1.00
N868   N     0.65852   0.10327   0.82063   0.00000  Uiso   1.00
O869   O     0.75000   0.00000   0.25000   0.00000  Uiso   1.00
O870   O     0.75000   0.46964   0.66317   0.00000  Uiso   1.00
O871   O     0.96964   0.25000   0.33683   0.00000  Uiso   1.00
O872   O     0.53036   0.25000   0.66317   0.00000  Uiso   1.00
O873   O     0.50000   0.21964   0.83683   0.00000  Uiso   1.00
O874   O     0.50000   0.28036   0.16317   0.00000  Uiso   1.00
O875   O     0.78036   0.00000   0.83683   0.00000  Uiso   1.00
O876   O     0.71964  -0.00000   0.16317   0.00000  Uiso   1.00
O877   O     0.50000   0.28036   0.83683   0.00000  Uiso   1.00
O878   O     0.50000   0.21964   0.16317   0.00000  Uiso   1.00
O879   O     0.71964   0.00000   0.83683   0.00000  Uiso   1.00
O880   O     0.75000  -0.00000   0.75000   0.00000  Uiso   1.00
O881   O     0.78036  -0.00000   0.16317   0.00000  Uiso   1.00
O882   O     0.70726   0.07307   0.27282   0.00000  Uiso   1.00
O883   O     0.79275   0.42693   0.72718   0.00000  Uiso   1.00
O884   O     0.92693   0.20726   0.27282   0.00000  Uiso   1.00
O885   O     0.57307   0.29275   0.72718   0.00000  Uiso   1.00
O886   O     0.79275   0.42693   0.27282   0.00000  Uiso   1.00
O887   O     0.70726   0.07307   0.72718   0.00000  Uiso   1.00
O888   O     0.57307   0.29275   0.27282   0.00000  Uiso   1.00
O889   O     0.92693   0.20726   0.72718   0.00000  Uiso   1.00
O890   O     0.70726   0.42693   0.72718   0.00000  Uiso   1.00
O891   O     0.50000   0.25000   0.25000   0.00000  Uiso   1.00
O892   O     0.79275   0.07307   0.27282   0.00000  Uiso   1.00
O893   O     0.92693   0.29275   0.72718   0.00000  Uiso   1.00
O894   O     0.57307   0.20726   0.27282   0.00000  Uiso   1.00
O895   O     0.79275   0.07307   0.72718   0.00000  Uiso   1.00
O896   O     0.70726   0.42693   0.27282   0.00000  Uiso   1.00
O897   O     0.57307   0.20726   0.72718   0.00000  Uiso   1.00
O898   O     0.92693   0.29275   0.27282   0.00000  Uiso   1.00
O899   O     0.95726   0.32307   0.77282   0.00000  Uiso   1.00
O900   O     0.54275   0.17693   0.22718   0.00000  Uiso   1.00
O901   O     0.67693   0.45726   0.77282   0.00000  Uiso   1.00
O902   O     0.50000   0.25000   0.75000   0.00000  Uiso   1.00
O903   O     0.82307   0.04274   0.22718   0.00000  Uiso   1.00
O904   O     0.54275   0.17693   0.77282   0.00000  Uiso   1.00
O905   O     0.95726   0.32307   0.22718   0.00000  Uiso   1.00
O906   O     0.82307   0.04274   0.77282   0.00000  Uiso   1.00
O907   O     0.67693   0.45726   0.22718   0.00000  Uiso   1.00
O908   O     0.95726   0.17693   0.22718   0.00000  Uiso   1.00
O909   O     0.54275   0.32307   0.77282   0.00000  Uiso   1.00
O910   O     0.67693   0.04274   0.22718   0.00000  Uiso   1.00
O911   O     0.82307   0.45726   0.77282   0.00000  Uiso   1.00
O912   O     0.54275   0.32307   0.22718   0.00000  Uiso   1.00
O913   O     0.75000   0.46964   0.33683   0.00000  Uiso   1.00
O914   O     0.95726   0.17693   0.77282   0.00000  Uiso   1.00
O915   O     0.82307   0.45726   0.22718   0.00000  Uiso   1.00
O916   O     0.67693   0.04274   0.77282   0.00000  Uiso   1.00
O917   O     0.69573   0.03799   0.02172   0.00000  Uiso   1.00
O918   O     0.80869   0.03031   0.97875   0.00000  Uiso   1.00
O919   O     0.96270   0.19545   0.02200   0.00000  Uiso   1.00
O920   O     0.96905   0.30818   0.97932   0.00000  Uiso   1.00
O921   O     0.80424   0.46242   0.02188   0.00000  Uiso   1.00
O922   O     0.69132   0.46989   0.97916   0.00000  Uiso   1.00
O923   O     0.53755   0.30457   0.02194   0.00000  Uiso   1.00
O924   O     0.75000   0.03036   0.66317   0.00000  Uiso   1.00
O925   O     0.53114   0.19181   0.97908   0.00000  Uiso   1.00
O926   O     0.94631   0.28821   0.52198   0.00000  Uiso   1.00
O927   O     0.55893   0.27968   0.47939   0.00000  Uiso   1.00
O928   O     0.71151   0.44595   0.52164   0.00000  Uiso   1.00
O929   O     0.71975   0.05876   0.47859   0.00000  Uiso   1.00
O930   O     0.55368   0.21109   0.52138   0.00000  Uiso   1.00
O931   O     0.94107   0.22018   0.47843   0.00000  Uiso   1.00
O932   O     0.78774   0.05401   0.52195   0.00000  Uiso   1.00
O933   O     0.77987   0.44126   0.47940   0.00000  Uiso   1.00
O934   O     0.53036   0.25000   0.33683   0.00000  Uiso   1.00
O935   O     0.96964   0.25000   0.66317   0.00000  Uiso   1.00
O936   O     0.75000   0.03036   0.33683   0.00000  Uiso   1.00
Zn937  Zn    0.70660   0.00000   0.21760   0.00000  Uiso   1.00
Zn938  Zn    0.54340   0.25000   0.28240   0.00000  Uiso   1.00
Zn939  Zn    0.75000   0.45660   0.71760   0.00000  Uiso   1.00
Zn940  Zn    0.75000   0.04340   0.28240   0.00000  Uiso   1.00
Zn941  Zn    0.54340   0.25000   0.71760   0.00000  Uiso   1.00
Zn942  Zn    0.95660   0.25000   0.28240   0.00000  Uiso   1.00
Zn943  Zn    0.75000   0.04340   0.71760   0.00000  Uiso   1.00
Zn944  Zn    0.75000   0.45660   0.28240   0.00000  Uiso   1.00
Zn945  Zn    0.79340  -0.00000   0.78240   0.00000  Uiso   1.00
Zn946  Zn    0.50000   0.20660   0.21760   0.00000  Uiso   1.00
Zn947  Zn    0.50000   0.29340   0.78240   0.00000  Uiso   1.00
Zn948  Zn    0.79340   0.00000   0.21760   0.00000  Uiso   1.00
Zn949  Zn    0.70660  -0.00000   0.78240   0.00000  Uiso   1.00
Zn950  Zn    0.50000   0.29340   0.21760   0.00000  Uiso   1.00
Zn951  Zn    0.50000   0.20660   0.78240   0.00000  Uiso   1.00
Zn952  Zn    0.95660   0.25000   0.71760   0.00000  Uiso   1.00
C953   C     0.22280   0.51957   0.04180   0.00000  Uiso   1.00
C954   C     0.02975   0.76536   0.45862   0.00000  Uiso   1.00
C955   C     0.34789   0.90155   0.74990   0.00000  Uiso   1.00
C956   C     0.40167   0.65223   0.25028   0.00000  Uiso   1.00
C957   C     0.09845   0.84789   0.74990   0.00000  Uiso   1.00
C958   C     0.34776   0.90166   0.25028   0.00000  Uiso   1.00
C959   C     0.15211   0.59846   0.74989   0.00000  Uiso   1.00
C960   C     0.09775   0.65166   0.75027   0.00000  Uiso   1.00
C961   C     0.40211   0.84845   0.24990   0.00000  Uiso   1.00
C962   C     0.15166   0.90224   0.75027   0.00000  Uiso   1.00
C963   C     0.34845   0.59789   0.24990   0.00000  Uiso   1.00
C964   C     0.40224   0.84834   0.75028   0.00000  Uiso   1.00
C965   C     0.23005   0.97290   0.54181   0.00000  Uiso   1.00
C966   C     0.09790   0.65155   0.24990   0.00000  Uiso   1.00
C967   C     0.34833   0.59777   0.75028   0.00000  Uiso   1.00
C968   C     0.15155   0.90211   0.24990   0.00000  Uiso   1.00
C969   C     0.25000   0.50011   0.10255   0.00000  Uiso   1.00
C970   C     0.25000   0.50001   0.89763   0.00000  Uiso   1.00
C971   C     0.00006   0.75000   0.10253   0.00000  Uiso   1.00
C972   C     0.00003   0.75000   0.89764   0.00000  Uiso   1.00
C973   C     0.49999   0.74979   0.60255   0.00000  Uiso   1.00
C974   C     0.00001   0.75005   0.39765   0.00000  Uiso   1.00
C975   C     0.24979   0.50001   0.60255   0.00000  Uiso   1.00
C976   C     0.23429   0.52945   0.45845   0.00000  Uiso   1.00
C977   C     0.24997   0.99999   0.39764   0.00000  Uiso   1.00
C978   C     0.20066   0.57589   0.02675   0.00000  Uiso   1.00
C979   C     0.31102   0.56812   0.97131   0.00000  Uiso   1.00
C980   C     0.42526   0.70434   0.02127   0.00000  Uiso   1.00
C981   C     0.43269   0.81460   0.96752   0.00000  Uiso   1.00
C982   C     0.29642   0.92474   0.02321   0.00000  Uiso   1.00
C983   C     0.18608   0.93295   0.96886   0.00000  Uiso   1.00
C984   C     0.07531   0.79725   0.02355   0.00000  Uiso   1.00
C985   C     0.06815   0.68711   0.96877   0.00000  Uiso   1.00
C986   C     0.45603   0.82544   0.52123   0.00000  Uiso   1.00
C987   C     0.02696   0.72982   0.54178   0.00000  Uiso   1.00
C988   C     0.06620   0.81587   0.46759   0.00000  Uiso   1.00
C989   C     0.17368   0.94968   0.52828   0.00000  Uiso   1.00
C990   C     0.18167   0.55990   0.47256   0.00000  Uiso   1.00
C991   C     0.05193   0.67354   0.53036   0.00000  Uiso   1.00
C992   C     0.44181   0.68183   0.47492   0.00000  Uiso   1.00
C993   C     0.32504   0.54456   0.52115   0.00000  Uiso   1.00
C994   C     0.31613   0.93425   0.46765   0.00000  Uiso   1.00
C995   C     0.13665   0.92628   0.15806   0.00000  Uiso   1.00
C996   C     0.35780   0.57525   0.84310   0.00000  Uiso   1.00
C997   C     0.07379   0.63675   0.15802   0.00000  Uiso   1.00
C998   C     0.47049   0.73462   0.45845   0.00000  Uiso   1.00
C999   C     0.42513   0.85826   0.84292   0.00000  Uiso   1.00
C1000  C     0.36298   0.57407   0.15789   0.00000  Uiso   1.00
C1001  C     0.14160   0.92529   0.84288   0.00000  Uiso   1.00
C1002  C     0.42620   0.86327   0.15802   0.00000  Uiso   1.00
C1003  C     0.07465   0.64147   0.84285   0.00000  Uiso   1.00
C1004  C     0.14120   0.57420   0.84244   0.00000  Uiso   1.00
C1005  C     0.30490   0.87675   0.17432   0.00000  Uiso   1.00
C1006  C     0.07423   0.85877   0.84244   0.00000  Uiso   1.00
C1007  C     0.37652   0.69532   0.17455   0.00000  Uiso   1.00
C1008  C     0.35852   0.92555   0.84253   0.00000  Uiso   1.00
C1009  C     0.26898   0.52708   0.54176   0.00000  Uiso   1.00
C1010  C     0.19508   0.62323   0.17429   0.00000  Uiso   1.00
C1011  C     0.42543   0.64169   0.84252   0.00000  Uiso   1.00
C1012  C     0.12319   0.80497   0.17426   0.00000  Uiso   1.00
C1013  C     0.38702   0.67594   0.65790   0.00000  Uiso   1.00
C1014  C     0.10827   0.82483   0.34292   0.00000  Uiso   1.00
C1015  C     0.32379   0.88673   0.65802   0.00000  Uiso   1.00
C1016  C     0.17498   0.60806   0.34301   0.00000  Uiso   1.00
C1017  C     0.11354   0.82354   0.65815   0.00000  Uiso   1.00
C1018  C     0.39222   0.67476   0.34307   0.00000  Uiso   1.00
C1019  C     0.17651   0.61357   0.65816   0.00000  Uiso   1.00
C1020  C     0.26538   0.97035   0.45862   0.00000  Uiso   1.00
C1021  C     0.32490   0.89181   0.34294   0.00000  Uiso   1.00
C1022  C     0.39150   0.82446   0.34253   0.00000  Uiso   1.00
C1023  C     0.05518   0.62707   0.67400   0.00000  Uiso   1.00
C1024  C     0.32466   0.60828   0.34258   0.00000  Uiso   1.00
C1025  C     0.12700   0.94487   0.67406   0.00000  Uiso   1.00
C1026  C     0.10855   0.67557   0.34249   0.00000  Uiso   1.00
C1027  C     0.44509   0.87327   0.67433   0.00000  Uiso   1.00
C1028  C     0.17562   0.89140   0.34250   0.00000  Uiso   1.00
C1029  C     0.37348   0.55469   0.67456   0.00000  Uiso   1.00
C1030  C     0.22223   0.51817   0.08235   0.00000  Uiso   1.00
C1031  C     0.27993   0.51409   0.91793   0.00000  Uiso   1.00
C1032  C     0.48221   0.72214   0.08225   0.00000  Uiso   1.00
C1033  C     0.27946   0.51571   0.95848   0.00000  Uiso   1.00
C1034  C     0.48558   0.77976   0.91793   0.00000  Uiso   1.00
C1035  C     0.27777   0.98215   0.08226   0.00000  Uiso   1.00
C1036  C     0.22005   0.98596   0.91795   0.00000  Uiso   1.00
C1037  C     0.01797   0.77786   0.08231   0.00000  Uiso   1.00
C1038  C     0.01452   0.72027   0.91792   0.00000  Uiso   1.00
C1039  C     0.47247   0.76808   0.58224   0.00000  Uiso   1.00
C1040  C     0.03007   0.76392   0.41795   0.00000  Uiso   1.00
C1041  C     0.23153   0.97234   0.58239   0.00000  Uiso   1.00
C1042  C     0.23593   0.52993   0.41793   0.00000  Uiso   1.00
C1043  C     0.02753   0.73132   0.58240   0.00000  Uiso   1.00
C1044  C     0.48109   0.72266   0.04177   0.00000  Uiso   1.00
C1045  C     0.47002   0.73615   0.41796   0.00000  Uiso   1.00
C1046  C     0.26788   0.52767   0.58223   0.00000  Uiso   1.00
C1047  C     0.26394   0.97000   0.41796   0.00000  Uiso   1.00
C1048  C     0.24997   0.50024   0.02143   0.00000  Uiso   1.00
C1049  C     0.24993   0.50019   0.97879   0.00000  Uiso   1.00
C1050  C     0.00016   0.75002   0.02141   0.00000  Uiso   1.00
C1051  C     0.00015   0.75005   0.97877   0.00000  Uiso   1.00
C1052  C     0.00011   0.74963   0.52145   0.00000  Uiso   1.00
C1053  C     0.00017   0.74978   0.47881   0.00000  Uiso   1.00
C1054  C     0.24955   0.99994   0.52144   0.00000  Uiso   1.00
C1055  C     0.48402   0.77933   0.95857   0.00000  Uiso   1.00
C1056  C     0.24965   0.99986   0.47879   0.00000  Uiso   1.00
C1057  C     0.25000   0.50000   0.35524   0.00000  Uiso   1.00
C1058  C     0.24999   0.50000   0.64483   0.00000  Uiso   1.00
C1059  C     0.00000   0.75001   0.35524   0.00000  Uiso   1.00
C1060  C    -0.00000   0.74998   0.64483   0.00000  Uiso   1.00
C1061  C     0.00000   0.75000   0.85524   0.00000  Uiso   1.00
C1062  C     0.00000   0.75000   0.14482   0.00000  Uiso   1.00
C1063  C     0.25000   0.50000   0.85524   0.00000  Uiso   1.00
C1064  C     0.25000   0.50001   0.14483   0.00000  Uiso   1.00
C1065  C     0.17988   0.56987   0.25031   0.00000  Uiso   1.00
C1066  C     0.27719   0.98096   0.04177   0.00000  Uiso   1.00
C1067  C     0.32003   0.92993   0.74993   0.00000  Uiso   1.00
C1068  C     0.43013   0.67987   0.25032   0.00000  Uiso   1.00
C1069  C     0.07007   0.82003   0.74993   0.00000  Uiso   1.00
C1070  C     0.32012   0.93013   0.25032   0.00000  Uiso   1.00
C1071  C     0.17997   0.57007   0.74993   0.00000  Uiso   1.00
C1072  C     0.06987   0.82013   0.25032   0.00000  Uiso   1.00
C1073  C     0.42993   0.67997   0.74993   0.00000  Uiso   1.00
C1074  C     0.18013   0.92988   0.75031   0.00000  Uiso   1.00
C1075  C     0.32007   0.57003   0.24993   0.00000  Uiso   1.00
C1076  C     0.42988   0.81987   0.75032   0.00000  Uiso   1.00
C1077  C     0.22044   0.98446   0.95857   0.00000  Uiso   1.00
C1078  C     0.07003   0.67993   0.24993   0.00000  Uiso   1.00
C1079  C     0.31987   0.57013   0.75032   0.00000  Uiso   1.00
C1080  C     0.17993   0.92997   0.24993   0.00000  Uiso   1.00
C1081  C     0.07012   0.68012   0.75031   0.00000  Uiso   1.00
C1082  C     0.42997   0.82007   0.24993   0.00000  Uiso   1.00
C1083  C     0.14005   0.88665   0.21441   0.00000  Uiso   1.00
C1084  C     0.35879   0.61415   0.78552   0.00000  Uiso   1.00
C1085  C     0.11339   0.64008   0.21441   0.00000  Uiso   1.00
C1086  C     0.38597   0.85892   0.78555   0.00000  Uiso   1.00
C1087  C     0.35982   0.61349   0.21442   0.00000  Uiso   1.00
C1088  C     0.01923   0.77735   0.04180   0.00000  Uiso   1.00
C1089  C     0.14099   0.88605   0.78556   0.00000  Uiso   1.00
C1090  C     0.38662   0.85993   0.21441   0.00000  Uiso   1.00
C1091  C     0.11392   0.64096   0.78556   0.00000  Uiso   1.00
C1092  C     0.14098   0.61388   0.78542   0.00000  Uiso   1.00
C1093  C     0.35813   0.88566   0.21484   0.00000  Uiso   1.00
C1094  C     0.11390   0.85900   0.78543   0.00000  Uiso   1.00
C1095  C     0.38556   0.64197   0.21486   0.00000  Uiso   1.00
C1096  C     0.35891   0.88601   0.78541   0.00000  Uiso   1.00
C1097  C     0.14187   0.61434   0.21483   0.00000  Uiso   1.00
C1098  C     0.38592   0.64118   0.78540   0.00000  Uiso   1.00
C1099  C     0.01617   0.72074   0.95852   0.00000  Uiso   1.00
C1100  C     0.11431   0.85816   0.21483   0.00000  Uiso   1.00
C1101  C     0.39018   0.63652   0.71443   0.00000  Uiso   1.00
C1102  C     0.10895   0.86401   0.28555   0.00000  Uiso   1.00
C1103  C     0.36338   0.89008   0.71441   0.00000  Uiso   1.00
C1104  C     0.13594   0.60889   0.28554   0.00000  Uiso   1.00
C1105  C     0.11003   0.86328   0.71440   0.00000  Uiso   1.00
C1106  C     0.39122   0.63583   0.28552   0.00000  Uiso   1.00
C1107  C     0.13673   0.61005   0.71439   0.00000  Uiso   1.00
C1108  C     0.36404   0.89108   0.28555   0.00000  Uiso   1.00
C1109  C     0.39110   0.86399   0.28541   0.00000  Uiso   1.00
C1110  C     0.47310   0.76923   0.54178   0.00000  Uiso   1.00
C1111  C     0.10825   0.63579   0.71480   0.00000  Uiso   1.00
C1112  C     0.36410   0.60880   0.28539   0.00000  Uiso   1.00
C1113  C     0.13576   0.89177   0.71481   0.00000  Uiso   1.00
C1114  C     0.10890   0.63600   0.28541   0.00000  Uiso   1.00
C1115  C     0.39186   0.86434   0.71484   0.00000  Uiso   1.00
C1116  C     0.13604   0.89106   0.28542   0.00000  Uiso   1.00
C1117  C     0.36444   0.60803   0.71486   0.00000  Uiso   1.00
C1118  C     0.09834   0.84776   0.25028   0.00000  Uiso   1.00
C1119  C     0.40155   0.65210   0.74990   0.00000  Uiso   1.00
C1120  C     0.15224   0.59833   0.25027   0.00000  Uiso   1.00
H1121  H     0.20056   0.53186   0.09804   0.00000  Uiso   1.00
H1122  H     0.05349   0.77407   0.40218   0.00000  Uiso   1.00
H1123  H     0.12958   0.58509   0.86982   0.00000  Uiso   1.00
H1124  H     0.35496   0.89601   0.15525   0.00000  Uiso   1.00
H1125  H     0.30953   0.84698   0.17052   0.00000  Uiso   1.00
H1126  H     0.29130   0.88760   0.14793   0.00000  Uiso   1.00
H1127  H     0.28643   0.88126   0.19942   0.00000  Uiso   1.00
H1128  H     0.12430   0.83150   0.83749   0.00000  Uiso   1.00
H1129  H     0.05341   0.83797   0.85010   0.00000  Uiso   1.00
H1130  H     0.06072   0.88085   0.82555   0.00000  Uiso   1.00
H1131  H     0.08513   0.87043   0.86979   0.00000  Uiso   1.00
H1132  H     0.39572   0.64532   0.15525   0.00000  Uiso   1.00
H1133  H     0.21784   0.95072   0.59817   0.00000  Uiso   1.00
H1134  H     0.34674   0.69070   0.17083   0.00000  Uiso   1.00
H1135  H     0.38729   0.70901   0.14818   0.00000  Uiso   1.00
H1136  H     0.38110   0.71372   0.19970   0.00000  Uiso   1.00
H1137  H     0.33129   0.87548   0.83737   0.00000  Uiso   1.00
H1138  H     0.33769   0.94635   0.85016   0.00000  Uiso   1.00
H1139  H     0.38065   0.93910   0.82574   0.00000  Uiso   1.00
H1140  H     0.37010   0.91460   0.86990   0.00000  Uiso   1.00
H1141  H     0.14501   0.60398   0.15525   0.00000  Uiso   1.00
H1142  H     0.19047   0.65300   0.17048   0.00000  Uiso   1.00
H1143  H     0.20867   0.61237   0.14790   0.00000  Uiso   1.00
H1144  H     0.22553   0.55339   0.40236   0.00000  Uiso   1.00
H1145  H     0.21356   0.61872   0.19938   0.00000  Uiso   1.00
H1146  H     0.37531   0.66881   0.83735   0.00000  Uiso   1.00
H1147  H     0.44599   0.66264   0.85051   0.00000  Uiso   1.00
H1148  H     0.43929   0.61985   0.82559   0.00000  Uiso   1.00
H1149  H     0.41443   0.62974   0.86968   0.00000  Uiso   1.00
H1150  H     0.10391   0.85505   0.15525   0.00000  Uiso   1.00
H1151  H     0.15295   0.80960   0.17042   0.00000  Uiso   1.00
H1152  H     0.11231   0.79140   0.14786   0.00000  Uiso   1.00
H1153  H     0.11870   0.78648   0.19934   0.00000  Uiso   1.00
H1154  H     0.41522   0.62681   0.66134   0.00000  Uiso   1.00
H1155  H     0.04904   0.71757   0.59825   0.00000  Uiso   1.00
H1156  H     0.40496   0.68748   0.63501   0.00000  Uiso   1.00
H1157  H     0.36229   0.66449   0.64389   0.00000  Uiso   1.00
H1158  H     0.37845   0.69845   0.67745   0.00000  Uiso   1.00
H1159  H     0.08145   0.87510   0.33743   0.00000  Uiso   1.00
H1160  H     0.11807   0.83541   0.37122   0.00000  Uiso   1.00
H1161  H     0.13166   0.81239   0.32712   0.00000  Uiso   1.00
H1162  H     0.08778   0.80323   0.34873   0.00000  Uiso   1.00
H1163  H     0.37293   0.91496   0.66121   0.00000  Uiso   1.00
H1164  H     0.33521   0.86197   0.64404   0.00000  Uiso   1.00
H1165  H     0.31218   0.90461   0.63512   0.00000  Uiso   1.00
H1166  H     0.44654   0.72566   0.40248   0.00000  Uiso   1.00
H1167  H     0.30135   0.87820   0.67768   0.00000  Uiso   1.00
H1168  H     0.12472   0.58124   0.33729   0.00000  Uiso   1.00
H1169  H     0.16436   0.61759   0.37142   0.00000  Uiso   1.00
H1170  H     0.18732   0.63163   0.32742   0.00000  Uiso   1.00
H1171  H     0.19666   0.58762   0.34864   0.00000  Uiso   1.00
H1172  H     0.08530   0.87268   0.66108   0.00000  Uiso   1.00
H1173  H     0.13832   0.83492   0.64417   0.00000  Uiso   1.00
H1174  H     0.09571   0.81183   0.63526   0.00000  Uiso   1.00
H1175  H     0.12205   0.80117   0.67791   0.00000  Uiso   1.00
H1176  H     0.41897   0.62448   0.33719   0.00000  Uiso   1.00
H1177  H     0.28210   0.54914   0.59772   0.00000  Uiso   1.00
H1178  H     0.38273   0.66410   0.37147   0.00000  Uiso   1.00
H1179  H     0.36864   0.68716   0.32756   0.00000  Uiso   1.00
H1180  H     0.41271   0.69640   0.34870   0.00000  Uiso   1.00
H1181  H     0.12735   0.58535   0.66106   0.00000  Uiso   1.00
H1182  H     0.19886   0.62208   0.67794   0.00000  Uiso   1.00
H1183  H     0.18824   0.59574   0.63528   0.00000  Uiso   1.00
H1184  H     0.16513   0.63834   0.64416   0.00000  Uiso   1.00
H1185  H     0.37518   0.91861   0.33740   0.00000  Uiso   1.00
H1186  H     0.33550   0.88202   0.37124   0.00000  Uiso   1.00
H1187  H     0.31245   0.86840   0.32716   0.00000  Uiso   1.00
H1188  H     0.27420   0.94662   0.40221   0.00000  Uiso   1.00
H1189  H     0.30331   0.91230   0.34875   0.00000  Uiso   1.00
H1190  H     0.41874   0.87453   0.33736   0.00000  Uiso   1.00
H1191  H     0.41232   0.80365   0.35015   0.00000  Uiso   1.00
H1192  H     0.36935   0.81092   0.32576   0.00000  Uiso   1.00
H1193  H     0.37993   0.83541   0.36990   0.00000  Uiso   1.00
H1194  H     0.10533   0.64637   0.65525   0.00000  Uiso   1.00
H1195  H     0.05980   0.59731   0.67008   0.00000  Uiso   1.00
H1196  H     0.04170   0.63803   0.64759   0.00000  Uiso   1.00
H1197  H     0.03661   0.63149   0.69902   0.00000  Uiso   1.00
H1198  H     0.37473   0.58108   0.33728   0.00000  Uiso   1.00
H1199  H     0.22890   0.58456   0.01903   0.00000  Uiso   1.00
H1200  H     0.30398   0.58740   0.35038   0.00000  Uiso   1.00
H1201  H     0.31096   0.63032   0.32578   0.00000  Uiso   1.00
H1202  H     0.33569   0.62000   0.36985   0.00000  Uiso   1.00
H1203  H     0.14630   0.89474   0.65525   0.00000  Uiso   1.00
H1204  H     0.09724   0.94024   0.67016   0.00000  Uiso   1.00
H1205  H     0.13794   0.95837   0.64766   0.00000  Uiso   1.00
H1206  H     0.13144   0.96342   0.69910   0.00000  Uiso   1.00
H1207  H     0.08133   0.62549   0.33740   0.00000  Uiso   1.00
H1208  H     0.08770   0.69630   0.35026   0.00000  Uiso   1.00
H1209  H     0.13057   0.68921   0.32561   0.00000  Uiso   1.00
H1210  H     0.19398   0.58439   0.05689   0.00000  Uiso   1.00
H1211  H     0.12030   0.66461   0.36978   0.00000  Uiso   1.00
H1212  H     0.39503   0.85400   0.65525   0.00000  Uiso   1.00
H1213  H     0.44046   0.90304   0.67053   0.00000  Uiso   1.00
H1214  H     0.45870   0.86242   0.64794   0.00000  Uiso   1.00
H1215  H     0.46356   0.86876   0.69943   0.00000  Uiso   1.00
H1216  H     0.12555   0.91865   0.33740   0.00000  Uiso   1.00
H1217  H     0.19644   0.91221   0.35012   0.00000  Uiso   1.00
H1218  H     0.18914   0.86926   0.32570   0.00000  Uiso   1.00
H1219  H     0.16469   0.87982   0.36988   0.00000  Uiso   1.00
H1220  H     0.35427   0.60469   0.65525   0.00000  Uiso   1.00
H1221  H     0.18165   0.59043   0.00702   0.00000  Uiso   1.00
H1222  H     0.40326   0.55931   0.67084   0.00000  Uiso   1.00
H1223  H     0.36271   0.54101   0.64818   0.00000  Uiso   1.00
H1224  H     0.36890   0.53629   0.69970   0.00000  Uiso   1.00
H1225  H     0.30337   0.52447   0.90232   0.00000  Uiso   1.00
H1226  H     0.28427   0.58206   0.97548   0.00000  Uiso   1.00
H1227  H     0.32174   0.57345   0.94168   0.00000  Uiso   1.00
H1228  H     0.33054   0.58032   0.99223   0.00000  Uiso   1.00
H1229  H     0.42049   0.73121   0.00701   0.00000  Uiso   1.00
H1230  H     0.41337   0.70422   0.05098   0.00000  Uiso   1.00
H1231  H     0.41067   0.68334   0.00402   0.00000  Uiso   1.00
H1232  H     0.41693   0.78881   0.96370   0.00000  Uiso   1.00
H1233  H     0.43198   0.83114   0.94053   0.00000  Uiso   1.00
H1234  H     0.41880   0.83067   0.99045   0.00000  Uiso   1.00
H1235  H     0.26892   0.91870   0.01100   0.00000  Uiso   1.00
H1236  H     0.46827   0.70051   0.09778   0.00000  Uiso   1.00
H1237  H     0.29865   0.91394   0.05330   0.00000  Uiso   1.00
H1238  H     0.31679   0.91012   0.00517   0.00000  Uiso   1.00
H1239  H     0.21226   0.91746   0.96779   0.00000  Uiso   1.00
H1240  H     0.17135   0.93068   0.94079   0.00000  Uiso   1.00
H1241  H     0.16874   0.91991   0.99132   0.00000  Uiso   1.00
H1242  H     0.08178   0.76976   0.01156   0.00000  Uiso   1.00
H1243  H     0.08592   0.79980   0.05368   0.00000  Uiso   1.00
H1244  H     0.08976   0.81771   0.00546   0.00000  Uiso   1.00
H1245  H     0.08327   0.71351   0.96779   0.00000  Uiso   1.00
H1246  H     0.07063   0.67251   0.94064   0.00000  Uiso   1.00
H1247  H     0.47499   0.80299   0.90217   0.00000  Uiso   1.00
H1248  H     0.08144   0.66988   0.99116   0.00000  Uiso   1.00
H1249  H     0.48300   0.82961   0.50697   0.00000  Uiso   1.00
H1250  H     0.45618   0.83734   0.55094   0.00000  Uiso   1.00
H1251  H     0.43536   0.84048   0.50398   0.00000  Uiso   1.00
H1252  H     0.04079   0.83222   0.46372   0.00000  Uiso   1.00
H1253  H     0.08281   0.81620   0.44063   0.00000  Uiso   1.00
H1254  H     0.08254   0.82940   0.49055   0.00000  Uiso   1.00
H1255  H     0.16412   0.97811   0.52294   0.00000  Uiso   1.00
H1256  H     0.16629   0.94083   0.55811   0.00000  Uiso   1.00
H1257  H     0.15894   0.93164   0.50771   0.00000  Uiso   1.00
H1258  H     0.29936   0.96817   0.09781   0.00000  Uiso   1.00
H1259  H     0.16856   0.53314   0.47902   0.00000  Uiso   1.00
H1260  H     0.17504   0.56876   0.44253   0.00000  Uiso   1.00
H1261  H     0.16976   0.58032   0.49268   0.00000  Uiso   1.00
H1262  H     0.02348   0.66283   0.52905   0.00000  Uiso   1.00
H1263  H     0.06421   0.66793   0.55923   0.00000  Uiso   1.00
H1264  H     0.06818   0.65833   0.50853   0.00000  Uiso   1.00
H1265  H     0.46838   0.67034   0.48481   0.00000  Uiso   1.00
H1266  H     0.43591   0.67311   0.44466   0.00000  Uiso   1.00
H1267  H     0.42018   0.67023   0.49377   0.00000  Uiso   1.00
H1268  H     0.32938   0.51764   0.50686   0.00000  Uiso   1.00
H1269  H     0.19665   0.97564   0.90224   0.00000  Uiso   1.00
H1270  H     0.33698   0.54447   0.55084   0.00000  Uiso   1.00
H1271  H     0.33992   0.56535   0.50390   0.00000  Uiso   1.00
H1272  H     0.33231   0.95978   0.46384   0.00000  Uiso   1.00
H1273  H     0.31661   0.91768   0.44067   0.00000  Uiso   1.00
H1274  H     0.32974   0.91798   0.49062   0.00000  Uiso   1.00
H1275  H     0.16488   0.87715   0.16117   0.00000  Uiso   1.00
H1276  H     0.15451   0.93793   0.13516   0.00000  Uiso   1.00
H1277  H     0.11188   0.91487   0.14408   0.00000  Uiso   1.00
H1278  H     0.12813   0.94870   0.17774   0.00000  Uiso   1.00
H1279  H     0.33100   0.62550   0.83716   0.00000  Uiso   1.00
H1280  H     0.03177   0.79953   0.09791   0.00000  Uiso   1.00
H1281  H     0.36721   0.58592   0.87153   0.00000  Uiso   1.00
H1282  H     0.38143   0.56290   0.82764   0.00000  Uiso   1.00
H1283  H     0.33735   0.55357   0.84868   0.00000  Uiso   1.00
H1284  H     0.12294   0.66497   0.16121   0.00000  Uiso   1.00
H1285  H     0.08521   0.61201   0.14401   0.00000  Uiso   1.00
H1286  H     0.06217   0.65465   0.13514   0.00000  Uiso   1.00
H1287  H     0.05136   0.62821   0.17768   0.00000  Uiso   1.00
H1288  H     0.37488   0.83140   0.83742   0.00000  Uiso   1.00
H1289  H     0.41454   0.86799   0.87126   0.00000  Uiso   1.00
H1290  H     0.43751   0.88172   0.82716   0.00000  Uiso   1.00
H1291  H     0.02510   0.69700   0.90221   0.00000  Uiso   1.00
H1292  H     0.44678   0.83782   0.84868   0.00000  Uiso   1.00
H1293  H     0.33478   0.62320   0.16134   0.00000  Uiso   1.00
H1294  H     0.38771   0.58552   0.14388   0.00000  Uiso   1.00
H1295  H     0.34504   0.56253   0.13501   0.00000  Uiso   1.00
H1296  H     0.37155   0.55156   0.17744   0.00000  Uiso   1.00
H1297  H     0.16845   0.87502   0.83748   0.00000  Uiso   1.00
H1298  H     0.13184   0.91473   0.87123   0.00000  Uiso   1.00
H1299  H     0.11817   0.93765   0.82708   0.00000  Uiso   1.00
H1300  H     0.16204   0.94694   0.84864   0.00000  Uiso   1.00
H1301  H     0.37706   0.83505   0.16121   0.00000  Uiso   1.00
H1302  H     0.45110   0.78244   0.59774   0.00000  Uiso   1.00
H1303  H     0.44864   0.87180   0.17767   0.00000  Uiso   1.00
H1304  H     0.43781   0.84540   0.13512   0.00000  Uiso   1.00
H1305  H     0.41478   0.88803   0.14404   0.00000  Uiso   1.00
H1306  H     0.12490   0.66837   0.83752   0.00000  Uiso   1.00
H1307  H     0.08518   0.63173   0.87121   0.00000  Uiso   1.00
H1308  H     0.06235   0.61802   0.82703   0.00000  Uiso   1.00
H1309  H     0.05296   0.66188   0.84857   0.00000  Uiso   1.00
H1310  H     0.16848   0.62427   0.83749   0.00000  Uiso   1.00
H1311  H     0.16198   0.55336   0.85005   0.00000  Uiso   1.00
H1312  H     0.11907   0.56073   0.82557   0.00000  Uiso   1.00
N1313  N     0.15645   0.89818   0.17891   0.00000  Uiso   1.00
N1314  N     0.33933   0.89538   0.18003   0.00000  Uiso   1.00
N1315  N     0.10330   0.84145   0.82063   0.00000  Uiso   1.00
N1316  N     0.39517   0.66088   0.18008   0.00000  Uiso   1.00
N1317  N     0.34127   0.89652   0.82059   0.00000  Uiso   1.00
N1318  N     0.16065   0.60461   0.18001   0.00000  Uiso   1.00
N1319  N     0.39637   0.65887   0.82057   0.00000  Uiso   1.00
N1320  N     0.10456   0.83939   0.18001   0.00000  Uiso   1.00
N1321  N     0.40673   0.64791   0.67896   0.00000  Uiso   1.00
N1322  N     0.09123   0.85387   0.32080   0.00000  Uiso   1.00
N1323  N     0.35188   0.90652   0.67892   0.00000  Uiso   1.00
N1324  N     0.34089   0.60418   0.82072   0.00000  Uiso   1.00
N1325  N     0.14600   0.59108   0.32076   0.00000  Uiso   1.00
N1326  N     0.09370   0.85168   0.67889   0.00000  Uiso   1.00
N1327  N     0.40912   0.64580   0.32072   0.00000  Uiso   1.00
N1328  N     0.14834   0.59373   0.67888   0.00000  Uiso   1.00
N1329  N     0.35393   0.90883   0.32079   0.00000  Uiso   1.00
N1330  N     0.40875   0.85348   0.32059   0.00000  Uiso   1.00
N1331  N     0.08960   0.64565   0.67995   0.00000  Uiso   1.00
N1332  N     0.35366   0.59108   0.32055   0.00000  Uiso   1.00
N1333  N     0.14560   0.91045   0.67996   0.00000  Uiso   1.00
N1334  N     0.09129   0.64652   0.32059   0.00000  Uiso   1.00
N1335  N     0.10189   0.65652   0.17892   0.00000  Uiso   1.00
N1336  N     0.41067   0.85463   0.68003   0.00000  Uiso   1.00
N1337  N     0.14658   0.90867   0.32060   0.00000  Uiso   1.00
N1338  N     0.35482   0.58913   0.68008   0.00000  Uiso   1.00
N1339  N     0.39612   0.84120   0.82079   0.00000  Uiso   1.00
N1340  N     0.34327   0.60210   0.17895   0.00000  Uiso   1.00
N1341  N     0.15867   0.89624   0.82082   0.00000  Uiso   1.00
N1342  N     0.39811   0.84349   0.17892   0.00000  Uiso   1.00
N1343  N     0.10370   0.65860   0.82083   0.00000  Uiso   1.00
N1344  N     0.15852   0.60327   0.82063   0.00000  Uiso   1.00
O1345  O     0.25000   0.50000   0.25000   0.00000  Uiso   1.00
O1346  O     0.25000   0.96964   0.66317   0.00000  Uiso   1.00
O1347  O     0.46964   0.75000   0.33683   0.00000  Uiso   1.00
O1348  O     0.03036   0.75000   0.66317   0.00000  Uiso   1.00
O1349  O     0.00000   0.71964   0.83683   0.00000  Uiso   1.00
O1350  O     0.00000   0.78036   0.16317   0.00000  Uiso   1.00
O1351  O     0.28036   0.50000   0.83683   0.00000  Uiso   1.00
O1352  O     0.21964   0.50000   0.16317   0.00000  Uiso   1.00
O1353  O     0.00000   0.78036   0.83683   0.00000  Uiso   1.00
O1354  O     0.00000   0.71964   0.16317   0.00000  Uiso   1.00
O1355  O     0.21964   0.50000   0.83683   0.00000  Uiso   1.00
O1356  O     0.25000   0.50000   0.75000   0.00000  Uiso   1.00
O1357  O     0.28036   0.50000   0.16317   0.00000  Uiso   1.00
O1358  O     0.20726   0.57307   0.27282   0.00000  Uiso   1.00
O1359  O     0.29275   0.92693   0.72718   0.00000  Uiso   1.00
O1360  O     0.42693   0.70726   0.27282   0.00000  Uiso   1.00
O1361  O     0.07307   0.79275   0.72718   0.00000  Uiso   1.00
O1362  O     0.29275   0.92693   0.27282   0.00000  Uiso   1.00
O1363  O     0.20726   0.57307   0.72718   0.00000  Uiso   1.00
O1364  O     0.07307   0.79275   0.27282   0.00000  Uiso   1.00
O1365  O     0.42693   0.70726   0.72718   0.00000  Uiso   1.00
O1366  O     0.20726   0.92693   0.72718   0.00000  Uiso   1.00
O1367  O     0.00000   0.75000   0.25000   0.00000  Uiso   1.00
O1368  O     0.29275   0.57307   0.27282   0.00000  Uiso   1.00
O1369  O     0.42693   0.79275   0.72718   0.00000  Uiso   1.00
O1370  O     0.07307   0.70726   0.27282   0.00000  Uiso   1.00
O1371  O     0.29275   0.57307   0.72718   0.00000  Uiso   1.00
O1372  O     0.20726   0.92693   0.27282   0.00000  Uiso   1.00
O1373  O     0.07307   0.70726   0.72718   0.00000  Uiso   1.00
O1374  O     0.42693   0.79275   0.27282   0.00000  Uiso   1.00
O1375  O     0.45726   0.82307   0.77282   0.00000  Uiso   1.00
O1376  O     0.04275   0.67693   0.22718   0.00000  Uiso   1.00
O1377  O     0.17693   0.95726   0.77282   0.00000  Uiso   1.00
O1378  O     0.00000   0.75000   0.75000   0.00000  Uiso   1.00
O1379  O     0.32307   0.54274   0.22718   0.00000  Uiso   1.00
O1380  O     0.04275   0.67693   0.77282   0.00000  Uiso   1.00
O1381  O     0.45726   0.82307   0.22718   0.00000  Uiso   1.00
O1382  O     0.32307   0.54274   0.77282   0.00000  Uiso   1.00
O1383  O     0.17693   0.95726   0.22718   0.00000  Uiso   1.00
O1384  O     0.45726   0.67693   0.22718   0.00000  Uiso   1.00
O1385  O     0.04275   0.82307   0.77282   0.00000  Uiso   1.00
O1386  O     0.17693   0.54274   0.22718   0.00000  Uiso   1.00
O1387  O     0.32307   0.95726   0.77282   0.00000  Uiso   1.00
O1388  O     0.04275   0.82307   0.22718   0.00000  Uiso   1.00
O1389  O     0.25000   0.96964   0.33683   0.00000  Uiso   1.00
O1390  O     0.45726   0.67693   0.77282   0.00000  Uiso   1.00
O1391  O     0.32307   0.95726   0.22718   0.00000  Uiso   1.00
O1392  O     0.17693   0.54274   0.77282   0.00000  Uiso   1.00
O1393  O     0.19573   0.53799   0.02172   0.00000  Uiso   1.00
O1394  O     0.30869   0.53031   0.97875   0.00000  Uiso   1.00
O1395  O     0.46270   0.69545   0.02200   0.00000  Uiso   1.00
O1396  O     0.46905   0.80818   0.97932   0.00000  Uiso   1.00
O1397  O     0.30424   0.96242   0.02188   0.00000  Uiso   1.00
O1398  O     0.19132   0.96989   0.97916   0.00000  Uiso   1.00
O1399  O     0.03755   0.80457   0.02194   0.00000  Uiso   1.00
O1400  O     0.25000   0.53036   0.66317   0.00000  Uiso   1.00
O1401  O     0.03114   0.69181   0.97908   0.00000  Uiso   1.00
O1402  O     0.44631   0.78821   0.52198   0.00000  Uiso   1.00
O1403  O     0.05893   0.77968   0.47939   0.00000  Uiso   1.00
O1404  O     0.21151   0.94595   0.52164   0.00000  Uiso   1.00
O1405  O     0.21975   0.55876   0.47859   0.00000  Uiso   1.00
O1406  O     0.05368   0.71109   0.52138   0.00000  Uiso   1.00
O1407  O     0.44107   0.72018   0.47843   0.00000  Uiso   1.00
O1408  O     0.28774   0.55401   0.52195   0.00000  Uiso   1.00
O1409  O     0.27987   0.94126   0.47940   0.00000  Uiso   1.00
O1410  O     0.03036   0.75000   0.33683   0.00000  Uiso   1.00
O1411  O     0.46964   0.75000   0.66317   0.00000  Uiso   1.00
O1412  O     0.25000   0.53036   0.33683   0.00000  Uiso   1.00
Zn1413 Zn    0.20660   0.50000   0.21760   0.00000  Uiso   1.00
Zn1414 Zn    0.04340   0.75000   0.28240   0.00000  Uiso   1.00
Zn1415 Zn    0.25000   0.95660   0.71760   0.00000  Uiso   1.00
Zn1416 Zn    0.25000   0.54340   0.28240   0.00000  Uiso   1.00
Zn1417 Zn    0.04340   0.75000   0.71760   0.00000  Uiso   1.00
Zn1418 Zn    0.45660   0.75000   0.28240   0.00000  Uiso   1.00
Zn1419 Zn    0.25000   0.54340   0.71760   0.00000  Uiso   1.00
Zn1420 Zn    0.25000   0.95660   0.28240   0.00000  Uiso   1.00
Zn1421 Zn    0.29340   0.50000   0.78240   0.00000  Uiso   1.00
Zn1422 Zn    0.00000   0.70660   0.21760   0.00000  Uiso   1.00
Zn1423 Zn    0.00000   0.79340   0.78240   0.00000  Uiso   1.00
Zn1424 Zn    0.29340   0.50000   0.21760   0.00000  Uiso   1.00
Zn1425 Zn    0.20660   0.50000   0.78240   0.00000  Uiso   1.00
Zn1426 Zn    0.00000   0.79340   0.21760   0.00000  Uiso   1.00
Zn1427 Zn    0.00000   0.70660   0.78240   0.00000  Uiso   1.00
Zn1428 Zn    0.45660   0.75000   0.71760   0.00000  Uiso   1.00
C1429  C     0.72280   0.51957   0.04180   0.00000  Uiso   1.00
C1430  C     0.52975   0.76536   0.45862   0.00000  Uiso   1.00
C1431  C     0.84789   0.90155   0.74990   0.00000  Uiso   1.00
C1432  C     0.90167   0.65223   0.25028   0.00000  Uiso   1.00
C1433  C     0.59845   0.84789   0.74990   0.00000  Uiso   1.00
C1434  C     0.84776   0.90166   0.25028   0.00000  Uiso   1.00
C1435  C     0.65211   0.59846   0.74989   0.00000  Uiso   1.00
C1436  C     0.59775   0.65166   0.75027   0.00000  Uiso   1.00
C1437  C     0.90211   0.84845   0.24990   0.00000  Uiso   1.00
C1438  C     0.65166   0.90224   0.75027   0.00000  Uiso   1.00
C1439  C     0.84845   0.59789   0.24990   0.00000  Uiso   1.00
C1440  C     0.90224   0.84834   0.75028   0.00000  Uiso   1.00
C1441  C     0.73005   0.97290   0.54181   0.00000  Uiso   1.00
C1442  C     0.59790   0.65155   0.24990   0.00000  Uiso   1.00
C1443  C     0.84833   0.59777   0.75028   0.00000  Uiso   1.00
C1444  C     0.65155   0.90211   0.24990   0.00000  Uiso   1.00
C1445  C     0.75000   0.50011   0.10255   0.00000  Uiso   1.00
C1446  C     0.75000   0.50001   0.89763   0.00000  Uiso   1.00
C1447  C     0.50006   0.75000   0.10253   0.00000  Uiso   1.00
C1448  C     0.50003   0.75000   0.89764   0.00000  Uiso   1.00
C1449  C     0.99999   0.74979   0.60255   0.00000  Uiso   1.00
C1450  C     0.50001   0.75005   0.39765   0.00000  Uiso   1.00
C1451  C     0.74979   0.50001   0.60255   0.00000  Uiso   1.00
C1452  C     0.73429   0.52945   0.45845   0.00000  Uiso   1.00
C1453  C     0.74997   0.99999   0.39764   0.00000  Uiso   1.00
C1454  C     0.70066   0.57589   0.02675   0.00000  Uiso   1.00
C1455  C     0.81102   0.56812   0.97131   0.00000  Uiso   1.00
C1456  C     0.92526   0.70434   0.02127   0.00000  Uiso   1.00
C1457  C     0.93269   0.81460   0.96752   0.00000  Uiso   1.00
C1458  C     0.79642   0.92474   0.02321   0.00000  Uiso   1.00
C1459  C     0.68608   0.93295   0.96886   0.00000  Uiso   1.00
C1460  C     0.57531   0.79725   0.02355   0.00000  Uiso   1.00
C1461  C     0.56815   0.68711   0.96877   0.00000  Uiso   1.00
C1462  C     0.95603   0.82544   0.52123   0.00000  Uiso   1.00
C1463  C     0.52696   0.72982   0.54178   0.00000  Uiso   1.00
C1464  C     0.56620   0.81587   0.46759   0.00000  Uiso   1.00
C1465  C     0.67368   0.94968   0.52828   0.00000  Uiso   1.00
C1466  C     0.68167   0.55990   0.47256   0.00000  Uiso   1.00
C1467  C     0.55193   0.67354   0.53036   0.00000  Uiso   1.00
C1468  C     0.94181   0.68183   0.47492   0.00000  Uiso   1.00
C1469  C     0.82504   0.54456   0.52115   0.00000  Uiso   1.00
C1470  C     0.81613   0.93425   0.46765   0.00000  Uiso   1.00
C1471  C     0.63665   0.92628   0.15806   0.00000  Uiso   1.00
C1472  C     0.85780   0.57525   0.84310   0.00000  Uiso   1.00
C1473  C     0.57379   0.63675   0.15802   0.00000  Uiso   1.00
C1474  C     0.97049   0.73462   0.45845   0.00000  Uiso   1.00
C1475  C     0.92513   0.85826   0.84292   0.00000  Uiso   1.00
C1476  C     0.86298   0.57407   0.15789   0.00000  Uiso   1.00
C1477  C     0.64160   0.92529   0.84288   0.00000  Uiso   1.00
C1478  C     0.92620   0.86327   0.15802   0.00000  Uiso   1.00
C1479  C     0.57465   0.64147   0.84285   0.00000  Uiso   1.00
C1480  C     0.64120   0.57420   0.84244   0.00000  Uiso   1.00
C1481  C     0.80490   0.87675   0.17432   0.00000  Uiso   1.00
C1482  C     0.57423   0.85877   0.84244   0.00000  Uiso   1.00
C1483  C     0.87652   0.69532   0.17455   0.00000  Uiso   1.00
C1484  C     0.85852   0.92555   0.84253   0.00000  Uiso   1.00
C1485  C     0.76898   0.52708   0.54176   0.00000  Uiso   1.00
C1486  C     0.69508   0.62323   0.17429   0.00000  Uiso   1.00
C1487  C     0.92543   0.64169   0.84252   0.00000  Uiso   1.00
C1488  C     0.62319   0.80497   0.17426   0.00000  Uiso   1.00
C1489  C     0.88702   0.67594   0.65790   0.00000  Uiso   1.00
C1490  C     0.60827   0.82483   0.34292   0.00000  Uiso   1.00
C1491  C     0.82379   0.88673   0.65802   0.00000  Uiso   1.00
C1492  C     0.67498   0.60806   0.34301   0.00000  Uiso   1.00
C1493  C     0.61354   0.82354   0.65815   0.00000  Uiso   1.00
C1494  C     0.89222   0.67476   0.34307   0.00000  Uiso   1.00
C1495  C     0.67651   0.61357   0.65816   0.00000  Uiso   1.00
C1496  C     0.76538   0.97035   0.45862   0.00000  Uiso   1.00
C1497  C     0.82490   0.89181   0.34294   0.00000  Uiso   1.00
C1498  C     0.89150   0.82446   0.34253   0.00000  Uiso   1.00
C1499  C     0.55518   0.62707   0.67400   0.00000  Uiso   1.00
C1500  C     0.82466   0.60828   0.34258   0.00000  Uiso   1.00
C1501  C     0.62700   0.94487   0.67406   0.00000  Uiso   1.00
C1502  C     0.60855   0.67557   0.34249   0.00000  Uiso   1.00
C1503  C     0.94509   0.87327   0.67433   0.00000  Uiso   1.00
C1504  C     0.67562   0.89140   0.34250   0.00000  Uiso   1.00
C1505  C     0.87348   0.55469   0.67456   0.00000  Uiso   1.00
C1506  C     0.72223   0.51817   0.08235   0.00000  Uiso   1.00
C1507  C     0.77993   0.51409   0.91793   0.00000  Uiso   1.00
C1508  C     0.98221   0.72214   0.08225   0.00000  Uiso   1.00
C1509  C     0.77946   0.51571   0.95848   0.00000  Uiso   1.00
C1510  C     0.98558   0.77976   0.91793   0.00000  Uiso   1.00
C1511  C     0.77777   0.98215   0.08226   0.00000  Uiso   1.00
C1512  C     0.72005   0.98596   0.91795   0.00000  Uiso   1.00
C1513  C     0.51797   0.77786   0.08231   0.00000  Uiso   1.00
C1514  C     0.51452   0.72027   0.91792   0.00000  Uiso   1.00
C1515  C     0.97247   0.76808   0.58224   0.00000  Uiso   1.00
C1516  C     0.53007   0.76392   0.41795   0.00000  Uiso   1.00
C1517  C     0.73153   0.97234   0.58239   0.00000  Uiso   1.00
C1518  C     0.73593   0.52993   0.41793   0.00000  Uiso   1.00
C1519  C     0.52753   0.73132   0.58240   0.00000  Uiso   1.00
C1520  C     0.98109   0.72266   0.04177   0.00000  Uiso   1.00
C1521  C     0.97002   0.73615   0.41796   0.00000  Uiso   1.00
C1522  C     0.76788   0.52767   0.58223   0.00000  Uiso   1.00
C1523  C     0.76394   0.97000   0.41796   0.00000  Uiso   1.00
C1524  C     0.74997   0.50024   0.02143   0.00000  Uiso   1.00
C1525  C     0.74993   0.50019   0.97879   0.00000  Uiso   1.00
C1526  C     0.50016   0.75002   0.02141   0.00000  Uiso   1.00
C1527  C     0.50015   0.75005   0.97877   0.00000  Uiso   1.00
C1528  C     0.50011   0.74963   0.52145   0.00000  Uiso   1.00
C1529  C     0.50017   0.74978   0.47881   0.00000  Uiso   1.00
C1530  C     0.74955   0.99994   0.52144   0.00000  Uiso   1.00
C1531  C     0.98402   0.77933   0.95857   0.00000  Uiso   1.00
C1532  C     0.74965   0.99986   0.47879   0.00000  Uiso   1.00
C1533  C     0.75000   0.50000   0.35524   0.00000  Uiso   1.00
C1534  C     0.74999   0.50000   0.64483   0.00000  Uiso   1.00
C1535  C     0.50000   0.75001   0.35524   0.00000  Uiso   1.00
C1536  C     0.50000   0.74998   0.64483   0.00000  Uiso   1.00
C1537  C     0.50000   0.75000   0.85524   0.00000  Uiso   1.00
C1538  C     0.50000   0.75000   0.14482   0.00000  Uiso   1.00
C1539  C     0.75000   0.50000   0.85524   0.00000  Uiso   1.00
C1540  C     0.75000   0.50001   0.14483   0.00000  Uiso   1.00
C1541  C     0.67988   0.56987   0.25031   0.00000  Uiso   1.00
C1542  C     0.77719   0.98096   0.04177   0.00000  Uiso   1.00
C1543  C     0.82003   0.92993   0.74993   0.00000  Uiso   1.00
C1544  C     0.93013   0.67987   0.25032   0.00000  Uiso   1.00
C1545  C     0.57007   0.82003   0.74993   0.00000  Uiso   1.00
C1546  C     0.82012   0.93013   0.25032   0.00000  Uiso   1.00
C1547  C     0.67997   0.57007   0.74993   0.00000  Uiso   1.00
C1548  C     0.56987   0.82013   0.25032   0.00000  Uiso   1.00
C1549  C     0.92993   0.67997   0.74993   0.00000  Uiso   1.00
C1550  C     0.68013   0.92988   0.75031   0.00000  Uiso   1.00
C1551  C     0.82007   0.57003   0.24993   0.00000  Uiso   1.00
C1552  C     0.92988   0.81987   0.75032   0.00000  Uiso   1.00
C1553  C     0.72044   0.98446   0.95857   0.00000  Uiso   1.00
C1554  C     0.57003   0.67993   0.24993   0.00000  Uiso   1.00
C1555  C     0.81987   0.57013   0.75032   0.00000  Uiso   1.00
C1556  C     0.67993   0.92997   0.24993   0.00000  Uiso   1.00
C1557  C     0.57012   0.68012   0.75031   0.00000  Uiso   1.00
C1558  C     0.92997   0.82007   0.24993   0.00000  Uiso   1.00
C1559  C     0.64005   0.88665   0.21441   0.00000  Uiso   1.00
C1560  C     0.85879   0.61415   0.78552   0.00000  Uiso   1.00
C1561  C     0.61339   0.64008   0.21441   0.00000  Uiso   1.00
C1562  C     0.88597   0.85892   0.78555   0.00000  Uiso   1.00
C1563  C     0.85982   0.61349   0.21442   0.00000  Uiso   1.00
C1564  C     0.51923   0.77735   0.04180   0.00000  Uiso   1.00
C1565  C     0.64099   0.88605   0.78556   0.00000  Uiso   1.00
C1566  C     0.88662   0.85993   0.21441   0.00000  Uiso   1.00
C1567  C     0.61392   0.64096   0.78556   0.00000  Uiso   1.00
C1568  C     0.64098   0.61388   0.78542   0.00000  Uiso   1.00
C1569  C     0.85813   0.88566   0.21484   0.00000  Uiso   1.00
C1570  C     0.61390   0.85900   0.78543   0.00000  Uiso   1.00
C1571  C     0.88556   0.64197   0.21486   0.00000  Uiso   1.00
C1572  C     0.85891   0.88601   0.78541   0.00000  Uiso   1.00
C1573  C     0.64187   0.61434   0.21483   0.00000  Uiso   1.00
C1574  C     0.88592   0.64118   0.78540   0.00000  Uiso   1.00
C1575  C     0.51617   0.72074   0.95852   0.00000  Uiso   1.00
C1576  C     0.61431   0.85816   0.21483   0.00000  Uiso   1.00
C1577  C     0.89018   0.63652   0.71443   0.00000  Uiso   1.00
C1578  C     0.60895   0.86401   0.28555   0.00000  Uiso   1.00
C1579  C     0.86338   0.89008   0.71441   0.00000  Uiso   1.00
C1580  C     0.63594   0.60889   0.28554   0.00000  Uiso   1.00
C1581  C     0.61003   0.86328   0.71440   0.00000  Uiso   1.00
C1582  C     0.89122   0.63583   0.28552   0.00000  Uiso   1.00
C1583  C     0.63673   0.61005   0.71439   0.00000  Uiso   1.00
C1584  C     0.86404   0.89108   0.28555   0.00000  Uiso   1.00
C1585  C     0.89110   0.86399   0.28541   0.00000  Uiso   1.00
C1586  C     0.97310   0.76923   0.54178   0.00000  Uiso   1.00
C1587  C     0.60825   0.63579   0.71480   0.00000  Uiso   1.00
C1588  C     0.86410   0.60880   0.28539   0.00000  Uiso   1.00
C1589  C     0.63576   0.89177   0.71481   0.00000  Uiso   1.00
C1590  C     0.60890   0.63600   0.28541   0.00000  Uiso   1.00
C1591  C     0.89186   0.86434   0.71484   0.00000  Uiso   1.00
C1592  C     0.63604   0.89106   0.28542   0.00000  Uiso   1.00
C1593  C     0.86444   0.60803   0.71486   0.00000  Uiso   1.00
C1594  C     0.59834   0.84776   0.25028   0.00000  Uiso   1.00
C1595  C     0.90155   0.65210   0.74990   0.00000  Uiso   1.00
C1596  C     0.65224   0.59833   0.25027   0.00000  Uiso   1.00
H1597  H     0.70056   0.53186   0.09804   0.00000  Uiso   1.00
H1598  H     0.55349   0.77407   0.40218   0.00000  Uiso   1.00
H1599  H     0.62958   0.58509   0.86982   0.00000  Uiso   1.00
H1600  H     0.85496   0.89601   0.15525   0.00000  Uiso   1.00
H1601  H     0.80953   0.84698   0.17052   0.00000  Uiso   1.00
H1602  H     0.79130   0.88760   0.14793   0.00000  Uiso   1.00
H1603  H     0.78643   0.88126   0.19942   0.00000  Uiso   1.00
H1604  H     0.62430   0.83150   0.83749   0.00000  Uiso   1.00
H1605  H     0.55341   0.83797   0.85010   0.00000  Uiso   1.00
H1606  H     0.56072   0.88085   0.82555   0.00000  Uiso   1.00
H1607  H     0.58513   0.87043   0.86979   0.00000  Uiso   1.00
H1608  H     0.89572   0.64532   0.15525   0.00000  Uiso   1.00
H1609  H     0.71784   0.95072   0.59817   0.00000  Uiso   1.00
H1610  H     0.84674   0.69070   0.17083   0.00000  Uiso   1.00
H1611  H     0.88729   0.70901   0.14818   0.00000  Uiso   1.00
H1612  H     0.88110   0.71372   0.19970   0.00000  Uiso   1.00
H1613  H     0.83129   0.87548   0.83737   0.00000  Uiso   1.00
H1614  H     0.83769   0.94635   0.85016   0.00000  Uiso   1.00
H1615  H     0.88065   0.93910   0.82574   0.00000  Uiso   1.00
H1616  H     0.87010   0.91460   0.86990   0.00000  Uiso   1.00
H1617  H     0.64501   0.60398   0.15525   0.00000  Uiso   1.00
H1618  H     0.69047   0.65300   0.17048   0.00000  Uiso   1.00
H1619  H     0.70867   0.61237   0.14790   0.00000  Uiso   1.00
H1620  H     0.72553   0.55339   0.40236   0.00000  Uiso   1.00
H1621  H     0.71356   0.61872   0.19938   0.00000  Uiso   1.00
H1622  H     0.87531   0.66881   0.83735   0.00000  Uiso   1.00
H1623  H     0.94599   0.66264   0.85051   0.00000  Uiso   1.00
H1624  H     0.93929   0.61985   0.82559   0.00000  Uiso   1.00
H1625  H     0.91443   0.62974   0.86968   0.00000  Uiso   1.00
H1626  H     0.60391   0.85505   0.15525   0.00000  Uiso   1.00
H1627  H     0.65295   0.80960   0.17042   0.00000  Uiso   1.00
H1628  H     0.61231   0.79140   0.14786   0.00000  Uiso   1.00
H1629  H     0.61870   0.78648   0.19934   0.00000  Uiso   1.00
H1630  H     0.91522   0.62681   0.66134   0.00000  Uiso   1.00
H1631  H     0.54904   0.71757   0.59825   0.00000  Uiso   1.00
H1632  H     0.90496   0.68748   0.63501   0.00000  Uiso   1.00
H1633  H     0.86229   0.66449   0.64389   0.00000  Uiso   1.00
H1634  H     0.87845   0.69845   0.67745   0.00000  Uiso   1.00
H1635  H     0.58145   0.87510   0.33743   0.00000  Uiso   1.00
H1636  H     0.61807   0.83541   0.37122   0.00000  Uiso   1.00
H1637  H     0.63166   0.81239   0.32712   0.00000  Uiso   1.00
H1638  H     0.58778   0.80323   0.34873   0.00000  Uiso   1.00
H1639  H     0.87293   0.91496   0.66121   0.00000  Uiso   1.00
H1640  H     0.83521   0.86197   0.64404   0.00000  Uiso   1.00
H1641  H     0.81218   0.90461   0.63512   0.00000  Uiso   1.00
H1642  H     0.94654   0.72566   0.40248   0.00000  Uiso   1.00
H1643  H     0.80135   0.87820   0.67768   0.00000  Uiso   1.00
H1644  H     0.62472   0.58124   0.33729   0.00000  Uiso   1.00
H1645  H     0.66436   0.61759   0.37142   0.00000  Uiso   1.00
H1646  H     0.68732   0.63163   0.32742   0.00000  Uiso   1.00
H1647  H     0.69666   0.58762   0.34864   0.00000  Uiso   1.00
H1648  H     0.58530   0.87268   0.66108   0.00000  Uiso   1.00
H1649  H     0.63832   0.83492   0.64417   0.00000  Uiso   1.00
H1650  H     0.59571   0.81183   0.63526   0.00000  Uiso   1.00
H1651  H     0.62205   0.80117   0.67791   0.00000  Uiso   1.00
H1652  H     0.91897   0.62448   0.33719   0.00000  Uiso   1.00
H1653  H     0.78210   0.54914   0.59772   0.00000  Uiso   1.00
H1654  H     0.88273   0.66410   0.37147   0.00000  Uiso   1.00
H1655  H     0.86864   0.68716   0.32756   0.00000  Uiso   1.00
H1656  H     0.91271   0.69640   0.34870   0.00000  Uiso   1.00
H1657  H     0.62735   0.58535   0.66106   0.00000  Uiso   1.00
H1658  H     0.69886   0.62208   0.67794   0.00000  Uiso   1.00
H1659  H     0.68824   0.59574   0.63528   0.00000  Uiso   1.00
H1660  H     0.66513   0.63834   0.64416   0.00000  Uiso   1.00
H1661  H     0.87518   0.91861   0.33740   0.00000  Uiso   1.00
H1662  H     0.83550   0.88202   0.37124   0.00000  Uiso   1.00
H1663  H     0.81245   0.86840   0.32716   0.00000  Uiso   1.00
H1664  H     0.77420   0.94662   0.40221   0.00000  Uiso   1.00
H1665  H     0.80331   0.91230   0.34875   0.00000  Uiso   1.00
H1666  H     0.91874   0.87453   0.33736   0.00000  Uiso   1.00
H1667  H     0.91232   0.80365   0.35015   0.00000  Uiso   1.00
H1668  H     0.86935   0.81092   0.32576   0.00000  Uiso   1.00
H1669  H     0.87993   0.83541   0.36990   0.00000  Uiso   1.00
H1670  H     0.60533   0.64637   0.65525   0.00000  Uiso   1.00
H1671  H     0.55980   0.59731   0.67008   0.00000  Uiso   1.00
H1672  H     0.54170   0.63803   0.64759   0.00000  Uiso   1.00
H1673  H     0.53661   0.63149   0.69902   0.00000  Uiso   1.00
H1674  H     0.87473   0.58108   0.33728   0.00000  Uiso   1.00
H1675  H     0.72890   0.58456   0.01903   0.00000  Uiso   1.00
H1676  H     0.80398   0.58740   0.35038   0.00000  Uiso   1.00
H1677  H     0.81096   0.63032   0.32578   0.00000  Uiso   1.00
H1678  H     0.83569   0.62000   0.36985   0.00000  Uiso   1.00
H1679  H     0.64630   0.89474   0.65525   0.00000  Uiso   1.00
H1680  H     0.59724   0.94024   0.67016   0.00000  Uiso   1.00
H1681  H     0.63794   0.95837   0.64766   0.00000  Uiso   1.00
H1682  H     0.63144   0.96342   0.69910   0.00000  Uiso   1.00
H1683  H     0.58133   0.62549   0.33740   0.00000  Uiso   1.00
H1684  H     0.58770   0.69630   0.35026   0.00000  Uiso   1.00
H1685  H     0.63057   0.68921   0.32561   0.00000  Uiso   1.00
H1686  H     0.69398   0.58439   0.05689   0.00000  Uiso   1.00
H1687  H     0.62030   0.66461   0.36978   0.00000  Uiso   1.00
H1688  H     0.89503   0.85400   0.65525   0.00000  Uiso   1.00
H1689  H     0.94046   0.90304   0.67053   0.00000  Uiso   1.00
H1690  H     0.95870   0.86242   0.64794   0.00000  Uiso   1.00
H1691  H     0.96356   0.86876   0.69943   0.00000  Uiso   1.00
H1692  H     0.62555   0.91865   0.33740   0.00000  Uiso   1.00
H1693  H     0.69644   0.91221   0.35012   0.00000  Uiso   1.00
H1694  H     0.68914   0.86926   0.32570   0.00000  Uiso   1.00
H1695  H     0.66469   0.87982   0.36988   0.00000  Uiso   1.00
H1696  H     0.85427   0.60469   0.65525   0.00000  Uiso   1.00
H1697  H     0.68165   0.59043   0.00702   0.00000  Uiso   1.00
H1698  H     0.90326   0.55931   0.67084   0.00000  Uiso   1.00
H1699  H     0.86271   0.54101   0.64818   0.00000  Uiso   1.00
H1700  H     0.86890   0.53629   0.69970   0.00000  Uiso   1.00
H1701  H     0.80337   0.52447   0.90232   0.00000  Uiso   1.00
H1702  H     0.78427   0.58206   0.97548   0.00000  Uiso   1.00
H1703  H     0.82174   0.57345   0.94168   0.00000  Uiso   1.00
H1704  H     0.83054   0.58032   0.99223   0.00000  Uiso   1.00
H1705  H     0.92049   0.73121   0.00701   0.00000  Uiso   1.00
H1706  H     0.91337   0.70422   0.05098   0.00000  Uiso   1.00
H1707  H     0.91067   0.68334   0.00402   0.00000  Uiso   1.00
H1708  H     0.91693   0.78881   0.96370   0.00000  Uiso   1.00
H1709  H     0.93198   0.83114   0.94053   0.00000  Uiso   1.00
H1710  H     0.91880   0.83067   0.99045   0.00000  Uiso   1.00
H1711  H     0.76892   0.91870   0.01100   0.00000  Uiso   1.00
H1712  H     0.96827   0.70051   0.09778   0.00000  Uiso   1.00
H1713  H     0.79865   0.91394   0.05330   0.00000  Uiso   1.00
H1714  H     0.81679   0.91012   0.00517   0.00000  Uiso   1.00
H1715  H     0.71226   0.91746   0.96779   0.00000  Uiso   1.00
H1716  H     0.67135   0.93068   0.94079   0.00000  Uiso   1.00
H1717  H     0.66874   0.91991   0.99132   0.00000  Uiso   1.00
H1718  H     0.58178   0.76976   0.01156   0.00000  Uiso   1.00
H1719  H     0.58592   0.79980   0.05368   0.00000  Uiso   1.00
H1720  H     0.58976   0.81771   0.00546   0.00000  Uiso   1.00
H1721  H     0.58327   0.71351   0.96779   0.00000  Uiso   1.00
H1722  H     0.57063   0.67251   0.94064   0.00000  Uiso   1.00
H1723  H     0.97499   0.80299   0.90217   0.00000  Uiso   1.00
H1724  H     0.58144   0.66988   0.99116   0.00000  Uiso   1.00
H1725  H     0.98300   0.82961   0.50697   0.00000  Uiso   1.00
H1726  H     0.95618   0.83734   0.55094   0.00000  Uiso   1.00
H1727  H     0.93536   0.84048   0.50398   0.00000  Uiso   1.00
H1728  H     0.54079   0.83222   0.46372   0.00000  Uiso   1.00
H1729  H     0.58281   0.81620   0.44063   0.00000  Uiso   1.00
H1730  H     0.58254   0.82940   0.49055   0.00000  Uiso   1.00
H1731  H     0.66412   0.97811   0.52294   0.00000  Uiso   1.00
H1732  H     0.66629   0.94083   0.55811   0.00000  Uiso   1.00
H1733  H     0.65894   0.93164   0.50771   0.00000  Uiso   1.00
H1734  H     0.79936   0.96817   0.09781   0.00000  Uiso   1.00
H1735  H     0.66856   0.53314   0.47902   0.00000  Uiso   1.00
H1736  H     0.67504   0.56876   0.44253   0.00000  Uiso   1.00
H1737  H     0.66976   0.58032   0.49268   0.00000  Uiso   1.00
H1738  H     0.52348   0.66283   0.52905   0.00000  Uiso   1.00
H1739  H     0.56421   0.66793   0.55923   0.00000  Uiso   1.00
H1740  H     0.56818   0.65833   0.50853   0.00000  Uiso   1.00
H1741  H     0.96838   0.67034   0.48481   0.00000  Uiso   1.00
H1742  H     0.93591   0.67311   0.44466   0.00000  Uiso   1.00
H1743  H     0.92018   0.67023   0.49377   0.00000  Uiso   1.00
H1744  H     0.82938   0.51764   0.50686   0.00000  Uiso   1.00
H1745  H     0.69665   0.97564   0.90224   0.00000  Uiso   1.00
H1746  H     0.83698   0.54447   0.55084   0.00000  Uiso   1.00
H1747  H     0.83992   0.56535   0.50390   0.00000  Uiso   1.00
H1748  H     0.83231   0.95978   0.46384   0.00000  Uiso   1.00
H1749  H     0.81661   0.91768   0.44067   0.00000  Uiso   1.00
H1750  H     0.82974   0.91798   0.49062   0.00000  Uiso   1.00
H1751  H     0.66488   0.87715   0.16117   0.00000  Uiso   1.00
H1752  H     0.65451   0.93793   0.13516   0.00000  Uiso   1.00
H1753  H     0.61188   0.91487   0.14408   0.00000  Uiso   1.00
H1754  H     0.62813   0.94870   0.17774   0.00000  Uiso   1.00
H1755  H     0.83100   0.62550   0.83716   0.00000  Uiso   1.00
H1756  H     0.53177   0.79953   0.09791   0.00000  Uiso   1.00
H1757  H     0.86721   0.58592   0.87153   0.00000  Uiso   1.00
H1758  H     0.88143   0.56290   0.82764   0.00000  Uiso   1.00
H1759  H     0.83735   0.55357   0.84868   0.00000  Uiso   1.00
H1760  H     0.62294   0.66497   0.16121   0.00000  Uiso   1.00
H1761  H     0.58521   0.61201   0.14401   0.00000  Uiso   1.00
H1762  H     0.56217   0.65465   0.13514   0.00000  Uiso   1.00
H1763  H     0.55136   0.62821   0.17768   0.00000  Uiso   1.00
H1764  H     0.87488   0.83140   0.83742   0.00000  Uiso   1.00
H1765  H     0.91454   0.86799   0.87126   0.00000  Uiso   1.00
H1766  H     0.93751   0.88172   0.82716   0.00000  Uiso   1.00
H1767  H     0.52510   0.69700   0.90221   0.00000  Uiso   1.00
H1768  H     0.94678   0.83782   0.84868   0.00000  Uiso   1.00
H1769  H     0.83478   0.62320   0.16134   0.00000  Uiso   1.00
H1770  H     0.88771   0.58552   0.14388   0.00000  Uiso   1.00
H1771  H     0.84504   0.56253   0.13501   0.00000  Uiso   1.00
H1772  H     0.87155   0.55156   0.17744   0.00000  Uiso   1.00
H1773  H     0.66845   0.87502   0.83748   0.00000  Uiso   1.00
H1774  H     0.63184   0.91473   0.87123   0.00000  Uiso   1.00
H1775  H     0.61817   0.93765   0.82708   0.00000  Uiso   1.00
H1776  H     0.66204   0.94694   0.84864   0.00000  Uiso   1.00
H1777  H     0.87706   0.83505   0.16121   0.00000  Uiso   1.00
H1778  H     0.95110   0.78244   0.59774   0.00000  Uiso   1.00
H1779  H     0.94864   0.87180   0.17767   0.00000  Uiso   1.00
H1780  H     0.93781   0.84540   0.13512   0.00000  Uiso   1.00
H1781  H     0.91478   0.88803   0.14404   0.00000  Uiso   1.00
H1782  H     0.62490   0.66837   0.83752   0.00000  Uiso   1.00
H1783  H     0.58518   0.63173   0.87121   0.00000  Uiso   1.00
H1784  H     0.56235   0.61802   0.82703   0.00000  Uiso   1.00
H1785  H     0.55296   0.66188   0.84857   0.00000  Uiso   1.00
H1786  H     0.66848   0.62427   0.83749   0.00000  Uiso   1.00
H1787  H     0.66198   0.55336   0.85005   0.00000  Uiso   1.00
H1788  H     0.61907   0.56073   0.82557   0.00000  Uiso   1.00
N1789  N     0.65645   0.89818   0.17891   0.00000  Uiso   1.00
N1790  N     0.83933   0.89538   0.18003   0.00000  Uiso   1.00
N1791  N     0.60330   0.84145   0.82063   0.00000  Uiso   1.00
N1792  N     0.89517   0.66088   0.18008   0.00000  Uiso   1.00
N1793  N     0.84127   0.89652   0.82059   0.00000  Uiso   1.00
N1794  N     0.66065   0.60461   0.18001   0.00000  Uiso   1.00
N1795  N     0.89637   0.65887   0.82057   0.00000  Uiso   1.00
N1796  N     0.60456   0.83939   0.18001   0.00000  Uiso   1.00
N1797  N     0.90673   0.64791   0.67896   0.00000  Uiso   1.00
N1798  N     0.59123   0.85387   0.32080   0.00000  Uiso   1.00
N1799  N     0.85188   0.90652   0.67892   0.00000  Uiso   1.00
N1800  N     0.84089   0.60418   0.82072   0.00000  Uiso   1.00
N1801  N     0.64600   0.59108   0.32076   0.00000  Uiso   1.00
N1802  N     0.59370   0.85168   0.67889   0.00000  Uiso   1.00
N1803  N     0.90912   0.64580   0.32072   0.00000  Uiso   1.00
N1804  N     0.64834   0.59373   0.67888   0.00000  Uiso   1.00
N1805  N     0.85393   0.90883   0.32079   0.00000  Uiso   1.00
N1806  N     0.90875   0.85348   0.32059   0.00000  Uiso   1.00
N1807  N     0.58960   0.64565   0.67995   0.00000  Uiso   1.00
N1808  N     0.85366   0.59108   0.32055   0.00000  Uiso   1.00
N1809  N     0.64560   0.91045   0.67996   0.00000  Uiso   1.00
N1810  N     0.59129   0.64652   0.32059   0.00000  Uiso   1.00
N1811  N     0.60189   0.65652   0.17892   0.00000  Uiso   1.00
N1812  N     0.91067   0.85463   0.68003   0.00000  Uiso   1.00
N1813  N     0.64658   0.90867   0.32060   0.00000  Uiso   1.00
N1814  N     0.85482   0.58913   0.68008   0.00000  Uiso   1.00
N1815  N     0.89612   0.84120   0.82079   0.00000  Uiso   1.00
N1816  N     0.84327   0.60210   0.17895   0.00000  Uiso   1.00
N1817  N     0.65867   0.89624   0.82082   0.00000  Uiso   1.00
N1818  N     0.89811   0.84349   0.17892   0.00000  Uiso   1.00
N1819  N     0.60370   0.65860   0.82083   0.00000  Uiso   1.00
N1820  N     0.65852   0.60327   0.82063   0.00000  Uiso   1.00
O1821  O     0.75000   0.50000   0.25000   0.00000  Uiso   1.00
O1822  O     0.75000   0.96964   0.66317   0.00000  Uiso   1.00
O1823  O     0.96964   0.75000   0.33683   0.00000  Uiso   1.00
O1824  O     0.53036   0.75000   0.66317   0.00000  Uiso   1.00
O1825  O     0.50000   0.71964   0.83683   0.00000  Uiso   1.00
O1826  O     0.50000   0.78036   0.16317   0.00000  Uiso   1.00
O1827  O     0.78036   0.50000   0.83683   0.00000  Uiso   1.00
O1828  O     0.71964   0.50000   0.16317   0.00000  Uiso   1.00
O1829  O     0.50000   0.78036   0.83683   0.00000  Uiso   1.00
O1830  O     0.50000   0.71964   0.16317   0.00000  Uiso   1.00
O1831  O     0.71964   0.50000   0.83683   0.00000  Uiso   1.00
O1832  O     0.75000   0.50000   0.75000   0.00000  Uiso   1.00
O1833  O     0.78036   0.50000   0.16317   0.00000  Uiso   1.00
O1834  O     0.70726   0.57307   0.27282   0.00000  Uiso   1.00
O1835  O     0.79275   0.92693   0.72718   0.00000  Uiso   1.00
O1836  O     0.92693   0.70726   0.27282   0.00000  Uiso   1.00
O1837  O     0.57307   0.79275   0.72718   0.00000  Uiso   1.00
O1838  O     0.79275   0.92693   0.27282   0.00000  Uiso   1.00
O1839  O     0.70726   0.57307   0.72718   0.00000  Uiso   1.00
O1840  O     0.57307   0.79275   0.27282   0.00000  Uiso   1.00
O1841  O     0.92693   0.70726   0.72718   0.00000  Uiso   1.00
O1842  O     0.70726   0.92693   0.72718   0.00000  Uiso   1.00
O1843  O     0.50000   0.75000   0.25000   0.00000  Uiso   1.00
O1844  O     0.79275   0.57307   0.27282   0.00000  Uiso   1.00
O1845  O     0.92693   0.79275   0.72718   0.00000  Uiso   1.00
O1846  O     0.57307   0.70726   0.27282   0.00000  Uiso   1.00
O1847  O     0.79275   0.57307   0.72718   0.00000  Uiso   1.00
O1848  O     0.70726   0.92693   0.27282   0.00000  Uiso   1.00
O1849  O     0.57307   0.70726   0.72718   0.00000  Uiso   1.00
O1850  O     0.92693   0.79275   0.27282   0.00000  Uiso   1.00
O1851  O     0.95726   0.82307   0.77282   0.00000  Uiso   1.00
O1852  O     0.54275   0.67693   0.22718   0.00000  Uiso   1.00
O1853  O     0.67693   0.95726   0.77282   0.00000  Uiso   1.00
O1854  O     0.50000   0.75000   0.75000   0.00000  Uiso   1.00
O1855  O     0.82307   0.54274   0.22718   0.00000  Uiso   1.00
O1856  O     0.54275   0.67693   0.77282   0.00000  Uiso   1.00
O1857  O     0.95726   0.82307   0.22718   0.00000  Uiso   1.00
O1858  O     0.82307   0.54274   0.77282   0.00000  Uiso   1.00
O1859  O     0.67693   0.95726   0.22718   0.00000  Uiso   1.00
O1860  O     0.95726   0.67693   0.22718   0.00000  Uiso   1.00
O1861  O     0.54275   0.82307   0.77282   0.00000  Uiso   1.00
O1862  O     0.67693   0.54274   0.22718   0.00000  Uiso   1.00
O1863  O     0.82307   0.95726   0.77282   0.00000  Uiso   1.00
O1864  O     0.54275   0.82307   0.22718   0.00000  Uiso   1.00
O1865  O     0.75000   0.96964   0.33683   0.00000  Uiso   1.00
O1866  O     0.95726   0.67693   0.77282   0.00000  Uiso   1.00
O1867  O     0.82307   0.95726   0.22718   0.00000  Uiso   1.00
O1868  O     0.67693   0.54274   0.77282   0.00000  Uiso   1.00
O1869  O     0.69573   0.53799   0.02172   0.00000  Uiso   1.00
O1870  O     0.80869   0.53031   0.97875   0.00000  Uiso   1.00
O1871  O     0.96270   0.69545   0.02200   0.00000  Uiso   1.00
O1872  O     0.96905   0.80818   0.97932   0.00000  Uiso   1.00
O1873  O     0.80424   0.96242   0.02188   0.00000  Uiso   1.00
O1874  O     0.69132   0.96989   0.97916   0.00000  Uiso   1.00
O1875  O     0.53755   0.80457   0.02194   0.00000  Uiso   1.00
O1876  O     0.75000   0.53036   0.66317   0.00000  Uiso   1.00
O1877  O     0.53114   0.69181   0.97908   0.00000  Uiso   1.00
O1878  O     0.94631   0.78821   0.52198   0.00000  Uiso   1.00
O1879  O     0.55893   0.77968   0.47939   0.00000  Uiso   1.00
O1880  O     0.71151   0.94595   0.52164   0.00000  Uiso   1.00
O1881  O     0.71975   0.55876   0.47859   0.00000  Uiso   1.00
O1882  O     0.55368   0.71109   0.52138   0.00000  Uiso   1.00
O1883  O     0.94107   0.72018   0.47843   0.00000  Uiso   1.00
O1884  O     0.78774   0.55401   0.52195   0.00000  Uiso   1.00
O1885  O     0.77987   0.94126   0.47940   0.00000  Uiso   1.00
O1886  O     0.53036   0.75000   0.33683   0.00000  Uiso   1.00
O1887  O     0.96964   0.75000   0.66317   0.00000  Uiso   1.00
O1888  O     0.75000   0.53036   0.33683   0.00000  Uiso   1.00
Zn1889 Zn    0.70660   0.50000   0.21760   0.00000  Uiso   1.00
Zn1890 Zn    0.54340   0.75000   0.28240   0.00000  Uiso   1.00
Zn1891 Zn    0.75000   0.95660   0.71760   0.00000  Uiso   1.00
Zn1892 Zn    0.75000   0.54340   0.28240   0.00000  Uiso   1.00
Zn1893 Zn    0.54340   0.75000   0.71760   0.00000  Uiso   1.00
Zn1894 Zn    0.95660   0.75000   0.28240   0.00000  Uiso   1.00
Zn1895 Zn    0.75000   0.54340   0.71760   0.00000  Uiso   1.00
Zn1896 Zn    0.75000   0.95660   0.28240   0.00000  Uiso   1.00
Zn1897 Zn    0.79340   0.50000   0.78240   0.00000  Uiso   1.00
Zn1898 Zn    0.50000   0.70660   0.21760   0.00000  Uiso   1.00
Zn1899 Zn    0.50000   0.79340   0.78240   0.00000  Uiso   1.00
Zn1900 Zn    0.79340   0.50000   0.21760   0.00000  Uiso   1.00
Zn1901 Zn    0.70660   0.50000   0.78240   0.00000  Uiso   1.00
Zn1902 Zn    0.50000   0.79340   0.21760   0.00000  Uiso   1.00
Zn1903 Zn    0.50000   0.70660   0.78240   0.00000  Uiso   1.00
Zn1904 Zn    0.95660   0.75000   0.71760   0.00000  Uiso   1.00
loop_
_geom_bond_atom_site_label_1
_geom_bond_atom_site_label_2
_geom_bond_distance
_geom_bond_site_symmetry_2
_ccdc_geom_bond_type
C1     O441    1.384   .     S
C1     C78     1.399   .     A
C1     C96     1.409   .     A
C2     O451    1.389   .     S
C2     C88     1.403   .     A
C2     C101    1.408   .     A
C3     C144    1.409   .     A
C3     C115    1.457   .     S
C3     C151    1.412   .     A
C4     C154    1.408   .     A
C4     C116    1.453   .     S
C4     C143    1.407   .     A
C5     C142    1.409   .     A
C5     C117    1.457   .     S
C5     C153    1.412   .     A
C6     C141    1.407   .     A
C6     C156    1.408   .     A
C6     C118    1.453   .     S
C7     C119    1.457   .     S
C7     C140    1.409   .     A
C7     C155    1.412   .     A
C8     C129    1.453   .     S
C8     C159    1.407   .     A
C8     C139    1.408   .     A
C9     C138    1.412   .     A
C9     C130    1.457   .     S
C9     C157    1.409   .     A
C10    C122    1.453   .     S
C10    C161    1.407   .     A
C10    C137    1.408   .     A
C11    C160    1.409   .     A
C11    C135    1.412   .     A
C11    C123    1.457   .     S
C12    C163    1.407   .     A
C12    C134    1.408   .     A
C12    C124    1.453   .     S
C13    C102    1.408   .     A
C13    C89     1.400   .     A
C13    O452    1.385   .     S
C14    C126    1.457   .     S
C14    C133    1.412   .     A
C14    C162    1.409   .     A
C15    C127    1.453   .     S
C15    C132    1.408   .     A
C15    C165    1.407   .     A
C16    C164    1.409   .     A
C16    C131    1.412   .     A
C16    C128    1.457   .     S
C17    C78     1.399   .     A
C17    C112    1.457   .     S
C17    C1035   1.399   1_545 S
C18    C79     1.399   .     A
C18    C1036   1.399   1_545 S
C18    C111    1.461   .     S
C19    C85     1.399   .     A
C19    C110    1.458   .     S
C19    C556    1.399   1_455 S
C20    C86     1.399   .     A
C20    C109    1.461   .     S
C20    C558    1.399   1_455 S
C21    C584    1.457   .     S
C21    C87     1.398   .     A
C21    C567    1.399   .     S
C22    C107    1.462   .     S
C22    C88     1.400   .     A
C22    C569    1.399   1_455 S
C23    C94     1.398   .     A
C23    C106    1.457   .     S
C23    C1041   1.399   1_545 S
C24    O453    1.385   .     S
C24    C90     1.398   .     A
C24    C1056   1.408   1_545 S
C25    C1057   1.462   .     S
C25    C95     1.399   .     A
C25    C1042   1.399   .     S
C26    H269    1.109   .     S
C26    O441    1.411   .     S
C26    H258    1.112   .     S
C26    H247    1.114   .     S
C27    H275    1.111   .     S
C27    O442    1.411   .     S
C27    H276    1.109   .     S
C27    H274    1.114   .     S
C28    O443    1.409   .     S
C28    H277    1.114   .     S
C28    H278    1.113   .     S
C28    H279    1.109   .     S
C29    H282    1.109   .     S
C29    H281    1.111   .     S
C29    H280    1.115   .     S
C29    O444    1.412   .     S
C30    H285    1.113   .     S
C30    H283    1.114   .     S
C30    O445    1.410   .     S
C30    H286    1.109   .     S
C31    H288    1.111   .     S
C31    H287    1.115   .     S
C31    H289    1.109   .     S
C31    O446    1.412   .     S
C32    O447    1.410   .     S
C32    H290    1.114   .     S
C32    H291    1.113   .     S
C32    H292    1.109   .     S
C33    H293    1.115   .     S
C33    H294    1.111   .     S
C33    H296    1.109   .     S
C33    O449    1.412   .     S
C34    H298    1.113   .     S
C34    O450    1.409   .     S
C34    H299    1.109   .     S
C34    H297    1.114   .     S
C35    O454    1.387   .     S
C35    C100    1.409   .     A
C35    C91     1.401   .     A
C36    H301    1.111   .     S
C36    O451    1.412   .     S
C36    H300    1.115   .     S
C36    H302    1.109   .     S
C37    H305    1.109   .     S
C37    O452    1.411   .     S
C37    H304    1.111   .     S
C37    H303    1.114   .     S
C38    H308    1.112   .     S
C38    O453    1.411   .     S
C38    H309    1.109   .     S
C38    H307    1.114   .     S
C39    H311    1.111   .     S
C39    H312    1.109   .     S
C39    O454    1.411   .     S
C39    H310    1.114   .     S
C40    H313    1.114   .     S
C40    H315    1.109   .     S
C40    H314    1.112   .     S
C40    O455    1.410   .     S
C41    H316    1.113   .     S
C41    H318    1.113   .     S
C41    O456    1.409   .     S
C41    H319    1.109   .     S
C42    H322    1.109   .     S
C42    O457    1.412   .     S
C42    H320    1.115   .     S
C42    H321    1.111   .     S
C43    N361    1.450   .     S
C43    H326    1.110   .     S
C43    H324    1.110   .     S
C43    H325    1.109   .     S
C44    H329    1.110   .     S
C44    H331    1.108   .     S
C44    H330    1.113   .     S
C44    N372    1.450   .     S
C45    H335    1.110   .     S
C45    N383    1.450   .     S
C45    H334    1.110   .     S
C45    H333    1.109   .     S
C46    O455    1.384   .     S
C46    C93     1.397   .     A
C46    C577    1.408   .     S
C47    H340    1.108   .     S
C47    H338    1.113   .     S
C47    N387    1.450   .     S
C47    H337    1.110   .     S
C48    H342    1.109   .     S
C48    H344    1.110   .     S
C48    N388    1.450   .     S
C48    H343    1.110   .     S
C49    H346    1.110   .     S
C49    H347    1.113   .     S
C49    H348    1.108   .     S
C49    N389    1.450   .     S
C50    H351    1.110   .     S
C50    H353    1.109   .     S
C50    H352    1.110   .     S
C50    N390    1.450   .     S
C51    H357    1.108   .     S
C51    N391    1.450   .     S
C51    H355    1.110   .     S
C51    H356    1.113   .     S
C52    H360    1.113   .     S
C52    H359    1.110   .     S
C52    N392    1.450   .     S
C52    H171    1.109   .     S
C53    H173    1.111   .     S
C53    H175    1.110   .     S
C53    N362    1.447   .     S
C53    H174    1.111   .     S
C54    H178    1.113   .     S
C54    H179    1.109   .     S
C54    N363    1.450   .     S
C54    H177    1.110   .     S
C55    N364    1.447   .     S
C55    H184    1.111   .     S
C55    H182    1.111   .     S
C55    H183    1.111   .     S
C56    N365    1.450   .     S
C56    H187    1.113   .     S
C56    H186    1.110   .     S
C56    H188    1.109   .     S
C57    C94     1.396   .     A
C57    O456    1.382   .     S
C57    C1054   1.409   1_545 S
C58    H193    1.110   .     S
C58    H190    1.111   .     S
C58    N366    1.447   .     S
C58    H191    1.111   .     S
C59    H195    1.110   .     S
C59    N367    1.449   .     S
C59    H196    1.113   .     S
C59    H197    1.109   .     S
C60    H200    1.111   .     S
C60    N368    1.447   .     S
C60    H201    1.111   .     S
C60    H199    1.111   .     S
C61    H204    1.110   .     S
C61    N369    1.450   .     S
C61    H206    1.110   .     S
C61    H205    1.109   .     S
C62    H208    1.110   .     S
C62    H210    1.108   .     S
C62    N370    1.450   .     S
C62    H209    1.113   .     S
C63    H212    1.109   .     S
C63    N371    1.450   .     S
C63    H215    1.110   .     S
C63    H213    1.110   .     S
C64    H218    1.113   .     S
C64    N373    1.450   .     S
C64    H217    1.110   .     S
C64    H219    1.108   .     S
C65    H223    1.110   .     S
C65    H222    1.110   .     S
C65    H221    1.109   .     S
C65    N374    1.450   .     S
C66    N375    1.450   .     S
C66    H227    1.113   .     S
C66    H228    1.108   .     S
C66    H226    1.110   .     S
C67    H231    1.110   .     S
C67    N376    1.450   .     S
C67    H232    1.109   .     S
C67    H230    1.110   .     S
C68    O457    1.389   .     S
C68    C95     1.403   .     A
C68    C104    1.408   .     A
C69    H235    1.113   .     S
C69    H234    1.110   .     S
C69    N377    1.450   .     S
C69    H237    1.108   .     S
C70    H240    1.113   .     S
C70    H241    1.109   .     S
C70    N378    1.450   .     S
C70    H239    1.110   .     S
C71    H245    1.111   .     S
C71    H243    1.111   .     S
C71    H244    1.111   .     S
C71    N379    1.447   .     S
C72    H248    1.110   .     S
C72    H249    1.113   .     S
C72    H250    1.109   .     S
C72    N380    1.450   .     S
C73    H252    1.111   .     S
C73    N381    1.447   .     S
C73    H254    1.110   .     S
C73    H253    1.111   .     S
C74    H257    1.113   .     S
C74    N382    1.450   .     S
C74    H259    1.109   .     S
C74    H256    1.110   .     S
C75    H263    1.110   .     S
C75    H261    1.111   .     S
C75    N384    1.447   .     S
C75    H262    1.111   .     S
C76    N385    1.450   .     S
C76    H266    1.113   .     S
C76    H265    1.110   .     S
C76    H267    1.109   .     S
C77    N386    1.447   .     S
C77    H272    1.111   .     S
C77    H271    1.111   .     S
C77    H270    1.111   .     S
C78    H169    1.084   .     S
C79    H273    1.082   .     S
C79    C81     1.399   .     A
C80    C92     1.396   .     A
C80    H284    1.084   .     S
C80    C495    1.399   .     S
C81    O442    1.386   .     S
C81    C97     1.408   .     A
C82    H295    1.081   .     S
C82    C103    1.402   .     A
C82    C496    1.399   .     S
C83    C114    1.397   .     A
C83    H306    1.084   .     S
C83    C969    1.399   .     S
C84    C125    1.401   .     A
C84    H317    1.082   .     S
C84    C970    1.399   .     S
C85    C136    1.397   .     A
C85    H328    1.084   .     S
C86    C147    1.401   .     A
C86    H339    1.082   .     S
C87    H350    1.084   .     S
C87    C158    1.396   .     A
C88    H170    1.081   .     S
C89    H181    1.083   .     S
C89    C975    1.399   .     S
C90    H192    1.082   .     S
C90    C977    1.399   1_545 S
C91    H203    1.083   .     S
C91    C497    1.399   1_455 S
C92    O443    1.382   .     S
C92    C574    1.409   .     S
C93    H214    1.082   .     S
C93    C498    1.399   .     S
C94    H225    1.084   .     S
C95    H236    1.081   .     S
C96    C97     1.470   1_554 S
C96    C1066   1.409   1_545 S
C97    C96     1.470   1_556 S
C97    C1077   1.408   1_545 S
C98    C136    1.408   .     A
C98    C568    1.409   1_455 S
C98    C99     1.470   1_554 S
C99    C147    1.408   .     A
C99    C98     1.470   1_556 S
C99    C579    1.408   1_455 S
C100   C101    1.470   .     S
C100   C634    1.409   1_455 S
C101   C522    1.408   1_455 S
C102   C104    1.470   .     S
C102   C1009   1.409   .     S
C103   O444    1.389   .     S
C103   C575    1.408   .     S
C104   C976    1.408   .     S
C105   C977    1.462   1_545 S
C105   O1389   1.280   1_545 A
C105   O460    1.280   .     S
C106   O448    1.279   .     A
C106   O1346   1.279   1_545 S
C107   O458    1.280   .     A
C107   O871    1.280   1_455 S
C108   O935    1.279   1_455 A
C108   C497    1.457   1_455 S
C108   O396    1.279   .     S
C109   O401    1.280   .     A
C109   O397    1.280   .     S
C110   O398    1.279   .     S
C110   O402    1.279   .     S
C111   O403    1.280   .     A
C111   O399    1.280   .     A
C112   O400    1.279   .     A
C112   O405    1.279   .     A
C113   O406    1.273   .     A
C113   O434    1.279   .     A
C113   C168    1.453   .     S
C114   O445    1.383   .     S
C114   C1048   1.409   .     S
C115   O435    1.279   .     A
C115   O407    1.275   .     A
C116   O432    1.279   .     A
C116   O408    1.273   .     A
C117   O433    1.279   .     A
C117   O409    1.275   .     A
C118   O410    1.273   .     A
C118   O439    1.279   .     A
C119   O411    1.275   .     A
C119   O440    1.279   .     A
C120   C166    1.453   .     S
C120   O436    1.279   .     A
C120   O412    1.273   .     A
C121   O413    1.275   .     A
C121   C167    1.457   .     S
C121   O438    1.279   .     A
C122   O425    1.273   .     A
C122   O414    1.279   .     A
C123   O427    1.275   .     A
C123   O416    1.279   .     A
C124   O423    1.273   .     A
C124   O417    1.279   .     A
C125   O446    1.388   .     S
C125   C1049   1.408   .     S
C126   O424    1.275   .     A
C126   O418    1.279   .     A
C127   O419    1.278   .     A
C127   O430    1.273   .     A
C128   O431    1.275   .     A
C128   O420    1.279   .     A
C129   O428    1.273   .     A
C129   O421    1.279   .     A
C130   O422    1.279   .     A
C130   O429    1.275   .     A
C131   N361    1.427   .     S
C131   C148    1.406   .     A
C132   C146    1.402   .     A
C132   N372    1.427   .     S
C133   C145    1.406   .     A
C133   N383    1.427   .     S
C134   N387    1.427   .     S
C134   C144    1.402   .     A
C135   C143    1.406   .     A
C135   N388    1.427   .     S
C136   O447    1.383   .     S
C137   C142    1.402   .     A
C137   N389    1.427   .     S
C138   C141    1.406   .     A
C138   N390    1.427   .     S
C139   N391    1.427   .     S
C139   C140    1.402   .     A
C140   N392    1.427   .     S
C141   N362    1.428   .     S
C142   N363    1.427   .     S
C143   N364    1.428   .     S
C144   N365    1.427   .     S
C145   C168    1.407   .     A
C145   N366    1.428   .     S
C146   N367    1.427   .     S
C146   C167    1.409   .     A
C147   O449    1.388   .     S
C148   N368    1.428   .     S
C148   C166    1.407   .     A
C149   N369    1.427   .     S
C149   C165    1.406   .     A
C149   C167    1.412   .     A
C150   N370    1.427   .     S
C150   C166    1.408   .     A
C150   C164    1.402   .     A
C151   N371    1.427   .     S
C151   C163    1.406   .     A
C152   N373    1.427   .     S
C152   C168    1.408   .     A
C152   C162    1.402   .     A
C153   C161    1.406   .     A
C153   N374    1.427   .     S
C154   C160    1.402   .     A
C154   N375    1.427   .     S
C155   N376    1.427   .     S
C155   C159    1.406   .     A
C156   N377    1.427   .     S
C156   C157    1.402   .     A
C157   N378    1.427   .     S
C158   O450    1.382   .     S
C158   C576    1.409   .     S
C159   N379    1.429   .     S
C160   N380    1.427   .     S
C161   N381    1.428   .     S
C162   N382    1.427   .     S
C163   N384    1.428   .     S
C164   N385    1.427   .     S
C165   N386    1.428   .     S
H172   N362    1.028   .     S
H176   N363    1.031   .     S
H180   N364    1.028   .     S
H185   N365    1.030   .     S
H189   N366    1.028   .     S
H194   N367    1.030   .     S
H198   N368    1.028   .     S
H202   N369    1.031   .     S
H207   N370    1.031   .     S
H211   N371    1.031   .     S
H216   N373    1.031   .     S
H220   N374    1.031   .     S
H224   N375    1.031   .     S
H229   N376    1.031   .     S
H233   N377    1.031   .     S
H238   N378    1.030   .     S
H242   N379    1.028   .     S
H246   N380    1.030   .     S
H251   N381    1.028   .     S
H255   N382    1.031   .     S
H260   N384    1.028   .     S
H264   N385    1.030   .     S
H268   N386    1.028   .     S
H323   N361    1.031   .     S
H327   N372    1.031   .     S
H332   N383    1.031   .     S
H336   N387    1.031   .     S
H341   N388    1.031   .     S
H345   N389    1.031   .     S
H349   N390    1.031   .     S
H354   N391    1.031   .     S
H358   N392    1.030   .     S
O393   Zn461   1.943   .     S
O393   Zn1420  1.943   1_545 S
O393   Zn472   1.943   .     S
O393   Zn464   1.943   .     S
O394   Zn463   1.936   .     S
O394   C1058   1.279   .     S
O395   Zn466   1.936   .     S
O395   C583    1.280   .     S
O396   Zn465   1.936   .     S
O397   Zn475   1.936   .     S
O398   Zn474   1.936   .     S
O399   Zn469   1.936   .     S
O400   Zn461   1.936   .     S
O401   Zn471   1.936   .     S
O402   Zn470   1.936   .     S
O403   Zn473   1.936   .     S
O404   Zn467   1.943   .     S
O404   Zn469   1.943   .     S
O404   Zn473   1.943   .     S
O404   Zn1415  1.943   1_545 S
O405   Zn472   1.936   .     S
O406   Zn464   1.934   .     S
O407   Zn463   1.934   .     S
O408   Zn466   1.934   .     S
O409   Zn465   1.934   .     S
O410   Zn468   1.934   .     S
O411   Zn467   1.934   .     S
O412   Zn462   1.934   .     S
O413   Zn476   1.934   .     S
O414   Zn463   1.934   .     S
O415   Zn942   1.943   1_455 S
O415   Zn474   1.943   .     S
O415   Zn462   1.943   .     S
O415   Zn470   1.943   .     S
O416   Zn464   1.934   .     S
O417   Zn476   1.934   .     S
O418   Zn462   1.934   .     S
O419   Zn467   1.934   .     S
O420   Zn468   1.934   .     S
O421   Zn465   1.934   .     S
O422   Zn466   1.934   .     S
O423   Zn947   1.934   .     S
O424   Zn470   1.934   .     S
O425   Zn1425  1.934   .     S
O426   Zn952   1.943   1_455 S
O426   Zn465   1.943   .     S
O426   Zn471   1.943   .     S
O426   Zn475   1.943   .     S
O427   Zn472   1.934   .     S
O428   Zn475   1.934   .     S
O429   Zn950   1.934   .     S
O430   Zn469   1.934   .     S
O431   Zn1413  1.934   .     S
O432   Zn946   1.934   .     S
O433   Zn471   1.934   .     S
O434   Zn461   1.934   .     S
O435   Zn1421  1.934   .     S
O436   Zn474   1.934   .     S
O437   Zn468   1.936   .     S
O437   C1057   1.280   .     A
O438   Zn951   1.934   .     S
O439   Zn1424  1.934   .     S
O440   Zn473   1.934   .     S
O448   Zn467   1.936   .     S
O458   Zn462   1.936   .     S
O459   C584    1.279   .     A
O459   Zn476   1.936   .     S
O460   Zn464   1.936   .     S
Zn461  O1383   1.934   1_545 S
Zn463  O1356   1.943   .     S
Zn466  O891    1.943   .     S
Zn468  O1345   1.943   .     S
Zn469  O1387   1.934   1_545 S
Zn470  O908    1.934   1_455 S
Zn471  O899    1.934   1_455 S
Zn472  O1391   1.934   1_545 S
Zn473  O1377   1.934   1_545 S
Zn474  O905    1.934   1_455 S
Zn475  O914    1.934   1_455 S
Zn476  O902    1.943   .     S
C477   O917    1.384   .     S
C477   C554    1.399   .     A
C477   C572    1.409   .     A
C478   O927    1.389   .     S
C478   C564    1.403   .     A
C478   C577    1.408   .     A
C479   C620    1.409   .     A
C479   C591    1.457   .     S
C479   C627    1.412   .     A
C480   C630    1.408   .     A
C480   C592    1.453   .     S
C480   C619    1.407   .     A
C481   C618    1.409   .     A
C481   C593    1.457   .     S
C481   C629    1.412   .     A
C482   C617    1.407   .     A
C482   C632    1.408   .     A
C482   C594    1.453   .     S
C483   C595    1.457   .     S
C483   C616    1.409   .     A
C483   C631    1.412   .     A
C484   C605    1.453   .     S
C484   C635    1.407   .     A
C484   C615    1.408   .     A
C485   C614    1.412   .     A
C485   C606    1.457   .     S
C485   C633    1.409   .     A
C486   C598    1.453   .     S
C486   C637    1.407   .     A
C486   C613    1.408   .     A
C487   C636    1.409   .     A
C487   C611    1.412   .     A
C487   C599    1.457   .     S
C488   C639    1.407   .     A
C488   C610    1.408   .     A
C488   C600    1.453   .     S
C489   C578    1.408   .     A
C489   C565    1.400   .     A
C489   O928    1.385   .     S
C490   C602    1.457   .     S
C490   C609    1.412   .     A
C490   C638    1.409   .     A
C491   C603    1.453   .     S
C491   C608    1.408   .     A
C491   C641    1.407   .     A
C492   C640    1.409   .     A
C492   C607    1.412   .     A
C492   C604    1.457   .     S
C493   C554    1.399   .     A
C493   C588    1.457   .     S
C493   C1511   1.399   1_545 S
C494   C555    1.399   .     A
C494   C1512   1.399   1_545 S
C494   C587    1.461   .     S
C495   C561    1.399   .     A
C495   C586    1.458   .     S
C496   C562    1.399   .     A
C496   C585    1.461   .     S
C497   C108    1.457   1_655 S
C497   C563    1.398   .     A
C497   C91     1.399   1_655 S
C498   C583    1.462   .     S
C498   C564    1.400   .     A
C499   C570    1.398   .     A
C499   C582    1.457   .     S
C499   C1517   1.399   1_545 S
C500   O929    1.385   .     S
C500   C566    1.398   .     A
C500   C1532   1.408   1_545 S
C501   C1533   1.462   .     S
C501   C571    1.399   .     A
C501   C1518   1.399   .     S
C502   H745    1.109   .     S
C502   O917    1.411   .     S
C502   H734    1.112   .     S
C502   H723    1.114   .     S
C503   H751    1.111   .     S
C503   O918    1.411   .     S
C503   H752    1.109   .     S
C503   H750    1.114   .     S
C504   O919    1.409   .     S
C504   H753    1.114   .     S
C504   H754    1.113   .     S
C504   H755    1.109   .     S
C505   H758    1.109   .     S
C505   H757    1.111   .     S
C505   H756    1.115   .     S
C505   O920    1.412   .     S
C506   H761    1.113   .     S
C506   H759    1.114   .     S
C506   O921    1.410   .     S
C506   H762    1.109   .     S
C507   H764    1.111   .     S
C507   H763    1.115   .     S
C507   H765    1.109   .     S
C507   O922    1.412   .     S
C508   O923    1.410   .     S
C508   H766    1.114   .     S
C508   H767    1.113   .     S
C508   H768    1.109   .     S
C509   H769    1.115   .     S
C509   H770    1.111   .     S
C509   H772    1.109   .     S
C509   O925    1.412   .     S
C510   H774    1.113   .     S
C510   O926    1.409   .     S
C510   H775    1.109   .     S
C510   H773    1.114   .     S
C511   O930    1.387   .     S
C511   C576    1.409   .     A
C511   C567    1.401   .     A
C512   H777    1.111   .     S
C512   O927    1.412   .     S
C512   H776    1.115   .     S
C512   H778    1.109   .     S
C513   H781    1.109   .     S
C513   O928    1.411   .     S
C513   H780    1.111   .     S
C513   H779    1.114   .     S
C514   H784    1.112   .     S
C514   O929    1.411   .     S
C514   H785    1.109   .     S
C514   H783    1.114   .     S
C515   H787    1.111   .     S
C515   H788    1.109   .     S
C515   O930    1.411   .     S
C515   H786    1.114   .     S
C516   H789    1.114   .     S
C516   H791    1.109   .     S
C516   H790    1.112   .     S
C516   O931    1.410   .     S
C517   H792    1.113   .     S
C517   H794    1.113   .     S
C517   O932    1.409   .     S
C517   H795    1.109   .     S
C518   H798    1.109   .     S
C518   O933    1.412   .     S
C518   H796    1.115   .     S
C518   H797    1.111   .     S
C519   N837    1.450   .     S
C519   H802    1.110   .     S
C519   H800    1.110   .     S
C519   H801    1.109   .     S
C520   H805    1.110   .     S
C520   H807    1.108   .     S
C520   H806    1.113   .     S
C520   N848    1.450   .     S
C521   H811    1.110   .     S
C521   N859    1.450   .     S
C521   H810    1.110   .     S
C521   H809    1.109   .     S
C522   O931    1.384   .     S
C522   C569    1.397   .     A
C522   C101    1.408   1_655 S
C523   H816    1.108   .     S
C523   H814    1.113   .     S
C523   N863    1.450   .     S
C523   H813    1.110   .     S
C524   H818    1.109   .     S
C524   H820    1.110   .     S
C524   N864    1.450   .     S
C524   H819    1.110   .     S
C525   H822    1.110   .     S
C525   H823    1.113   .     S
C525   H824    1.108   .     S
C525   N865    1.450   .     S
C526   H827    1.110   .     S
C526   H829    1.109   .     S
C526   H828    1.110   .     S
C526   N866    1.450   .     S
C527   H833    1.108   .     S
C527   N867    1.450   .     S
C527   H831    1.110   .     S
C527   H832    1.113   .     S
C528   H836    1.113   .     S
C528   H835    1.110   .     S
C528   N868    1.450   .     S
C528   H647    1.109   .     S
C529   H649    1.111   .     S
C529   H651    1.110   .     S
C529   N838    1.447   .     S
C529   H650    1.111   .     S
C530   H654    1.113   .     S
C530   H655    1.109   .     S
C530   N839    1.450   .     S
C530   H653    1.110   .     S
C531   N840    1.447   .     S
C531   H660    1.111   .     S
C531   H658    1.111   .     S
C531   H659    1.111   .     S
C532   N841    1.450   .     S
C532   H663    1.113   .     S
C532   H662    1.110   .     S
C532   H664    1.109   .     S
C533   C570    1.396   .     A
C533   O932    1.382   .     S
C533   C1530   1.409   1_545 S
C534   H669    1.110   .     S
C534   H666    1.111   .     S
C534   N842    1.447   .     S
C534   H667    1.111   .     S
C535   H671    1.110   .     S
C535   N843    1.449   .     S
C535   H672    1.113   .     S
C535   H673    1.109   .     S
C536   H676    1.111   .     S
C536   N844    1.447   .     S
C536   H677    1.111   .     S
C536   H675    1.111   .     S
C537   H680    1.110   .     S
C537   N845    1.450   .     S
C537   H682    1.110   .     S
C537   H681    1.109   .     S
C538   H684    1.110   .     S
C538   H686    1.108   .     S
C538   N846    1.450   .     S
C538   H685    1.113   .     S
C539   H688    1.109   .     S
C539   N847    1.450   .     S
C539   H691    1.110   .     S
C539   H689    1.110   .     S
C540   H694    1.113   .     S
C540   N849    1.450   .     S
C540   H693    1.110   .     S
C540   H695    1.108   .     S
C541   H699    1.110   .     S
C541   H698    1.110   .     S
C541   H697    1.109   .     S
C541   N850    1.450   .     S
C542   N851    1.450   .     S
C542   H703    1.113   .     S
C542   H704    1.108   .     S
C542   H702    1.110   .     S
C543   H707    1.110   .     S
C543   N852    1.450   .     S
C543   H708    1.109   .     S
C543   H706    1.110   .     S
C544   O933    1.389   .     S
C544   C571    1.403   .     A
C544   C580    1.408   .     A
C545   H711    1.113   .     S
C545   H710    1.110   .     S
C545   N853    1.450   .     S
C545   H713    1.108   .     S
C546   H716    1.113   .     S
C546   H717    1.109   .     S
C546   N854    1.450   .     S
C546   H715    1.110   .     S
C547   H721    1.111   .     S
C547   H719    1.111   .     S
C547   H720    1.111   .     S
C547   N855    1.447   .     S
C548   H724    1.110   .     S
C548   H725    1.113   .     S
C548   H726    1.109   .     S
C548   N856    1.450   .     S
C549   H728    1.111   .     S
C549   N857    1.447   .     S
C549   H730    1.110   .     S
C549   H729    1.111   .     S
C550   H733    1.113   .     S
C550   N858    1.450   .     S
C550   H735    1.109   .     S
C550   H732    1.110   .     S
C551   H739    1.110   .     S
C551   H737    1.111   .     S
C551   N860    1.447   .     S
C551   H738    1.111   .     S
C552   N861    1.450   .     S
C552   H742    1.113   .     S
C552   H741    1.110   .     S
C552   H743    1.109   .     S
C553   N862    1.447   .     S
C553   H748    1.111   .     S
C553   H747    1.111   .     S
C553   H746    1.111   .     S
C554   H645    1.084   .     S
C555   H749    1.082   .     S
C555   C557    1.399   .     A
C556   C568    1.396   .     A
C556   H760    1.084   .     S
C556   C19     1.399   1_655 S
C557   O918    1.386   .     S
C557   C573    1.408   .     A
C558   H771    1.081   .     S
C558   C579    1.402   .     A
C558   C20     1.399   1_655 S
C559   C590    1.397   .     A
C559   H782    1.084   .     S
C559   C1445   1.399   .     S
C560   C601    1.401   .     A
C560   H793    1.082   .     S
C560   C1446   1.399   .     S
C561   C612    1.397   .     A
C561   H804    1.084   .     S
C562   C623    1.401   .     A
C562   H815    1.082   .     S
C563   H826    1.084   .     S
C563   C634    1.396   .     A
C564   H646    1.081   .     S
C565   H657    1.083   .     S
C565   C1451   1.399   .     S
C566   H668    1.082   .     S
C566   C1453   1.399   1_545 S
C567   H679    1.083   .     S
C568   O919    1.382   .     S
C568   C98     1.409   1_655 S
C569   H690    1.082   .     S
C569   C22     1.399   1_655 S
C570   H701    1.084   .     S
C571   H712    1.081   .     S
C572   C573    1.470   1_554 S
C572   C1542   1.409   1_545 S
C573   C572    1.470   1_556 S
C573   C1553   1.408   1_545 S
C574   C612    1.408   .     A
C574   C575    1.470   1_554 S
C575   C623    1.408   .     A
C575   C574    1.470   1_556 S
C576   C577    1.470   .     S
C578   C580    1.470   .     S
C578   C1485   1.409   .     S
C579   O920    1.389   .     S
C579   C99     1.408   1_655 S
C580   C1452   1.408   .     S
C581   C1453   1.462   1_545 S
C581   O1865   1.280   1_545 A
C581   O936    1.280   .     S
C582   O924    1.279   .     A
C582   O1822   1.279   1_545 S
C583   O934    1.280   .     A
C584   O872    1.279   .     S
C585   O877    1.280   .     A
C585   O873    1.280   .     S
C586   O874    1.279   .     S
C586   O878    1.279   .     S
C587   O879    1.280   .     A
C587   O875    1.280   .     A
C588   O876    1.279   .     A
C588   O881    1.279   .     A
C589   O882    1.273   .     A
C589   O910    1.279   .     A
C589   C644    1.453   .     S
C590   O921    1.383   .     S
C590   C1524   1.409   .     S
C591   O911    1.279   .     A
C591   O883    1.275   .     A
C592   O908    1.279   .     A
C592   O884    1.273   .     A
C593   O909    1.279   .     A
C593   O885    1.275   .     A
C594   O886    1.273   .     A
C594   O915    1.279   .     A
C595   O887    1.275   .     A
C595   O916    1.279   .     A
C596   C642    1.453   .     S
C596   O912    1.279   .     A
C596   O888    1.273   .     A
C597   O889    1.275   .     A
C597   C643    1.457   .     S
C597   O914    1.279   .     A
C598   O901    1.273   .     A
C598   O890    1.279   .     A
C599   O903    1.275   .     A
C599   O892    1.279   .     A
C600   O899    1.273   .     A
C600   O893    1.279   .     A
C601   O922    1.388   .     S
C601   C1525   1.408   .     S
C602   O900    1.275   .     A
C602   O894    1.279   .     A
C603   O895    1.278   .     A
C603   O906    1.273   .     A
C604   O907    1.275   .     A
C604   O896    1.279   .     A
C605   O904    1.273   .     A
C605   O897    1.279   .     A
C606   O898    1.279   .     A
C606   O905    1.275   .     A
C607   N837    1.427   .     S
C607   C624    1.406   .     A
C608   C622    1.402   .     A
C608   N848    1.427   .     S
C609   C621    1.406   .     A
C609   N859    1.427   .     S
C610   N863    1.427   .     S
C610   C620    1.402   .     A
C611   C619    1.406   .     A
C611   N864    1.427   .     S
C612   O923    1.383   .     S
C613   C618    1.402   .     A
C613   N865    1.427   .     S
C614   C617    1.406   .     A
C614   N866    1.427   .     S
C615   N867    1.427   .     S
C615   C616    1.402   .     A
C616   N868    1.427   .     S
C617   N838    1.428   .     S
C618   N839    1.427   .     S
C619   N840    1.428   .     S
C620   N841    1.427   .     S
C621   C644    1.407   .     A
C621   N842    1.428   .     S
C622   N843    1.427   .     S
C622   C643    1.409   .     A
C623   O925    1.388   .     S
C624   N844    1.428   .     S
C624   C642    1.407   .     A
C625   N845    1.427   .     S
C625   C641    1.406   .     A
C625   C643    1.412   .     A
C626   N846    1.427   .     S
C626   C642    1.408   .     A
C626   C640    1.402   .     A
C627   N847    1.427   .     S
C627   C639    1.406   .     A
C628   N849    1.427   .     S
C628   C644    1.408   .     A
C628   C638    1.402   .     A
C629   C637    1.406   .     A
C629   N850    1.427   .     S
C630   C636    1.402   .     A
C630   N851    1.427   .     S
C631   N852    1.427   .     S
C631   C635    1.406   .     A
C632   N853    1.427   .     S
C632   C633    1.402   .     A
C633   N854    1.427   .     S
C634   O926    1.382   .     S
C634   C100    1.409   1_655 S
C635   N855    1.429   .     S
C636   N856    1.427   .     S
C637   N857    1.428   .     S
C638   N858    1.427   .     S
C639   N860    1.428   .     S
C640   N861    1.427   .     S
C641   N862    1.428   .     S
H648   N838    1.028   .     S
H652   N839    1.031   .     S
H656   N840    1.028   .     S
H661   N841    1.030   .     S
H665   N842    1.028   .     S
H670   N843    1.030   .     S
H674   N844    1.028   .     S
H678   N845    1.031   .     S
H683   N846    1.031   .     S
H687   N847    1.031   .     S
H692   N849    1.031   .     S
H696   N850    1.031   .     S
H700   N851    1.031   .     S
H705   N852    1.031   .     S
H709   N853    1.031   .     S
H714   N854    1.030   .     S
H718   N855    1.028   .     S
H722   N856    1.030   .     S
H727   N857    1.028   .     S
H731   N858    1.031   .     S
H736   N860    1.028   .     S
H740   N861    1.030   .     S
H744   N862    1.028   .     S
H799   N837    1.031   .     S
H803   N848    1.031   .     S
H808   N859    1.031   .     S
H812   N863    1.031   .     S
H817   N864    1.031   .     S
H821   N865    1.031   .     S
H825   N866    1.031   .     S
H830   N867    1.031   .     S
H834   N868    1.030   .     S
O869   Zn937   1.943   .     S
O869   Zn1896  1.943   1_545 S
O869   Zn948   1.943   .     S
O869   Zn940   1.943   .     S
O870   Zn939   1.936   .     S
O870   C1534   1.279   .     S
O871   Zn942   1.936   .     S
O871   C107    1.280   1_655 S
O872   Zn941   1.936   .     S
O873   Zn951   1.936   .     S
O874   Zn950   1.936   .     S
O875   Zn945   1.936   .     S
O876   Zn937   1.936   .     S
O877   Zn947   1.936   .     S
O878   Zn946   1.936   .     S
O879   Zn949   1.936   .     S
O880   Zn943   1.943   .     S
O880   Zn945   1.943   .     S
O880   Zn949   1.943   .     S
O880   Zn1891  1.943   1_545 S
O881   Zn948   1.936   .     S
O882   Zn940   1.934   .     S
O883   Zn939   1.934   .     S
O884   Zn942   1.934   .     S
O885   Zn941   1.934   .     S
O886   Zn944   1.934   .     S
O887   Zn943   1.934   .     S
O888   Zn938   1.934   .     S
O889   Zn952   1.934   .     S
O890   Zn939   1.934   .     S
O891   Zn950   1.943   .     S
O891   Zn938   1.943   .     S
O891   Zn946   1.943   .     S
O892   Zn940   1.934   .     S
O893   Zn952   1.934   .     S
O894   Zn938   1.934   .     S
O895   Zn943   1.934   .     S
O896   Zn944   1.934   .     S
O897   Zn941   1.934   .     S
O898   Zn942   1.934   .     S
O899   Zn471   1.934   1_655 S
O900   Zn946   1.934   .     S
O901   Zn1901  1.934   .     S
O902   Zn941   1.943   .     S
O902   Zn947   1.943   .     S
O902   Zn951   1.943   .     S
O903   Zn948   1.934   .     S
O904   Zn951   1.934   .     S
O905   Zn474   1.934   1_655 S
O906   Zn945   1.934   .     S
O907   Zn1889  1.934   .     S
O908   Zn470   1.934   1_655 S
O909   Zn947   1.934   .     S
O910   Zn937   1.934   .     S
O911   Zn1897  1.934   .     S
O912   Zn950   1.934   .     S
O913   Zn944   1.936   .     S
O913   C1533   1.280   .     A
O914   Zn475   1.934   1_655 S
O915   Zn1900  1.934   .     S
O916   Zn949   1.934   .     S
O924   Zn943   1.936   .     S
O934   Zn938   1.936   .     S
O935   C108    1.279   1_655 A
O935   Zn952   1.936   .     S
O936   Zn940   1.936   .     S
Zn937  O1859   1.934   1_545 S
Zn939  O1832   1.943   .     S
Zn942  O415    1.943   1_655 S
Zn944  O1821   1.943   .     S
Zn945  O1863   1.934   1_545 S
Zn948  O1867   1.934   1_545 S
Zn949  O1853   1.934   1_545 S
Zn952  O426    1.943   1_655 S
C953   O1393   1.384   .     S
C953   C1030   1.399   .     A
C953   C1048   1.409   .     A
C954   O1403   1.389   .     S
C954   C1040   1.403   .     A
C954   C1053   1.408   .     A
C955   C1096   1.409   .     A
C955   C1067   1.457   .     S
C955   C1103   1.412   .     A
C956   C1106   1.408   .     A
C956   C1068   1.453   .     S
C956   C1095   1.407   .     A
C957   C1094   1.409   .     A
C957   C1069   1.457   .     S
C957   C1105   1.412   .     A
C958   C1093   1.407   .     A
C958   C1108   1.408   .     A
C958   C1070   1.453   .     S
C959   C1071   1.457   .     S
C959   C1092   1.409   .     A
C959   C1107   1.412   .     A
C960   C1081   1.453   .     S
C960   C1111   1.407   .     A
C960   C1091   1.408   .     A
C961   C1090   1.412   .     A
C961   C1082   1.457   .     S
C961   C1109   1.409   .     A
C962   C1074   1.453   .     S
C962   C1113   1.407   .     A
C962   C1089   1.408   .     A
C963   C1112   1.409   .     A
C963   C1087   1.412   .     A
C963   C1075   1.457   .     S
C964   C1115   1.407   .     A
C964   C1086   1.408   .     A
C964   C1076   1.453   .     S
C965   C1054   1.408   .     A
C965   C1041   1.400   .     A
C965   O1404   1.385   .     S
C966   C1078   1.457   .     S
C966   C1085   1.412   .     A
C966   C1114   1.409   .     A
C967   C1079   1.453   .     S
C967   C1084   1.408   .     A
C967   C1117   1.407   .     A
C968   C1116   1.409   .     A
C968   C1083   1.412   .     A
C968   C1080   1.457   .     S
C969   C1030   1.399   .     A
C969   C1064   1.457   .     S
C970   C1031   1.399   .     A
C970   C1063   1.461   .     S
C971   C1037   1.399   .     A
C971   C1062   1.458   .     S
C971   C1508   1.399   1_455 S
C972   C1038   1.399   .     A
C972   C1061   1.461   .     S
C972   C1510   1.399   1_455 S
C973   C1536   1.457   .     S
C973   C1039   1.398   .     A
C973   C1519   1.399   .     S
C974   C1059   1.462   .     S
C974   C1040   1.400   .     A
C974   C1521   1.399   1_455 S
C975   C1046   1.398   .     A
C975   C1058   1.457   .     S
C976   O1405   1.385   .     S
C976   C1042   1.398   .     A
C977   C105    1.462   1_565 S
C977   C1047   1.399   .     A
C977   C90     1.399   1_565 S
C978   H1221   1.109   .     S
C978   O1393   1.411   .     S
C978   H1210   1.112   .     S
C978   H1199   1.114   .     S
C979   H1227   1.111   .     S
C979   O1394   1.411   .     S
C979   H1228   1.109   .     S
C979   H1226   1.114   .     S
C980   O1395   1.409   .     S
C980   H1229   1.114   .     S
C980   H1230   1.113   .     S
C980   H1231   1.109   .     S
C981   H1234   1.109   .     S
C981   H1233   1.111   .     S
C981   H1232   1.115   .     S
C981   O1396   1.412   .     S
C982   H1237   1.113   .     S
C982   H1235   1.114   .     S
C982   O1397   1.410   .     S
C982   H1238   1.109   .     S
C983   H1240   1.111   .     S
C983   H1239   1.115   .     S
C983   H1241   1.109   .     S
C983   O1398   1.412   .     S
C984   O1399   1.410   .     S
C984   H1242   1.114   .     S
C984   H1243   1.113   .     S
C984   H1244   1.109   .     S
C985   H1245   1.115   .     S
C985   H1246   1.111   .     S
C985   H1248   1.109   .     S
C985   O1401   1.412   .     S
C986   H1250   1.113   .     S
C986   O1402   1.409   .     S
C986   H1251   1.109   .     S
C986   H1249   1.114   .     S
C987   O1406   1.387   .     S
C987   C1052   1.409   .     A
C987   C1043   1.401   .     A
C988   H1253   1.111   .     S
C988   O1403   1.412   .     S
C988   H1252   1.115   .     S
C988   H1254   1.109   .     S
C989   H1257   1.109   .     S
C989   O1404   1.411   .     S
C989   H1256   1.111   .     S
C989   H1255   1.114   .     S
C990   H1260   1.112   .     S
C990   O1405   1.411   .     S
C990   H1261   1.109   .     S
C990   H1259   1.114   .     S
C991   H1263   1.111   .     S
C991   H1264   1.109   .     S
C991   O1406   1.411   .     S
C991   H1262   1.114   .     S
C992   H1265   1.114   .     S
C992   H1267   1.109   .     S
C992   H1266   1.112   .     S
C992   O1407   1.410   .     S
C993   H1268   1.113   .     S
C993   H1270   1.113   .     S
C993   O1408   1.409   .     S
C993   H1271   1.109   .     S
C994   H1274   1.109   .     S
C994   O1409   1.412   .     S
C994   H1272   1.115   .     S
C994   H1273   1.111   .     S
C995   N1313   1.450   .     S
C995   H1278   1.110   .     S
C995   H1276   1.110   .     S
C995   H1277   1.109   .     S
C996   H1281   1.110   .     S
C996   H1283   1.108   .     S
C996   H1282   1.113   .     S
C996   N1324   1.450   .     S
C997   H1287   1.110   .     S
C997   N1335   1.450   .     S
C997   H1286   1.110   .     S
C997   H1285   1.109   .     S
C998   O1407   1.384   .     S
C998   C1045   1.397   .     A
C998   C1529   1.408   .     S
C999   H1292   1.108   .     S
C999   H1290   1.113   .     S
C999   N1339   1.450   .     S
C999   H1289   1.110   .     S
C1000  H1294   1.109   .     S
C1000  H1296   1.110   .     S
C1000  N1340   1.450   .     S
C1000  H1295   1.110   .     S
C1001  H1298   1.110   .     S
C1001  H1299   1.113   .     S
C1001  H1300   1.108   .     S
C1001  N1341   1.450   .     S
C1002  H1303   1.110   .     S
C1002  H1305   1.109   .     S
C1002  H1304   1.110   .     S
C1002  N1342   1.450   .     S
C1003  H1309   1.108   .     S
C1003  N1343   1.450   .     S
C1003  H1307   1.110   .     S
C1003  H1308   1.113   .     S
C1004  H1312   1.113   .     S
C1004  H1311   1.110   .     S
C1004  N1344   1.450   .     S
C1004  H1123   1.109   .     S
C1005  H1125   1.111   .     S
C1005  H1127   1.110   .     S
C1005  N1314   1.447   .     S
C1005  H1126   1.111   .     S
C1006  H1130   1.113   .     S
C1006  H1131   1.109   .     S
C1006  N1315   1.450   .     S
C1006  H1129   1.110   .     S
C1007  N1316   1.447   .     S
C1007  H1136   1.111   .     S
C1007  H1134   1.111   .     S
C1007  H1135   1.111   .     S
C1008  N1317   1.450   .     S
C1008  H1139   1.113   .     S
C1008  H1138   1.110   .     S
C1008  H1140   1.109   .     S
C1009  C1046   1.396   .     A
C1009  O1408   1.382   .     S
C1010  H1145   1.110   .     S
C1010  H1142   1.111   .     S
C1010  N1318   1.447   .     S
C1010  H1143   1.111   .     S
C1011  H1147   1.110   .     S
C1011  N1319   1.449   .     S
C1011  H1148   1.113   .     S
C1011  H1149   1.109   .     S
C1012  H1152   1.111   .     S
C1012  N1320   1.447   .     S
C1012  H1153   1.111   .     S
C1012  H1151   1.111   .     S
C1013  H1156   1.110   .     S
C1013  N1321   1.450   .     S
C1013  H1158   1.110   .     S
C1013  H1157   1.109   .     S
C1014  H1160   1.110   .     S
C1014  H1162   1.108   .     S
C1014  N1322   1.450   .     S
C1014  H1161   1.113   .     S
C1015  H1164   1.109   .     S
C1015  N1323   1.450   .     S
C1015  H1167   1.110   .     S
C1015  H1165   1.110   .     S
C1016  H1170   1.113   .     S
C1016  N1325   1.450   .     S
C1016  H1169   1.110   .     S
C1016  H1171   1.108   .     S
C1017  H1175   1.110   .     S
C1017  H1174   1.110   .     S
C1017  H1173   1.109   .     S
C1017  N1326   1.450   .     S
C1018  N1327   1.450   .     S
C1018  H1179   1.113   .     S
C1018  H1180   1.108   .     S
C1018  H1178   1.110   .     S
C1019  H1183   1.110   .     S
C1019  N1328   1.450   .     S
C1019  H1184   1.109   .     S
C1019  H1182   1.110   .     S
C1020  O1409   1.389   .     S
C1020  C1047   1.403   .     A
C1020  C1056   1.408   .     A
C1021  H1187   1.113   .     S
C1021  H1186   1.110   .     S
C1021  N1329   1.450   .     S
C1021  H1189   1.108   .     S
C1022  H1192   1.113   .     S
C1022  H1193   1.109   .     S
C1022  N1330   1.450   .     S
C1022  H1191   1.110   .     S
C1023  H1197   1.111   .     S
C1023  H1195   1.111   .     S
C1023  H1196   1.111   .     S
C1023  N1331   1.447   .     S
C1024  H1200   1.110   .     S
C1024  H1201   1.113   .     S
C1024  H1202   1.109   .     S
C1024  N1332   1.450   .     S
C1025  H1204   1.111   .     S
C1025  N1333   1.447   .     S
C1025  H1206   1.110   .     S
C1025  H1205   1.111   .     S
C1026  H1209   1.113   .     S
C1026  N1334   1.450   .     S
C1026  H1211   1.109   .     S
C1026  H1208   1.110   .     S
C1027  H1215   1.110   .     S
C1027  H1213   1.111   .     S
C1027  N1336   1.447   .     S
C1027  H1214   1.111   .     S
C1028  N1337   1.450   .     S
C1028  H1218   1.113   .     S
C1028  H1217   1.110   .     S
C1028  H1219   1.109   .     S
C1029  N1338   1.447   .     S
C1029  H1224   1.111   .     S
C1029  H1223   1.111   .     S
C1029  H1222   1.111   .     S
C1030  H1121   1.084   .     S
C1031  H1225   1.082   .     S
C1031  C1033   1.399   .     A
C1032  C1044   1.396   .     A
C1032  H1236   1.084   .     S
C1032  C1447   1.399   .     S
C1033  O1394   1.386   .     S
C1033  C1049   1.408   .     A
C1034  H1247   1.081   .     S
C1034  C1055   1.402   .     A
C1034  C1448   1.399   .     S
C1035  C1066   1.397   .     A
C1035  H1258   1.084   .     S
C1035  C17     1.399   1_565 S
C1036  C1077   1.401   .     A
C1036  H1269   1.082   .     S
C1036  C18     1.399   1_565 S
C1037  C1088   1.397   .     A
C1037  H1280   1.084   .     S
C1038  C1099   1.401   .     A
C1038  H1291   1.082   .     S
C1039  H1302   1.084   .     S
C1039  C1110   1.396   .     A
C1040  H1122   1.081   .     S
C1041  H1133   1.083   .     S
C1041  C23     1.399   1_565 S
C1042  H1144   1.082   .     S
C1043  H1155   1.083   .     S
C1043  C1449   1.399   1_455 S
C1044  O1395   1.382   .     S
C1044  C1526   1.409   .     S
C1045  H1166   1.082   .     S
C1045  C1450   1.399   .     S
C1046  H1177   1.084   .     S
C1047  H1188   1.081   .     S
C1048  C1049   1.470   1_554 S
C1049  C1048   1.470   1_556 S
C1050  C1088   1.408   .     A
C1050  C1520   1.409   1_455 S
C1050  C1051   1.470   1_554 S
C1051  C1099   1.408   .     A
C1051  C1050   1.470   1_556 S
C1051  C1531   1.408   1_455 S
C1052  C1053   1.470   .     S
C1052  C1586   1.409   1_455 S
C1053  C1474   1.408   1_455 S
C1054  C1056   1.470   .     S
C1054  C57     1.409   1_565 S
C1055  O1396   1.389   .     S
C1055  C1527   1.408   .     S
C1056  C24     1.408   1_565 S
C1057  O1412   1.280   .     S
C1058  O1400   1.279   .     A
C1059  O1410   1.280   .     A
C1059  O1823   1.280   1_455 S
C1060  O1887   1.279   1_455 A
C1060  C1449   1.457   1_455 S
C1060  O1348   1.279   .     S
C1061  O1353   1.280   .     A
C1061  O1349   1.280   .     S
C1062  O1350   1.279   .     S
C1062  O1354   1.279   .     S
C1063  O1355   1.280   .     A
C1063  O1351   1.280   .     A
C1064  O1352   1.279   .     A
C1064  O1357   1.279   .     A
C1065  O1358   1.273   .     A
C1065  O1386   1.279   .     A
C1065  C1120   1.453   .     S
C1066  O1397   1.383   .     S
C1066  C96     1.409   1_565 S
C1067  O1387   1.279   .     A
C1067  O1359   1.275   .     A
C1068  O1384   1.279   .     A
C1068  O1360   1.273   .     A
C1069  O1385   1.279   .     A
C1069  O1361   1.275   .     A
C1070  O1362   1.273   .     A
C1070  O1391   1.279   .     A
C1071  O1363   1.275   .     A
C1071  O1392   1.279   .     A
C1072  C1118   1.453   .     S
C1072  O1388   1.279   .     A
C1072  O1364   1.273   .     A
C1073  O1365   1.275   .     A
C1073  C1119   1.457   .     S
C1073  O1390   1.279   .     A
C1074  O1377   1.273   .     A
C1074  O1366   1.279   .     A
C1075  O1379   1.275   .     A
C1075  O1368   1.279   .     A
C1076  O1375   1.273   .     A
C1076  O1369   1.279   .     A
C1077  O1398   1.388   .     S
C1077  C97     1.408   1_565 S
C1078  O1376   1.275   .     A
C1078  O1370   1.279   .     A
C1079  O1371   1.278   .     A
C1079  O1382   1.273   .     A
C1080  O1383   1.275   .     A
C1080  O1372   1.279   .     A
C1081  O1380   1.273   .     A
C1081  O1373   1.279   .     A
C1082  O1374   1.279   .     A
C1082  O1381   1.275   .     A
C1083  N1313   1.427   .     S
C1083  C1100   1.406   .     A
C1084  C1098   1.402   .     A
C1084  N1324   1.427   .     S
C1085  C1097   1.406   .     A
C1085  N1335   1.427   .     S
C1086  N1339   1.427   .     S
C1086  C1096   1.402   .     A
C1087  C1095   1.406   .     A
C1087  N1340   1.427   .     S
C1088  O1399   1.383   .     S
C1089  C1094   1.402   .     A
C1089  N1341   1.427   .     S
C1090  C1093   1.406   .     A
C1090  N1342   1.427   .     S
C1091  N1343   1.427   .     S
C1091  C1092   1.402   .     A
C1092  N1344   1.427   .     S
C1093  N1314   1.428   .     S
C1094  N1315   1.427   .     S
C1095  N1316   1.428   .     S
C1096  N1317   1.427   .     S
C1097  C1120   1.407   .     A
C1097  N1318   1.428   .     S
C1098  N1319   1.427   .     S
C1098  C1119   1.409   .     A
C1099  O1401   1.388   .     S
C1100  N1320   1.428   .     S
C1100  C1118   1.407   .     A
C1101  N1321   1.427   .     S
C1101  C1117   1.406   .     A
C1101  C1119   1.412   .     A
C1102  N1322   1.427   .     S
C1102  C1118   1.408   .     A
C1102  C1116   1.402   .     A
C1103  N1323   1.427   .     S
C1103  C1115   1.406   .     A
C1104  N1325   1.427   .     S
C1104  C1120   1.408   .     A
C1104  C1114   1.402   .     A
C1105  C1113   1.406   .     A
C1105  N1326   1.427   .     S
C1106  C1112   1.402   .     A
C1106  N1327   1.427   .     S
C1107  N1328   1.427   .     S
C1107  C1111   1.406   .     A
C1108  N1329   1.427   .     S
C1108  C1109   1.402   .     A
C1109  N1330   1.427   .     S
C1110  O1402   1.382   .     S
C1110  C1528   1.409   .     S
C1111  N1331   1.429   .     S
C1112  N1332   1.427   .     S
C1113  N1333   1.428   .     S
C1114  N1334   1.427   .     S
C1115  N1336   1.428   .     S
C1116  N1337   1.427   .     S
C1117  N1338   1.428   .     S
H1124  N1314   1.028   .     S
H1128  N1315   1.031   .     S
H1132  N1316   1.028   .     S
H1137  N1317   1.030   .     S
H1141  N1318   1.028   .     S
H1146  N1319   1.030   .     S
H1150  N1320   1.028   .     S
H1154  N1321   1.031   .     S
H1159  N1322   1.031   .     S
H1163  N1323   1.031   .     S
H1168  N1325   1.031   .     S
H1172  N1326   1.031   .     S
H1176  N1327   1.031   .     S
H1181  N1328   1.031   .     S
H1185  N1329   1.031   .     S
H1190  N1330   1.030   .     S
H1194  N1331   1.028   .     S
H1198  N1332   1.030   .     S
H1203  N1333   1.028   .     S
H1207  N1334   1.031   .     S
H1212  N1336   1.028   .     S
H1216  N1337   1.030   .     S
H1220  N1338   1.028   .     S
H1275  N1313   1.031   .     S
H1279  N1324   1.031   .     S
H1284  N1335   1.031   .     S
H1288  N1339   1.031   .     S
H1293  N1340   1.031   .     S
H1297  N1341   1.031   .     S
H1301  N1342   1.031   .     S
H1306  N1343   1.031   .     S
H1310  N1344   1.030   .     S
O1345  Zn1413  1.943   .     S
O1345  Zn1424  1.943   .     S
O1345  Zn1416  1.943   .     S
O1346  Zn1415  1.936   .     S
O1346  C106    1.279   1_565 S
O1347  Zn1418  1.936   .     S
O1347  C1535   1.280   .     S
O1348  Zn1417  1.936   .     S
O1349  Zn1427  1.936   .     S
O1350  Zn1426  1.936   .     S
O1351  Zn1421  1.936   .     S
O1352  Zn1413  1.936   .     S
O1353  Zn1423  1.936   .     S
O1354  Zn1422  1.936   .     S
O1355  Zn1425  1.936   .     S
O1356  Zn1419  1.943   .     S
O1356  Zn1421  1.943   .     S
O1356  Zn1425  1.943   .     S
O1357  Zn1424  1.936   .     S
O1358  Zn1416  1.934   .     S
O1359  Zn1415  1.934   .     S
O1360  Zn1418  1.934   .     S
O1361  Zn1417  1.934   .     S
O1362  Zn1420  1.934   .     S
O1363  Zn1419  1.934   .     S
O1364  Zn1414  1.934   .     S
O1365  Zn1428  1.934   .     S
O1366  Zn1415  1.934   .     S
O1367  Zn1894  1.943   1_455 S
O1367  Zn1426  1.943   .     S
O1367  Zn1414  1.943   .     S
O1367  Zn1422  1.943   .     S
O1368  Zn1416  1.934   .     S
O1369  Zn1428  1.934   .     S
O1370  Zn1414  1.934   .     S
O1371  Zn1419  1.934   .     S
O1372  Zn1420  1.934   .     S
O1373  Zn1417  1.934   .     S
O1374  Zn1418  1.934   .     S
O1375  Zn1899  1.934   .     S
O1376  Zn1422  1.934   .     S
O1377  Zn473   1.934   1_565 S
O1378  Zn1904  1.943   1_455 S
O1378  Zn1417  1.943   .     S
O1378  Zn1423  1.943   .     S
O1378  Zn1427  1.943   .     S
O1379  Zn1424  1.934   .     S
O1380  Zn1427  1.934   .     S
O1381  Zn1902  1.934   .     S
O1382  Zn1421  1.934   .     S
O1383  Zn461   1.934   1_565 S
O1384  Zn1898  1.934   .     S
O1385  Zn1423  1.934   .     S
O1386  Zn1413  1.934   .     S
O1387  Zn469   1.934   1_565 S
O1388  Zn1426  1.934   .     S
O1389  Zn1420  1.936   .     S
O1389  C105    1.280   1_565 A
O1390  Zn1903  1.934   .     S
O1391  Zn472   1.934   1_565 S
O1392  Zn1425  1.934   .     S
O1400  Zn1419  1.936   .     S
O1410  Zn1414  1.936   .     S
O1411  C1536   1.279   .     A
O1411  Zn1428  1.936   .     S
O1412  Zn1416  1.936   .     S
Zn1415 O404    1.943   1_565 S
Zn1418 O1843   1.943   .     S
Zn1420 O393    1.943   1_565 S
Zn1422 O1860   1.934   1_455 S
Zn1423 O1851   1.934   1_455 S
Zn1426 O1857   1.934   1_455 S
Zn1427 O1866   1.934   1_455 S
Zn1428 O1854   1.943   .     S
C1429  O1869   1.384   .     S
C1429  C1506   1.399   .     A
C1429  C1524   1.409   .     A
C1430  O1879   1.389   .     S
C1430  C1516   1.403   .     A
C1430  C1529   1.408   .     A
C1431  C1572   1.409   .     A
C1431  C1543   1.457   .     S
C1431  C1579   1.412   .     A
C1432  C1582   1.408   .     A
C1432  C1544   1.453   .     S
C1432  C1571   1.407   .     A
C1433  C1570   1.409   .     A
C1433  C1545   1.457   .     S
C1433  C1581   1.412   .     A
C1434  C1569   1.407   .     A
C1434  C1584   1.408   .     A
C1434  C1546   1.453   .     S
C1435  C1547   1.457   .     S
C1435  C1568   1.409   .     A
C1435  C1583   1.412   .     A
C1436  C1557   1.453   .     S
C1436  C1587   1.407   .     A
C1436  C1567   1.408   .     A
C1437  C1566   1.412   .     A
C1437  C1558   1.457   .     S
C1437  C1585   1.409   .     A
C1438  C1550   1.453   .     S
C1438  C1589   1.407   .     A
C1438  C1565   1.408   .     A
C1439  C1588   1.409   .     A
C1439  C1563   1.412   .     A
C1439  C1551   1.457   .     S
C1440  C1591   1.407   .     A
C1440  C1562   1.408   .     A
C1440  C1552   1.453   .     S
C1441  C1530   1.408   .     A
C1441  C1517   1.400   .     A
C1441  O1880   1.385   .     S
C1442  C1554   1.457   .     S
C1442  C1561   1.412   .     A
C1442  C1590   1.409   .     A
C1443  C1555   1.453   .     S
C1443  C1560   1.408   .     A
C1443  C1593   1.407   .     A
C1444  C1592   1.409   .     A
C1444  C1559   1.412   .     A
C1444  C1556   1.457   .     S
C1445  C1506   1.399   .     A
C1445  C1540   1.457   .     S
C1446  C1507   1.399   .     A
C1446  C1539   1.461   .     S
C1447  C1513   1.399   .     A
C1447  C1538   1.458   .     S
C1448  C1514   1.399   .     A
C1448  C1537   1.461   .     S
C1449  C1060   1.457   1_655 S
C1449  C1515   1.398   .     A
C1449  C1043   1.399   1_655 S
C1450  C1535   1.462   .     S
C1450  C1516   1.400   .     A
C1451  C1522   1.398   .     A
C1451  C1534   1.457   .     S
C1452  O1881   1.385   .     S
C1452  C1518   1.398   .     A
C1453  C581    1.462   1_565 S
C1453  C1523   1.399   .     A
C1453  C566    1.399   1_565 S
C1454  H1697   1.109   .     S
C1454  O1869   1.411   .     S
C1454  H1686   1.112   .     S
C1454  H1675   1.114   .     S
C1455  H1703   1.111   .     S
C1455  O1870   1.411   .     S
C1455  H1704   1.109   .     S
C1455  H1702   1.114   .     S
C1456  O1871   1.409   .     S
C1456  H1705   1.114   .     S
C1456  H1706   1.113   .     S
C1456  H1707   1.109   .     S
C1457  H1710   1.109   .     S
C1457  H1709   1.111   .     S
C1457  H1708   1.115   .     S
C1457  O1872   1.412   .     S
C1458  H1713   1.113   .     S
C1458  H1711   1.114   .     S
C1458  O1873   1.410   .     S
C1458  H1714   1.109   .     S
C1459  H1716   1.111   .     S
C1459  H1715   1.115   .     S
C1459  H1717   1.109   .     S
C1459  O1874   1.412   .     S
C1460  O1875   1.410   .     S
C1460  H1718   1.114   .     S
C1460  H1719   1.113   .     S
C1460  H1720   1.109   .     S
C1461  H1721   1.115   .     S
C1461  H1722   1.111   .     S
C1461  H1724   1.109   .     S
C1461  O1877   1.412   .     S
C1462  H1726   1.113   .     S
C1462  O1878   1.409   .     S
C1462  H1727   1.109   .     S
C1462  H1725   1.114   .     S
C1463  O1882   1.387   .     S
C1463  C1528   1.409   .     A
C1463  C1519   1.401   .     A
C1464  H1729   1.111   .     S
C1464  O1879   1.412   .     S
C1464  H1728   1.115   .     S
C1464  H1730   1.109   .     S
C1465  H1733   1.109   .     S
C1465  O1880   1.411   .     S
C1465  H1732   1.111   .     S
C1465  H1731   1.114   .     S
C1466  H1736   1.112   .     S
C1466  O1881   1.411   .     S
C1466  H1737   1.109   .     S
C1466  H1735   1.114   .     S
C1467  H1739   1.111   .     S
C1467  H1740   1.109   .     S
C1467  O1882   1.411   .     S
C1467  H1738   1.114   .     S
C1468  H1741   1.114   .     S
C1468  H1743   1.109   .     S
C1468  H1742   1.112   .     S
C1468  O1883   1.410   .     S
C1469  H1744   1.113   .     S
C1469  H1746   1.113   .     S
C1469  O1884   1.409   .     S
C1469  H1747   1.109   .     S
C1470  H1750   1.109   .     S
C1470  O1885   1.412   .     S
C1470  H1748   1.115   .     S
C1470  H1749   1.111   .     S
C1471  N1789   1.450   .     S
C1471  H1754   1.110   .     S
C1471  H1752   1.110   .     S
C1471  H1753   1.109   .     S
C1472  H1757   1.110   .     S
C1472  H1759   1.108   .     S
C1472  H1758   1.113   .     S
C1472  N1800   1.450   .     S
C1473  H1763   1.110   .     S
C1473  N1811   1.450   .     S
C1473  H1762   1.110   .     S
C1473  H1761   1.109   .     S
C1474  O1883   1.384   .     S
C1474  C1521   1.397   .     A
C1474  C1053   1.408   1_655 S
C1475  H1768   1.108   .     S
C1475  H1766   1.113   .     S
C1475  N1815   1.450   .     S
C1475  H1765   1.110   .     S
C1476  H1770   1.109   .     S
C1476  H1772   1.110   .     S
C1476  N1816   1.450   .     S
C1476  H1771   1.110   .     S
C1477  H1774   1.110   .     S
C1477  H1775   1.113   .     S
C1477  H1776   1.108   .     S
C1477  N1817   1.450   .     S
C1478  H1779   1.110   .     S
C1478  H1781   1.109   .     S
C1478  H1780   1.110   .     S
C1478  N1818   1.450   .     S
C1479  H1785   1.108   .     S
C1479  N1819   1.450   .     S
C1479  H1783   1.110   .     S
C1479  H1784   1.113   .     S
C1480  H1788   1.113   .     S
C1480  H1787   1.110   .     S
C1480  N1820   1.450   .     S
C1480  H1599   1.109   .     S
C1481  H1601   1.111   .     S
C1481  H1603   1.110   .     S
C1481  N1790   1.447   .     S
C1481  H1602   1.111   .     S
C1482  H1606   1.113   .     S
C1482  H1607   1.109   .     S
C1482  N1791   1.450   .     S
C1482  H1605   1.110   .     S
C1483  N1792   1.447   .     S
C1483  H1612   1.111   .     S
C1483  H1610   1.111   .     S
C1483  H1611   1.111   .     S
C1484  N1793   1.450   .     S
C1484  H1615   1.113   .     S
C1484  H1614   1.110   .     S
C1484  H1616   1.109   .     S
C1485  C1522   1.396   .     A
C1485  O1884   1.382   .     S
C1486  H1621   1.110   .     S
C1486  H1618   1.111   .     S
C1486  N1794   1.447   .     S
C1486  H1619   1.111   .     S
C1487  H1623   1.110   .     S
C1487  N1795   1.449   .     S
C1487  H1624   1.113   .     S
C1487  H1625   1.109   .     S
C1488  H1628   1.111   .     S
C1488  N1796   1.447   .     S
C1488  H1629   1.111   .     S
C1488  H1627   1.111   .     S
C1489  H1632   1.110   .     S
C1489  N1797   1.450   .     S
C1489  H1634   1.110   .     S
C1489  H1633   1.109   .     S
C1490  H1636   1.110   .     S
C1490  H1638   1.108   .     S
C1490  N1798   1.450   .     S
C1490  H1637   1.113   .     S
C1491  H1640   1.109   .     S
C1491  N1799   1.450   .     S
C1491  H1643   1.110   .     S
C1491  H1641   1.110   .     S
C1492  H1646   1.113   .     S
C1492  N1801   1.450   .     S
C1492  H1645   1.110   .     S
C1492  H1647   1.108   .     S
C1493  H1651   1.110   .     S
C1493  H1650   1.110   .     S
C1493  H1649   1.109   .     S
C1493  N1802   1.450   .     S
C1494  N1803   1.450   .     S
C1494  H1655   1.113   .     S
C1494  H1656   1.108   .     S
C1494  H1654   1.110   .     S
C1495  H1659   1.110   .     S
C1495  N1804   1.450   .     S
C1495  H1660   1.109   .     S
C1495  H1658   1.110   .     S
C1496  O1885   1.389   .     S
C1496  C1523   1.403   .     A
C1496  C1532   1.408   .     A
C1497  H1663   1.113   .     S
C1497  H1662   1.110   .     S
C1497  N1805   1.450   .     S
C1497  H1665   1.108   .     S
C1498  H1668   1.113   .     S
C1498  H1669   1.109   .     S
C1498  N1806   1.450   .     S
C1498  H1667   1.110   .     S
C1499  H1673   1.111   .     S
C1499  H1671   1.111   .     S
C1499  H1672   1.111   .     S
C1499  N1807   1.447   .     S
C1500  H1676   1.110   .     S
C1500  H1677   1.113   .     S
C1500  H1678   1.109   .     S
C1500  N1808   1.450   .     S
C1501  H1680   1.111   .     S
C1501  N1809   1.447   .     S
C1501  H1682   1.110   .     S
C1501  H1681   1.111   .     S
C1502  H1685   1.113   .     S
C1502  N1810   1.450   .     S
C1502  H1687   1.109   .     S
C1502  H1684   1.110   .     S
C1503  H1691   1.110   .     S
C1503  H1689   1.111   .     S
C1503  N1812   1.447   .     S
C1503  H1690   1.111   .     S
C1504  N1813   1.450   .     S
C1504  H1694   1.113   .     S
C1504  H1693   1.110   .     S
C1504  H1695   1.109   .     S
C1505  N1814   1.447   .     S
C1505  H1700   1.111   .     S
C1505  H1699   1.111   .     S
C1505  H1698   1.111   .     S
C1506  H1597   1.084   .     S
C1507  H1701   1.082   .     S
C1507  C1509   1.399   .     A
C1508  C1520   1.396   .     A
C1508  H1712   1.084   .     S
C1508  C971    1.399   1_655 S
C1509  O1870   1.386   .     S
C1509  C1525   1.408   .     A
C1510  H1723   1.081   .     S
C1510  C1531   1.402   .     A
C1510  C972    1.399   1_655 S
C1511  C1542   1.397   .     A
C1511  H1734   1.084   .     S
C1511  C493    1.399   1_565 S
C1512  C1553   1.401   .     A
C1512  H1745   1.082   .     S
C1512  C494    1.399   1_565 S
C1513  C1564   1.397   .     A
C1513  H1756   1.084   .     S
C1514  C1575   1.401   .     A
C1514  H1767   1.082   .     S
C1515  H1778   1.084   .     S
C1515  C1586   1.396   .     A
C1516  H1598   1.081   .     S
C1517  H1609   1.083   .     S
C1517  C499    1.399   1_565 S
C1518  H1620   1.082   .     S
C1519  H1631   1.083   .     S
C1520  O1871   1.382   .     S
C1520  C1050   1.409   1_655 S
C1521  H1642   1.082   .     S
C1521  C974    1.399   1_655 S
C1522  H1653   1.084   .     S
C1523  H1664   1.081   .     S
C1524  C1525   1.470   1_554 S
C1525  C1524   1.470   1_556 S
C1526  C1564   1.408   .     A
C1526  C1527   1.470   1_554 S
C1527  C1575   1.408   .     A
C1527  C1526   1.470   1_556 S
C1528  C1529   1.470   .     S
C1530  C1532   1.470   .     S
C1530  C533    1.409   1_565 S
C1531  O1872   1.389   .     S
C1531  C1051   1.408   1_655 S
C1532  C500    1.408   1_565 S
C1533  O1888   1.280   .     S
C1534  O1876   1.279   .     A
C1535  O1886   1.280   .     A
C1536  O1824   1.279   .     S
C1537  O1829   1.280   .     A
C1537  O1825   1.280   .     S
C1538  O1826   1.279   .     S
C1538  O1830   1.279   .     S
C1539  O1831   1.280   .     A
C1539  O1827   1.280   .     A
C1540  O1828   1.279   .     A
C1540  O1833   1.279   .     A
C1541  O1834   1.273   .     A
C1541  O1862   1.279   .     A
C1541  C1596   1.453   .     S
C1542  O1873   1.383   .     S
C1542  C572    1.409   1_565 S
C1543  O1863   1.279   .     A
C1543  O1835   1.275   .     A
C1544  O1860   1.279   .     A
C1544  O1836   1.273   .     A
C1545  O1861   1.279   .     A
C1545  O1837   1.275   .     A
C1546  O1838   1.273   .     A
C1546  O1867   1.279   .     A
C1547  O1839   1.275   .     A
C1547  O1868   1.279   .     A
C1548  C1594   1.453   .     S
C1548  O1864   1.279   .     A
C1548  O1840   1.273   .     A
C1549  O1841   1.275   .     A
C1549  C1595   1.457   .     S
C1549  O1866   1.279   .     A
C1550  O1853   1.273   .     A
C1550  O1842   1.279   .     A
C1551  O1855   1.275   .     A
C1551  O1844   1.279   .     A
C1552  O1851   1.273   .     A
C1552  O1845   1.279   .     A
C1553  O1874   1.388   .     S
C1553  C573    1.408   1_565 S
C1554  O1852   1.275   .     A
C1554  O1846   1.279   .     A
C1555  O1847   1.278   .     A
C1555  O1858   1.273   .     A
C1556  O1859   1.275   .     A
C1556  O1848   1.279   .     A
C1557  O1856   1.273   .     A
C1557  O1849   1.279   .     A
C1558  O1850   1.279   .     A
C1558  O1857   1.275   .     A
C1559  N1789   1.427   .     S
C1559  C1576   1.406   .     A
C1560  C1574   1.402   .     A
C1560  N1800   1.427   .     S
C1561  C1573   1.406   .     A
C1561  N1811   1.427   .     S
C1562  N1815   1.427   .     S
C1562  C1572   1.402   .     A
C1563  C1571   1.406   .     A
C1563  N1816   1.427   .     S
C1564  O1875   1.383   .     S
C1565  C1570   1.402   .     A
C1565  N1817   1.427   .     S
C1566  C1569   1.406   .     A
C1566  N1818   1.427   .     S
C1567  N1819   1.427   .     S
C1567  C1568   1.402   .     A
C1568  N1820   1.427   .     S
C1569  N1790   1.428   .     S
C1570  N1791   1.427   .     S
C1571  N1792   1.428   .     S
C1572  N1793   1.427   .     S
C1573  C1596   1.407   .     A
C1573  N1794   1.428   .     S
C1574  N1795   1.427   .     S
C1574  C1595   1.409   .     A
C1575  O1877   1.388   .     S
C1576  N1796   1.428   .     S
C1576  C1594   1.407   .     A
C1577  N1797   1.427   .     S
C1577  C1593   1.406   .     A
C1577  C1595   1.412   .     A
C1578  N1798   1.427   .     S
C1578  C1594   1.408   .     A
C1578  C1592   1.402   .     A
C1579  N1799   1.427   .     S
C1579  C1591   1.406   .     A
C1580  N1801   1.427   .     S
C1580  C1596   1.408   .     A
C1580  C1590   1.402   .     A
C1581  C1589   1.406   .     A
C1581  N1802   1.427   .     S
C1582  C1588   1.402   .     A
C1582  N1803   1.427   .     S
C1583  N1804   1.427   .     S
C1583  C1587   1.406   .     A
C1584  N1805   1.427   .     S
C1584  C1585   1.402   .     A
C1585  N1806   1.427   .     S
C1586  O1878   1.382   .     S
C1586  C1052   1.409   1_655 S
C1587  N1807   1.429   .     S
C1588  N1808   1.427   .     S
C1589  N1809   1.428   .     S
C1590  N1810   1.427   .     S
C1591  N1812   1.428   .     S
C1592  N1813   1.427   .     S
C1593  N1814   1.428   .     S
H1600  N1790   1.028   .     S
H1604  N1791   1.031   .     S
H1608  N1792   1.028   .     S
H1613  N1793   1.030   .     S
H1617  N1794   1.028   .     S
H1622  N1795   1.030   .     S
H1626  N1796   1.028   .     S
H1630  N1797   1.031   .     S
H1635  N1798   1.031   .     S
H1639  N1799   1.031   .     S
H1644  N1801   1.031   .     S
H1648  N1802   1.031   .     S
H1652  N1803   1.031   .     S
H1657  N1804   1.031   .     S
H1661  N1805   1.031   .     S
H1666  N1806   1.030   .     S
H1670  N1807   1.028   .     S
H1674  N1808   1.030   .     S
H1679  N1809   1.028   .     S
H1683  N1810   1.031   .     S
H1688  N1812   1.028   .     S
H1692  N1813   1.030   .     S
H1696  N1814   1.028   .     S
H1751  N1789   1.031   .     S
H1755  N1800   1.031   .     S
H1760  N1811   1.031   .     S
H1764  N1815   1.031   .     S
H1769  N1816   1.031   .     S
H1773  N1817   1.031   .     S
H1777  N1818   1.031   .     S
H1782  N1819   1.031   .     S
H1786  N1820   1.030   .     S
O1821  Zn1889  1.943   .     S
O1821  Zn1900  1.943   .     S
O1821  Zn1892  1.943   .     S
O1822  Zn1891  1.936   .     S
O1822  C582    1.279   1_565 S
O1823  Zn1894  1.936   .     S
O1823  C1059   1.280   1_655 S
O1824  Zn1893  1.936   .     S
O1825  Zn1903  1.936   .     S
O1826  Zn1902  1.936   .     S
O1827  Zn1897  1.936   .     S
O1828  Zn1889  1.936   .     S
O1829  Zn1899  1.936   .     S
O1830  Zn1898  1.936   .     S
O1831  Zn1901  1.936   .     S
O1832  Zn1895  1.943   .     S
O1832  Zn1897  1.943   .     S
O1832  Zn1901  1.943   .     S
O1833  Zn1900  1.936   .     S
O1834  Zn1892  1.934   .     S
O1835  Zn1891  1.934   .     S
O1836  Zn1894  1.934   .     S
O1837  Zn1893  1.934   .     S
O1838  Zn1896  1.934   .     S
O1839  Zn1895  1.934   .     S
O1840  Zn1890  1.934   .     S
O1841  Zn1904  1.934   .     S
O1842  Zn1891  1.934   .     S
O1843  Zn1902  1.943   .     S
O1843  Zn1890  1.943   .     S
O1843  Zn1898  1.943   .     S
O1844  Zn1892  1.934   .     S
O1845  Zn1904  1.934   .     S
O1846  Zn1890  1.934   .     S
O1847  Zn1895  1.934   .     S
O1848  Zn1896  1.934   .     S
O1849  Zn1893  1.934   .     S
O1850  Zn1894  1.934   .     S
O1851  Zn1423  1.934   1_655 S
O1852  Zn1898  1.934   .     S
O1853  Zn949   1.934   1_565 S
O1854  Zn1893  1.943   .     S
O1854  Zn1899  1.943   .     S
O1854  Zn1903  1.943   .     S
O1855  Zn1900  1.934   .     S
O1856  Zn1903  1.934   .     S
O1857  Zn1426  1.934   1_655 S
O1858  Zn1897  1.934   .     S
O1859  Zn937   1.934   1_565 S
O1860  Zn1422  1.934   1_655 S
O1861  Zn1899  1.934   .     S
O1862  Zn1889  1.934   .     S
O1863  Zn945   1.934   1_565 S
O1864  Zn1902  1.934   .     S
O1865  Zn1896  1.936   .     S
O1865  C581    1.280   1_565 A
O1866  Zn1427  1.934   1_655 S
O1867  Zn948   1.934   1_565 S
O1868  Zn1901  1.934   .     S
O1876  Zn1895  1.936   .     S
O1886  Zn1890  1.936   .     S
O1887  C1060   1.279   1_655 A
O1887  Zn1904  1.936   .     S
O1888  Zn1892  1.936   .     S
Zn1891 O880    1.943   1_565 S
Zn1894 O1367   1.943   1_655 S
Zn1896 O869    1.943   1_565 S
Zn1904 O1378   1.943   1_655 S
