data_str_m2_o1_o2_pcu_sym.110
_audit_creation_date              2020-01-03
_audit_creation_method            'Materials Studio'
_symmetry_space_group_name_H-M    'P1'
_symmetry_Int_Tables_number       1
_symmetry_cell_setting            triclinic
loop_
_symmetry_equiv_pos_as_xyz
  x,y,z
_cell_length_a                    32.4944
_cell_length_b                    28.9567
_cell_length_c                    30.1421
_cell_angle_alpha                 91.0059
_cell_angle_beta                  93.7182
_cell_angle_gamma                 91.2388
loop_
_atom_site_label
_atom_site_type_symbol
_atom_site_fract_x
_atom_site_fract_y
_atom_site_fract_z
_atom_site_U_iso_or_equiv
_atom_site_adp_type
_atom_site_occupancy
C1     C     0.08777   0.16610   0.25403   0.00000  Uiso   1.00
C2     C     0.24568   0.16719   0.24643   0.00000  Uiso   1.00
C3     C     0.16848   0.16640   0.16510   0.00000  Uiso   1.00
C4     C     0.16721   0.16691   0.33481   0.00000  Uiso   1.00
C5     C     0.14444   0.02326   0.21729   0.00000  Uiso   1.00
C6     C     0.18834   0.30997   0.28288   0.00000  Uiso   1.00
C7     C     0.18918   0.02595   0.28219   0.00000  Uiso   1.00
C8     C     0.14309   0.30726   0.21864   0.00000  Uiso   1.00
C9     C     0.01955   0.12376   0.24838   0.00000  Uiso   1.00
C10    C     0.31409   0.20917   0.25353   0.00000  Uiso   1.00
C11    C     0.31089   0.12650   0.23644   0.00000  Uiso   1.00
C12    C     0.02271   0.20629   0.26557   0.00000  Uiso   1.00
C13    C     0.18013   0.20699   0.04830   0.00000  Uiso   1.00
C14    C     0.14346   0.13938   0.45126   0.00000  Uiso   1.00
C15    C     0.20374   0.19062   0.45337   0.00000  Uiso   1.00
C16    C     0.17372   0.12344   0.04698   0.00000  Uiso   1.00
C17    C     0.17862   0.20739   0.09433   0.00000  Uiso   1.00
C18    C     0.14076   0.14040   0.40504   0.00000  Uiso   1.00
C19    C     0.20122   0.19119   0.40715   0.00000  Uiso   1.00
C20    C     0.17264   0.12392   0.09302   0.00000  Uiso   1.00
C21    C     0.17303   0.16591   0.11690   0.00000  Uiso   1.00
C22    C     0.16923   0.16700   0.38301   0.00000  Uiso   1.00
C23    C     0.17657   0.16506   0.02432   0.00000  Uiso   1.00
C24    C     0.17475   0.16484   0.47565   0.00000  Uiso   1.00
C25    C     0.29062   0.16827   0.24321   0.00000  Uiso   1.00
C26    C     0.04298   0.16475   0.25820   0.00000  Uiso   1.00
Cu27   Cu    0.16667   0.21355   0.25000   0.00000  Uiso   1.00
Cu28   Cu    0.16667   0.11978   0.25000   0.00000  Uiso   1.00
H29    H     0.18301   0.23945   0.03133   0.00000  Uiso   1.00
H30    H     0.12078   0.11937   0.46801   0.00000  Uiso   1.00
H31    H     0.22861   0.20961   0.47171   0.00000  Uiso   1.00
H32    H     0.17234   0.09064   0.02903   0.00000  Uiso   1.00
H33    H     0.18179   0.24018   0.11205   0.00000  Uiso   1.00
H34    H     0.11638   0.12083   0.38647   0.00000  Uiso   1.00
H35    H     0.22482   0.20934   0.39019   0.00000  Uiso   1.00
H36    H     0.17160   0.09148   0.10984   0.00000  Uiso   1.00
N37    N     0.16667   0.28402   0.25000   0.00000  Uiso   1.00
N38    N     0.16667   0.04931   0.25000   0.00000  Uiso   1.00
O39    O     0.10655   0.20625   0.25000   0.00000  Uiso   1.00
O40    O     0.22679   0.12709   0.25001   0.00000  Uiso   1.00
O41    O     0.22679   0.20625   0.25001   0.00000  Uiso   1.00
O42    O     0.10655   0.12709   0.25000   0.00000  Uiso   1.00
O43    O     0.16666   0.20626   0.18573   0.00000  Uiso   1.00
O44    O     0.16667   0.12707   0.31427   0.00000  Uiso   1.00
O45    O     0.16667   0.20626   0.31427   0.00000  Uiso   1.00
O46    O     0.16666   0.12707   0.18573   0.00000  Uiso   1.00
C47    C     0.12273   0.04473   0.17815   0.00000  Uiso   1.00
O48    O     0.09728   0.07441   0.18263   0.00000  Uiso   1.00
O49    O     0.12932   0.02788   0.13551   0.00000  Uiso   1.00
H50    H     0.11080   0.04254   0.11157   0.00000  Uiso   1.00
C51    C     0.20741   0.28804   0.32277   0.00000  Uiso   1.00
O52    O     0.23744   0.26380   0.32038   0.00000  Uiso   1.00
O53    O     0.19187   0.29770   0.36403   0.00000  Uiso   1.00
H54    H     0.21008   0.28634   0.38990   0.00000  Uiso   1.00
C55    C     0.21669   0.05140   0.31564   0.00000  Uiso   1.00
O56    O     0.25185   0.06190   0.30700   0.00000  Uiso   1.00
O57    O     0.20374   0.05944   0.35839   0.00000  Uiso   1.00
H58    H     0.22565   0.07599   0.37865   0.00000  Uiso   1.00
C59    C     0.11114   0.28205   0.18982   0.00000  Uiso   1.00
O60    O     0.07630   0.27753   0.20233   0.00000  Uiso   1.00
O61    O     0.11921   0.26829   0.14672   0.00000  Uiso   1.00
H62    H     0.09441   0.25279   0.13002   0.00000  Uiso   1.00
I63    I     0.04187   0.05679   0.26516   0.00000  Uiso   1.00
I64    I     0.29221   0.27639   0.23743   0.00000  Uiso   1.00
I65    I     0.28182   0.07110   0.19677   0.00000  Uiso   1.00
I66    I     0.05177   0.26043   0.30686   0.00000  Uiso   1.00
C67    C     0.42110   0.16610   0.25403   0.00000  Uiso   1.00
C68    C     0.57901   0.16719   0.24643   0.00000  Uiso   1.00
C69    C     0.50181   0.16640   0.16510   0.00000  Uiso   1.00
C70    C     0.50055   0.16691   0.33481   0.00000  Uiso   1.00
C71    C     0.47778   0.02326   0.21729   0.00000  Uiso   1.00
C72    C     0.52168   0.30997   0.28288   0.00000  Uiso   1.00
C73    C     0.52251   0.02595   0.28219   0.00000  Uiso   1.00
C74    C     0.47642   0.30726   0.21864   0.00000  Uiso   1.00
C75    C     0.35288   0.12376   0.24838   0.00000  Uiso   1.00
C76    C     0.64742   0.20917   0.25353   0.00000  Uiso   1.00
C77    C     0.64422   0.12650   0.23644   0.00000  Uiso   1.00
C78    C     0.35604   0.20629   0.26557   0.00000  Uiso   1.00
C79    C     0.51346   0.20699   0.04830   0.00000  Uiso   1.00
C80    C     0.47679   0.13938   0.45126   0.00000  Uiso   1.00
C81    C     0.53707   0.19062   0.45337   0.00000  Uiso   1.00
C82    C     0.50705   0.12344   0.04698   0.00000  Uiso   1.00
C83    C     0.51195   0.20739   0.09433   0.00000  Uiso   1.00
C84    C     0.47409   0.14040   0.40504   0.00000  Uiso   1.00
C85    C     0.53455   0.19119   0.40715   0.00000  Uiso   1.00
C86    C     0.50598   0.12392   0.09302   0.00000  Uiso   1.00
C87    C     0.50636   0.16591   0.11690   0.00000  Uiso   1.00
C88    C     0.50256   0.16700   0.38301   0.00000  Uiso   1.00
C89    C     0.50990   0.16506   0.02432   0.00000  Uiso   1.00
C90    C     0.50809   0.16484   0.47565   0.00000  Uiso   1.00
C91    C     0.62395   0.16827   0.24321   0.00000  Uiso   1.00
C92    C     0.37631   0.16475   0.25820   0.00000  Uiso   1.00
Cu93   Cu    0.50000   0.21355   0.25000   0.00000  Uiso   1.00
Cu94   Cu    0.50000   0.11978   0.25000   0.00000  Uiso   1.00
H95    H     0.51634   0.23945   0.03133   0.00000  Uiso   1.00
H96    H     0.45412   0.11937   0.46801   0.00000  Uiso   1.00
H97    H     0.56194   0.20961   0.47171   0.00000  Uiso   1.00
H98    H     0.50567   0.09064   0.02903   0.00000  Uiso   1.00
H99    H     0.51513   0.24018   0.11205   0.00000  Uiso   1.00
H100   H     0.44971   0.12083   0.38647   0.00000  Uiso   1.00
H101   H     0.55816   0.20934   0.39019   0.00000  Uiso   1.00
H102   H     0.50494   0.09148   0.10984   0.00000  Uiso   1.00
N103   N     0.50000   0.28402   0.25000   0.00000  Uiso   1.00
N104   N     0.50000   0.04931   0.25000   0.00000  Uiso   1.00
O105   O     0.43988   0.20625   0.25000   0.00000  Uiso   1.00
O106   O     0.56012   0.12709   0.25001   0.00000  Uiso   1.00
O107   O     0.56012   0.20625   0.25001   0.00000  Uiso   1.00
O108   O     0.43988   0.12709   0.25000   0.00000  Uiso   1.00
O109   O     0.50000   0.20626   0.18573   0.00000  Uiso   1.00
O110   O     0.50000   0.12707   0.31427   0.00000  Uiso   1.00
O111   O     0.50000   0.20626   0.31427   0.00000  Uiso   1.00
O112   O     0.50000   0.12707   0.18573   0.00000  Uiso   1.00
C113   C     0.45607   0.04473   0.17815   0.00000  Uiso   1.00
O114   O     0.43061   0.07441   0.18263   0.00000  Uiso   1.00
O115   O     0.46265   0.02788   0.13551   0.00000  Uiso   1.00
H116   H     0.44413   0.04254   0.11157   0.00000  Uiso   1.00
C117   C     0.54074   0.28804   0.32277   0.00000  Uiso   1.00
O118   O     0.57078   0.26380   0.32038   0.00000  Uiso   1.00
O119   O     0.52520   0.29770   0.36403   0.00000  Uiso   1.00
H120   H     0.54342   0.28634   0.38990   0.00000  Uiso   1.00
C121   C     0.55002   0.05140   0.31564   0.00000  Uiso   1.00
O122   O     0.58518   0.06190   0.30700   0.00000  Uiso   1.00
O123   O     0.53707   0.05944   0.35839   0.00000  Uiso   1.00
H124   H     0.55899   0.07599   0.37865   0.00000  Uiso   1.00
C125   C     0.44447   0.28205   0.18982   0.00000  Uiso   1.00
O126   O     0.40963   0.27753   0.20233   0.00000  Uiso   1.00
O127   O     0.45254   0.26829   0.14672   0.00000  Uiso   1.00
H128   H     0.42775   0.25279   0.13002   0.00000  Uiso   1.00
I129   I     0.37521   0.05679   0.26516   0.00000  Uiso   1.00
I130   I     0.62554   0.27639   0.23743   0.00000  Uiso   1.00
I131   I     0.61515   0.07110   0.19677   0.00000  Uiso   1.00
I132   I     0.38511   0.26043   0.30686   0.00000  Uiso   1.00
C133   C     0.75443   0.16610   0.25403   0.00000  Uiso   1.00
C134   C     0.91234   0.16719   0.24643   0.00000  Uiso   1.00
C135   C     0.83515   0.16640   0.16510   0.00000  Uiso   1.00
C136   C     0.83388   0.16691   0.33481   0.00000  Uiso   1.00
C137   C     0.81111   0.02326   0.21729   0.00000  Uiso   1.00
C138   C     0.85501   0.30997   0.28288   0.00000  Uiso   1.00
C139   C     0.85585   0.02595   0.28219   0.00000  Uiso   1.00
C140   C     0.80975   0.30726   0.21864   0.00000  Uiso   1.00
C141   C     0.68622   0.12376   0.24838   0.00000  Uiso   1.00
C142   C     0.98076   0.20917   0.25353   0.00000  Uiso   1.00
C143   C     0.97756   0.12650   0.23644   0.00000  Uiso   1.00
C144   C     0.68937   0.20629   0.26557   0.00000  Uiso   1.00
C145   C     0.84679   0.20699   0.04830   0.00000  Uiso   1.00
C146   C     0.81012   0.13938   0.45126   0.00000  Uiso   1.00
C147   C     0.87040   0.19062   0.45337   0.00000  Uiso   1.00
C148   C     0.84038   0.12344   0.04698   0.00000  Uiso   1.00
C149   C     0.84529   0.20739   0.09433   0.00000  Uiso   1.00
C150   C     0.80743   0.14040   0.40504   0.00000  Uiso   1.00
C151   C     0.86788   0.19119   0.40715   0.00000  Uiso   1.00
C152   C     0.83931   0.12392   0.09302   0.00000  Uiso   1.00
C153   C     0.83970   0.16591   0.11690   0.00000  Uiso   1.00
C154   C     0.83589   0.16700   0.38301   0.00000  Uiso   1.00
C155   C     0.84324   0.16506   0.02432   0.00000  Uiso   1.00
C156   C     0.84142   0.16484   0.47565   0.00000  Uiso   1.00
C157   C     0.95728   0.16827   0.24321   0.00000  Uiso   1.00
C158   C     0.70964   0.16475   0.25820   0.00000  Uiso   1.00
Cu159  Cu    0.83333   0.21355   0.25000   0.00000  Uiso   1.00
Cu160  Cu    0.83333   0.11978   0.25000   0.00000  Uiso   1.00
H161   H     0.84968   0.23945   0.03133   0.00000  Uiso   1.00
H162   H     0.78745   0.11937   0.46801   0.00000  Uiso   1.00
H163   H     0.89527   0.20961   0.47171   0.00000  Uiso   1.00
H164   H     0.83900   0.09064   0.02903   0.00000  Uiso   1.00
H165   H     0.84846   0.24018   0.11205   0.00000  Uiso   1.00
H166   H     0.78305   0.12083   0.38647   0.00000  Uiso   1.00
H167   H     0.89149   0.20934   0.39019   0.00000  Uiso   1.00
H168   H     0.83827   0.09148   0.10984   0.00000  Uiso   1.00
N169   N     0.83333   0.28402   0.25000   0.00000  Uiso   1.00
N170   N     0.83333   0.04931   0.25000   0.00000  Uiso   1.00
O171   O     0.77321   0.20625   0.25000   0.00000  Uiso   1.00
O172   O     0.89345   0.12709   0.25001   0.00000  Uiso   1.00
O173   O     0.89345   0.20625   0.25001   0.00000  Uiso   1.00
O174   O     0.77321   0.12709   0.25000   0.00000  Uiso   1.00
O175   O     0.83333   0.20626   0.18573   0.00000  Uiso   1.00
O176   O     0.83334   0.12707   0.31427   0.00000  Uiso   1.00
O177   O     0.83334   0.20626   0.31427   0.00000  Uiso   1.00
O178   O     0.83333   0.12707   0.18573   0.00000  Uiso   1.00
C179   C     0.78940   0.04473   0.17815   0.00000  Uiso   1.00
O180   O     0.76395   0.07441   0.18263   0.00000  Uiso   1.00
O181   O     0.79598   0.02788   0.13551   0.00000  Uiso   1.00
H182   H     0.77746   0.04254   0.11157   0.00000  Uiso   1.00
C183   C     0.87408   0.28804   0.32277   0.00000  Uiso   1.00
O184   O     0.90411   0.26380   0.32038   0.00000  Uiso   1.00
O185   O     0.85853   0.29770   0.36403   0.00000  Uiso   1.00
H186   H     0.87675   0.28634   0.38990   0.00000  Uiso   1.00
C187   C     0.88335   0.05140   0.31564   0.00000  Uiso   1.00
O188   O     0.91851   0.06190   0.30700   0.00000  Uiso   1.00
O189   O     0.87041   0.05944   0.35839   0.00000  Uiso   1.00
H190   H     0.89232   0.07599   0.37865   0.00000  Uiso   1.00
C191   C     0.77780   0.28205   0.18982   0.00000  Uiso   1.00
O192   O     0.74296   0.27753   0.20233   0.00000  Uiso   1.00
O193   O     0.78588   0.26829   0.14672   0.00000  Uiso   1.00
H194   H     0.76108   0.25279   0.13002   0.00000  Uiso   1.00
I195   I     0.70854   0.05679   0.26516   0.00000  Uiso   1.00
I196   I     0.95887   0.27639   0.23743   0.00000  Uiso   1.00
I197   I     0.94848   0.07110   0.19677   0.00000  Uiso   1.00
I198   I     0.71844   0.26043   0.30686   0.00000  Uiso   1.00
C199   C     0.08777   0.49944   0.25403   0.00000  Uiso   1.00
C200   C     0.24568   0.50053   0.24643   0.00000  Uiso   1.00
C201   C     0.16848   0.49974   0.16510   0.00000  Uiso   1.00
C202   C     0.16721   0.50025   0.33481   0.00000  Uiso   1.00
C203   C     0.14444   0.35659   0.21729   0.00000  Uiso   1.00
C204   C     0.18834   0.64331   0.28288   0.00000  Uiso   1.00
C205   C     0.18918   0.35928   0.28219   0.00000  Uiso   1.00
C206   C     0.14309   0.64059   0.21864   0.00000  Uiso   1.00
C207   C     0.01955   0.45709   0.24838   0.00000  Uiso   1.00
C208   C     0.31409   0.54250   0.25353   0.00000  Uiso   1.00
C209   C     0.31089   0.45984   0.23644   0.00000  Uiso   1.00
C210   C     0.02271   0.53963   0.26557   0.00000  Uiso   1.00
C211   C     0.18013   0.54032   0.04830   0.00000  Uiso   1.00
C212   C     0.14346   0.47271   0.45126   0.00000  Uiso   1.00
C213   C     0.20374   0.52395   0.45337   0.00000  Uiso   1.00
C214   C     0.17372   0.45677   0.04698   0.00000  Uiso   1.00
C215   C     0.17862   0.54072   0.09433   0.00000  Uiso   1.00
C216   C     0.14076   0.47374   0.40504   0.00000  Uiso   1.00
C217   C     0.20122   0.52453   0.40715   0.00000  Uiso   1.00
C218   C     0.17264   0.45725   0.09302   0.00000  Uiso   1.00
C219   C     0.17303   0.49924   0.11690   0.00000  Uiso   1.00
C220   C     0.16923   0.50033   0.38301   0.00000  Uiso   1.00
C221   C     0.17657   0.49839   0.02432   0.00000  Uiso   1.00
C222   C     0.17475   0.49817   0.47565   0.00000  Uiso   1.00
C223   C     0.29062   0.50161   0.24321   0.00000  Uiso   1.00
C224   C     0.04298   0.49809   0.25820   0.00000  Uiso   1.00
Cu225  Cu    0.16667   0.54689   0.25000   0.00000  Uiso   1.00
Cu226  Cu    0.16667   0.45311   0.25000   0.00000  Uiso   1.00
H227   H     0.18301   0.57279   0.03133   0.00000  Uiso   1.00
H228   H     0.12078   0.45271   0.46801   0.00000  Uiso   1.00
H229   H     0.22861   0.54294   0.47171   0.00000  Uiso   1.00
H230   H     0.17234   0.42397   0.02903   0.00000  Uiso   1.00
H231   H     0.18179   0.57351   0.11205   0.00000  Uiso   1.00
H232   H     0.11638   0.45416   0.38647   0.00000  Uiso   1.00
H233   H     0.22482   0.54267   0.39019   0.00000  Uiso   1.00
H234   H     0.17160   0.42482   0.10984   0.00000  Uiso   1.00
N235   N     0.16667   0.61736   0.25000   0.00000  Uiso   1.00
N236   N     0.16667   0.38264   0.25000   0.00000  Uiso   1.00
O237   O     0.10655   0.53958   0.25000   0.00000  Uiso   1.00
O238   O     0.22679   0.46042   0.25001   0.00000  Uiso   1.00
O239   O     0.22679   0.53958   0.25001   0.00000  Uiso   1.00
O240   O     0.10655   0.46042   0.25000   0.00000  Uiso   1.00
O241   O     0.16666   0.53959   0.18573   0.00000  Uiso   1.00
O242   O     0.16667   0.46041   0.31427   0.00000  Uiso   1.00
O243   O     0.16667   0.53959   0.31427   0.00000  Uiso   1.00
O244   O     0.16666   0.46041   0.18573   0.00000  Uiso   1.00
C245   C     0.12273   0.37806   0.17815   0.00000  Uiso   1.00
O246   O     0.09728   0.40775   0.18263   0.00000  Uiso   1.00
O247   O     0.12932   0.36122   0.13551   0.00000  Uiso   1.00
H248   H     0.11080   0.37588   0.11157   0.00000  Uiso   1.00
C249   C     0.20741   0.62138   0.32277   0.00000  Uiso   1.00
O250   O     0.23744   0.59713   0.32038   0.00000  Uiso   1.00
O251   O     0.19187   0.63104   0.36403   0.00000  Uiso   1.00
H252   H     0.21008   0.61967   0.38990   0.00000  Uiso   1.00
C253   C     0.21669   0.38474   0.31564   0.00000  Uiso   1.00
O254   O     0.25185   0.39524   0.30700   0.00000  Uiso   1.00
O255   O     0.20374   0.39278   0.35839   0.00000  Uiso   1.00
H256   H     0.22565   0.40932   0.37865   0.00000  Uiso   1.00
C257   C     0.11114   0.61538   0.18982   0.00000  Uiso   1.00
O258   O     0.07630   0.61086   0.20233   0.00000  Uiso   1.00
O259   O     0.11921   0.60162   0.14672   0.00000  Uiso   1.00
H260   H     0.09441   0.58612   0.13002   0.00000  Uiso   1.00
I261   I     0.04187   0.39013   0.26516   0.00000  Uiso   1.00
I262   I     0.29221   0.60973   0.23743   0.00000  Uiso   1.00
I263   I     0.28182   0.40444   0.19677   0.00000  Uiso   1.00
I264   I     0.05177   0.59376   0.30686   0.00000  Uiso   1.00
C265   C     0.42110   0.49944   0.25403   0.00000  Uiso   1.00
C266   C     0.57901   0.50053   0.24643   0.00000  Uiso   1.00
C267   C     0.50181   0.49974   0.16510   0.00000  Uiso   1.00
C268   C     0.50055   0.50025   0.33481   0.00000  Uiso   1.00
C269   C     0.47778   0.35659   0.21729   0.00000  Uiso   1.00
C270   C     0.52168   0.64331   0.28288   0.00000  Uiso   1.00
C271   C     0.52251   0.35928   0.28219   0.00000  Uiso   1.00
C272   C     0.47642   0.64059   0.21864   0.00000  Uiso   1.00
C273   C     0.35288   0.45709   0.24838   0.00000  Uiso   1.00
C274   C     0.64742   0.54250   0.25353   0.00000  Uiso   1.00
C275   C     0.64422   0.45984   0.23644   0.00000  Uiso   1.00
C276   C     0.35604   0.53963   0.26557   0.00000  Uiso   1.00
C277   C     0.51346   0.54032   0.04830   0.00000  Uiso   1.00
C278   C     0.47679   0.47271   0.45126   0.00000  Uiso   1.00
C279   C     0.53707   0.52395   0.45337   0.00000  Uiso   1.00
C280   C     0.50705   0.45677   0.04698   0.00000  Uiso   1.00
C281   C     0.51195   0.54072   0.09433   0.00000  Uiso   1.00
C282   C     0.47409   0.47374   0.40504   0.00000  Uiso   1.00
C283   C     0.53455   0.52453   0.40715   0.00000  Uiso   1.00
C284   C     0.50598   0.45725   0.09302   0.00000  Uiso   1.00
C285   C     0.50636   0.49924   0.11690   0.00000  Uiso   1.00
C286   C     0.50256   0.50033   0.38301   0.00000  Uiso   1.00
C287   C     0.50990   0.49839   0.02432   0.00000  Uiso   1.00
C288   C     0.50809   0.49817   0.47565   0.00000  Uiso   1.00
C289   C     0.62395   0.50161   0.24321   0.00000  Uiso   1.00
C290   C     0.37631   0.49809   0.25820   0.00000  Uiso   1.00
Cu291  Cu    0.50000   0.54689   0.25000   0.00000  Uiso   1.00
Cu292  Cu    0.50000   0.45311   0.25000   0.00000  Uiso   1.00
H293   H     0.51634   0.57279   0.03133   0.00000  Uiso   1.00
H294   H     0.45412   0.45271   0.46801   0.00000  Uiso   1.00
H295   H     0.56194   0.54294   0.47171   0.00000  Uiso   1.00
H296   H     0.50567   0.42397   0.02903   0.00000  Uiso   1.00
H297   H     0.51513   0.57351   0.11205   0.00000  Uiso   1.00
H298   H     0.44971   0.45416   0.38647   0.00000  Uiso   1.00
H299   H     0.55816   0.54267   0.39019   0.00000  Uiso   1.00
H300   H     0.50494   0.42482   0.10984   0.00000  Uiso   1.00
N301   N     0.50000   0.61736   0.25000   0.00000  Uiso   1.00
N302   N     0.50000   0.38264   0.25000   0.00000  Uiso   1.00
O303   O     0.43988   0.53958   0.25000   0.00000  Uiso   1.00
O304   O     0.56012   0.46042   0.25001   0.00000  Uiso   1.00
O305   O     0.56012   0.53958   0.25001   0.00000  Uiso   1.00
O306   O     0.43988   0.46042   0.25000   0.00000  Uiso   1.00
O307   O     0.50000   0.53959   0.18573   0.00000  Uiso   1.00
O308   O     0.50000   0.46041   0.31427   0.00000  Uiso   1.00
O309   O     0.50000   0.53959   0.31427   0.00000  Uiso   1.00
O310   O     0.50000   0.46041   0.18573   0.00000  Uiso   1.00
C311   C     0.45607   0.37806   0.17815   0.00000  Uiso   1.00
O312   O     0.43061   0.40775   0.18263   0.00000  Uiso   1.00
O313   O     0.46265   0.36122   0.13551   0.00000  Uiso   1.00
H314   H     0.44413   0.37588   0.11157   0.00000  Uiso   1.00
C315   C     0.54074   0.62138   0.32277   0.00000  Uiso   1.00
O316   O     0.57078   0.59713   0.32038   0.00000  Uiso   1.00
O317   O     0.52520   0.63104   0.36403   0.00000  Uiso   1.00
H318   H     0.54342   0.61967   0.38990   0.00000  Uiso   1.00
C319   C     0.55002   0.38474   0.31564   0.00000  Uiso   1.00
O320   O     0.58518   0.39524   0.30700   0.00000  Uiso   1.00
O321   O     0.53707   0.39278   0.35839   0.00000  Uiso   1.00
H322   H     0.55899   0.40932   0.37865   0.00000  Uiso   1.00
C323   C     0.44447   0.61538   0.18982   0.00000  Uiso   1.00
O324   O     0.40963   0.61086   0.20233   0.00000  Uiso   1.00
O325   O     0.45254   0.60162   0.14672   0.00000  Uiso   1.00
H326   H     0.42775   0.58612   0.13002   0.00000  Uiso   1.00
I327   I     0.37521   0.39013   0.26516   0.00000  Uiso   1.00
I328   I     0.62554   0.60973   0.23743   0.00000  Uiso   1.00
I329   I     0.61515   0.40444   0.19677   0.00000  Uiso   1.00
I330   I     0.38511   0.59376   0.30686   0.00000  Uiso   1.00
C331   C     0.75443   0.49944   0.25403   0.00000  Uiso   1.00
C332   C     0.91234   0.50053   0.24643   0.00000  Uiso   1.00
C333   C     0.83515   0.49974   0.16510   0.00000  Uiso   1.00
C334   C     0.83388   0.50025   0.33481   0.00000  Uiso   1.00
C335   C     0.81111   0.35659   0.21729   0.00000  Uiso   1.00
C336   C     0.85501   0.64331   0.28288   0.00000  Uiso   1.00
C337   C     0.85585   0.35928   0.28219   0.00000  Uiso   1.00
C338   C     0.80975   0.64059   0.21864   0.00000  Uiso   1.00
C339   C     0.68622   0.45709   0.24838   0.00000  Uiso   1.00
C340   C     0.98076   0.54250   0.25353   0.00000  Uiso   1.00
C341   C     0.97756   0.45984   0.23644   0.00000  Uiso   1.00
C342   C     0.68937   0.53963   0.26557   0.00000  Uiso   1.00
C343   C     0.84679   0.54032   0.04830   0.00000  Uiso   1.00
C344   C     0.81012   0.47271   0.45126   0.00000  Uiso   1.00
C345   C     0.87040   0.52395   0.45337   0.00000  Uiso   1.00
C346   C     0.84038   0.45677   0.04698   0.00000  Uiso   1.00
C347   C     0.84529   0.54072   0.09433   0.00000  Uiso   1.00
C348   C     0.80743   0.47374   0.40504   0.00000  Uiso   1.00
C349   C     0.86788   0.52453   0.40715   0.00000  Uiso   1.00
C350   C     0.83931   0.45725   0.09302   0.00000  Uiso   1.00
C351   C     0.83970   0.49924   0.11690   0.00000  Uiso   1.00
C352   C     0.83589   0.50033   0.38301   0.00000  Uiso   1.00
C353   C     0.84324   0.49839   0.02432   0.00000  Uiso   1.00
C354   C     0.84142   0.49817   0.47565   0.00000  Uiso   1.00
C355   C     0.95728   0.50161   0.24321   0.00000  Uiso   1.00
C356   C     0.70964   0.49809   0.25820   0.00000  Uiso   1.00
Cu357  Cu    0.83333   0.54689   0.25000   0.00000  Uiso   1.00
Cu358  Cu    0.83333   0.45311   0.25000   0.00000  Uiso   1.00
H359   H     0.84968   0.57279   0.03133   0.00000  Uiso   1.00
H360   H     0.78745   0.45271   0.46801   0.00000  Uiso   1.00
H361   H     0.89527   0.54294   0.47171   0.00000  Uiso   1.00
H362   H     0.83900   0.42397   0.02903   0.00000  Uiso   1.00
H363   H     0.84846   0.57351   0.11205   0.00000  Uiso   1.00
H364   H     0.78305   0.45416   0.38647   0.00000  Uiso   1.00
H365   H     0.89149   0.54267   0.39019   0.00000  Uiso   1.00
H366   H     0.83827   0.42482   0.10984   0.00000  Uiso   1.00
N367   N     0.83333   0.61736   0.25000   0.00000  Uiso   1.00
N368   N     0.83333   0.38264   0.25000   0.00000  Uiso   1.00
O369   O     0.77321   0.53958   0.25000   0.00000  Uiso   1.00
O370   O     0.89345   0.46042   0.25001   0.00000  Uiso   1.00
O371   O     0.89345   0.53958   0.25001   0.00000  Uiso   1.00
O372   O     0.77321   0.46042   0.25000   0.00000  Uiso   1.00
O373   O     0.83333   0.53959   0.18573   0.00000  Uiso   1.00
O374   O     0.83334   0.46041   0.31427   0.00000  Uiso   1.00
O375   O     0.83334   0.53959   0.31427   0.00000  Uiso   1.00
O376   O     0.83333   0.46041   0.18573   0.00000  Uiso   1.00
C377   C     0.78940   0.37806   0.17815   0.00000  Uiso   1.00
O378   O     0.76395   0.40775   0.18263   0.00000  Uiso   1.00
O379   O     0.79598   0.36122   0.13551   0.00000  Uiso   1.00
H380   H     0.77746   0.37588   0.11157   0.00000  Uiso   1.00
C381   C     0.87408   0.62138   0.32277   0.00000  Uiso   1.00
O382   O     0.90411   0.59713   0.32038   0.00000  Uiso   1.00
O383   O     0.85853   0.63104   0.36403   0.00000  Uiso   1.00
H384   H     0.87675   0.61967   0.38990   0.00000  Uiso   1.00
C385   C     0.88335   0.38474   0.31564   0.00000  Uiso   1.00
O386   O     0.91851   0.39524   0.30700   0.00000  Uiso   1.00
O387   O     0.87041   0.39278   0.35839   0.00000  Uiso   1.00
H388   H     0.89232   0.40932   0.37865   0.00000  Uiso   1.00
C389   C     0.77780   0.61538   0.18982   0.00000  Uiso   1.00
O390   O     0.74296   0.61086   0.20233   0.00000  Uiso   1.00
O391   O     0.78588   0.60162   0.14672   0.00000  Uiso   1.00
H392   H     0.76108   0.58612   0.13002   0.00000  Uiso   1.00
I393   I     0.70854   0.39013   0.26516   0.00000  Uiso   1.00
I394   I     0.95887   0.60973   0.23743   0.00000  Uiso   1.00
I395   I     0.94848   0.40444   0.19677   0.00000  Uiso   1.00
I396   I     0.71844   0.59376   0.30686   0.00000  Uiso   1.00
C397   C     0.08777   0.83277   0.25403   0.00000  Uiso   1.00
C398   C     0.24568   0.83386   0.24643   0.00000  Uiso   1.00
C399   C     0.16848   0.83307   0.16510   0.00000  Uiso   1.00
C400   C     0.16721   0.83358   0.33481   0.00000  Uiso   1.00
C401   C     0.14444   0.68992   0.21729   0.00000  Uiso   1.00
C402   C     0.18834   0.97664   0.28288   0.00000  Uiso   1.00
C403   C     0.18918   0.69262   0.28219   0.00000  Uiso   1.00
C404   C     0.14309   0.97392   0.21864   0.00000  Uiso   1.00
C405   C     0.01955   0.79043   0.24838   0.00000  Uiso   1.00
C406   C     0.31409   0.87583   0.25353   0.00000  Uiso   1.00
C407   C     0.31089   0.79317   0.23644   0.00000  Uiso   1.00
C408   C     0.02271   0.87296   0.26557   0.00000  Uiso   1.00
C409   C     0.18013   0.87365   0.04830   0.00000  Uiso   1.00
C410   C     0.14346   0.80604   0.45126   0.00000  Uiso   1.00
C411   C     0.20374   0.85729   0.45337   0.00000  Uiso   1.00
C412   C     0.17372   0.79010   0.04698   0.00000  Uiso   1.00
C413   C     0.17862   0.87405   0.09433   0.00000  Uiso   1.00
C414   C     0.14076   0.80707   0.40504   0.00000  Uiso   1.00
C415   C     0.20122   0.85786   0.40715   0.00000  Uiso   1.00
C416   C     0.17264   0.79058   0.09302   0.00000  Uiso   1.00
C417   C     0.17303   0.83258   0.11690   0.00000  Uiso   1.00
C418   C     0.16923   0.83366   0.38301   0.00000  Uiso   1.00
C419   C     0.17657   0.83172   0.02432   0.00000  Uiso   1.00
C420   C     0.17475   0.83151   0.47565   0.00000  Uiso   1.00
C421   C     0.29062   0.83494   0.24321   0.00000  Uiso   1.00
C422   C     0.04298   0.83142   0.25820   0.00000  Uiso   1.00
Cu423  Cu    0.16667   0.88022   0.25000   0.00000  Uiso   1.00
Cu424  Cu    0.16667   0.78645   0.25000   0.00000  Uiso   1.00
H425   H     0.18301   0.90612   0.03133   0.00000  Uiso   1.00
H426   H     0.12078   0.78604   0.46801   0.00000  Uiso   1.00
H427   H     0.22861   0.87628   0.47171   0.00000  Uiso   1.00
H428   H     0.17234   0.75730   0.02903   0.00000  Uiso   1.00
H429   H     0.18179   0.90684   0.11205   0.00000  Uiso   1.00
H430   H     0.11638   0.78749   0.38647   0.00000  Uiso   1.00
H431   H     0.22482   0.87600   0.39019   0.00000  Uiso   1.00
H432   H     0.17160   0.75815   0.10984   0.00000  Uiso   1.00
N433   N     0.16667   0.95069   0.25000   0.00000  Uiso   1.00
N434   N     0.16667   0.71598   0.25000   0.00000  Uiso   1.00
O435   O     0.10655   0.87291   0.25000   0.00000  Uiso   1.00
O436   O     0.22679   0.79375   0.25001   0.00000  Uiso   1.00
O437   O     0.22679   0.87291   0.25001   0.00000  Uiso   1.00
O438   O     0.10655   0.79375   0.25000   0.00000  Uiso   1.00
O439   O     0.16666   0.87293   0.18573   0.00000  Uiso   1.00
O440   O     0.16667   0.79374   0.31427   0.00000  Uiso   1.00
O441   O     0.16667   0.87293   0.31427   0.00000  Uiso   1.00
O442   O     0.16666   0.79374   0.18573   0.00000  Uiso   1.00
C443   C     0.12273   0.71139   0.17815   0.00000  Uiso   1.00
O444   O     0.09728   0.74108   0.18263   0.00000  Uiso   1.00
O445   O     0.12932   0.69455   0.13551   0.00000  Uiso   1.00
H446   H     0.11080   0.70921   0.11157   0.00000  Uiso   1.00
C447   C     0.20741   0.95471   0.32277   0.00000  Uiso   1.00
O448   O     0.23744   0.93047   0.32038   0.00000  Uiso   1.00
O449   O     0.19187   0.96437   0.36403   0.00000  Uiso   1.00
H450   H     0.21008   0.95300   0.38990   0.00000  Uiso   1.00
C451   C     0.21669   0.71807   0.31564   0.00000  Uiso   1.00
O452   O     0.25185   0.72857   0.30700   0.00000  Uiso   1.00
O453   O     0.20374   0.72611   0.35839   0.00000  Uiso   1.00
H454   H     0.22565   0.74265   0.37865   0.00000  Uiso   1.00
C455   C     0.11114   0.94871   0.18982   0.00000  Uiso   1.00
O456   O     0.07630   0.94419   0.20233   0.00000  Uiso   1.00
O457   O     0.11921   0.93496   0.14672   0.00000  Uiso   1.00
H458   H     0.09441   0.91946   0.13002   0.00000  Uiso   1.00
I459   I     0.04187   0.72346   0.26516   0.00000  Uiso   1.00
I460   I     0.29221   0.94306   0.23743   0.00000  Uiso   1.00
I461   I     0.28182   0.73777   0.19677   0.00000  Uiso   1.00
I462   I     0.05177   0.92709   0.30686   0.00000  Uiso   1.00
C463   C     0.42110   0.83277   0.25403   0.00000  Uiso   1.00
C464   C     0.57901   0.83386   0.24643   0.00000  Uiso   1.00
C465   C     0.50181   0.83307   0.16510   0.00000  Uiso   1.00
C466   C     0.50055   0.83358   0.33481   0.00000  Uiso   1.00
C467   C     0.47778   0.68992   0.21729   0.00000  Uiso   1.00
C468   C     0.52168   0.97664   0.28288   0.00000  Uiso   1.00
C469   C     0.52251   0.69262   0.28219   0.00000  Uiso   1.00
C470   C     0.47642   0.97392   0.21864   0.00000  Uiso   1.00
C471   C     0.35288   0.79043   0.24838   0.00000  Uiso   1.00
C472   C     0.64742   0.87583   0.25353   0.00000  Uiso   1.00
C473   C     0.64422   0.79317   0.23644   0.00000  Uiso   1.00
C474   C     0.35604   0.87296   0.26557   0.00000  Uiso   1.00
C475   C     0.51346   0.87365   0.04830   0.00000  Uiso   1.00
C476   C     0.47679   0.80604   0.45126   0.00000  Uiso   1.00
C477   C     0.53707   0.85729   0.45337   0.00000  Uiso   1.00
C478   C     0.50705   0.79010   0.04698   0.00000  Uiso   1.00
C479   C     0.51195   0.87405   0.09433   0.00000  Uiso   1.00
C480   C     0.47409   0.80707   0.40504   0.00000  Uiso   1.00
C481   C     0.53455   0.85786   0.40715   0.00000  Uiso   1.00
C482   C     0.50598   0.79058   0.09302   0.00000  Uiso   1.00
C483   C     0.50636   0.83258   0.11690   0.00000  Uiso   1.00
C484   C     0.50256   0.83366   0.38301   0.00000  Uiso   1.00
C485   C     0.50990   0.83172   0.02432   0.00000  Uiso   1.00
C486   C     0.50809   0.83151   0.47565   0.00000  Uiso   1.00
C487   C     0.62395   0.83494   0.24321   0.00000  Uiso   1.00
C488   C     0.37631   0.83142   0.25820   0.00000  Uiso   1.00
Cu489  Cu    0.50000   0.88022   0.25000   0.00000  Uiso   1.00
Cu490  Cu    0.50000   0.78645   0.25000   0.00000  Uiso   1.00
H491   H     0.51634   0.90612   0.03133   0.00000  Uiso   1.00
H492   H     0.45412   0.78604   0.46801   0.00000  Uiso   1.00
H493   H     0.56194   0.87628   0.47171   0.00000  Uiso   1.00
H494   H     0.50567   0.75730   0.02903   0.00000  Uiso   1.00
H495   H     0.51513   0.90684   0.11205   0.00000  Uiso   1.00
H496   H     0.44971   0.78749   0.38647   0.00000  Uiso   1.00
H497   H     0.55816   0.87600   0.39019   0.00000  Uiso   1.00
H498   H     0.50494   0.75815   0.10984   0.00000  Uiso   1.00
N499   N     0.50000   0.95069   0.25000   0.00000  Uiso   1.00
N500   N     0.50000   0.71598   0.25000   0.00000  Uiso   1.00
O501   O     0.43988   0.87291   0.25000   0.00000  Uiso   1.00
O502   O     0.56012   0.79375   0.25001   0.00000  Uiso   1.00
O503   O     0.56012   0.87291   0.25001   0.00000  Uiso   1.00
O504   O     0.43988   0.79375   0.25000   0.00000  Uiso   1.00
O505   O     0.50000   0.87293   0.18573   0.00000  Uiso   1.00
O506   O     0.50000   0.79374   0.31427   0.00000  Uiso   1.00
O507   O     0.50000   0.87293   0.31427   0.00000  Uiso   1.00
O508   O     0.50000   0.79374   0.18573   0.00000  Uiso   1.00
C509   C     0.45607   0.71139   0.17815   0.00000  Uiso   1.00
O510   O     0.43061   0.74108   0.18263   0.00000  Uiso   1.00
O511   O     0.46265   0.69455   0.13551   0.00000  Uiso   1.00
H512   H     0.44413   0.70921   0.11157   0.00000  Uiso   1.00
C513   C     0.54074   0.95471   0.32277   0.00000  Uiso   1.00
O514   O     0.57078   0.93047   0.32038   0.00000  Uiso   1.00
O515   O     0.52520   0.96437   0.36403   0.00000  Uiso   1.00
H516   H     0.54342   0.95300   0.38990   0.00000  Uiso   1.00
C517   C     0.55002   0.71807   0.31564   0.00000  Uiso   1.00
O518   O     0.58518   0.72857   0.30700   0.00000  Uiso   1.00
O519   O     0.53707   0.72611   0.35839   0.00000  Uiso   1.00
H520   H     0.55899   0.74265   0.37865   0.00000  Uiso   1.00
C521   C     0.44447   0.94871   0.18982   0.00000  Uiso   1.00
O522   O     0.40963   0.94419   0.20233   0.00000  Uiso   1.00
O523   O     0.45254   0.93496   0.14672   0.00000  Uiso   1.00
H524   H     0.42775   0.91946   0.13002   0.00000  Uiso   1.00
I525   I     0.37521   0.72346   0.26516   0.00000  Uiso   1.00
I526   I     0.62554   0.94306   0.23743   0.00000  Uiso   1.00
I527   I     0.61515   0.73777   0.19677   0.00000  Uiso   1.00
I528   I     0.38511   0.92709   0.30686   0.00000  Uiso   1.00
C529   C     0.75443   0.83277   0.25403   0.00000  Uiso   1.00
C530   C     0.91234   0.83386   0.24643   0.00000  Uiso   1.00
C531   C     0.83515   0.83307   0.16510   0.00000  Uiso   1.00
C532   C     0.83388   0.83358   0.33481   0.00000  Uiso   1.00
C533   C     0.81111   0.68992   0.21729   0.00000  Uiso   1.00
C534   C     0.85501   0.97664   0.28288   0.00000  Uiso   1.00
C535   C     0.85585   0.69262   0.28219   0.00000  Uiso   1.00
C536   C     0.80975   0.97392   0.21864   0.00000  Uiso   1.00
C537   C     0.68622   0.79043   0.24838   0.00000  Uiso   1.00
C538   C     0.98076   0.87583   0.25353   0.00000  Uiso   1.00
C539   C     0.97756   0.79317   0.23644   0.00000  Uiso   1.00
C540   C     0.68937   0.87296   0.26557   0.00000  Uiso   1.00
C541   C     0.84679   0.87365   0.04830   0.00000  Uiso   1.00
C542   C     0.81012   0.80604   0.45126   0.00000  Uiso   1.00
C543   C     0.87040   0.85729   0.45337   0.00000  Uiso   1.00
C544   C     0.84038   0.79010   0.04698   0.00000  Uiso   1.00
C545   C     0.84529   0.87405   0.09433   0.00000  Uiso   1.00
C546   C     0.80743   0.80707   0.40504   0.00000  Uiso   1.00
C547   C     0.86788   0.85786   0.40715   0.00000  Uiso   1.00
C548   C     0.83931   0.79058   0.09302   0.00000  Uiso   1.00
C549   C     0.83970   0.83258   0.11690   0.00000  Uiso   1.00
C550   C     0.83589   0.83366   0.38301   0.00000  Uiso   1.00
C551   C     0.84324   0.83172   0.02432   0.00000  Uiso   1.00
C552   C     0.84142   0.83151   0.47565   0.00000  Uiso   1.00
C553   C     0.95728   0.83494   0.24321   0.00000  Uiso   1.00
C554   C     0.70964   0.83142   0.25820   0.00000  Uiso   1.00
Cu555  Cu    0.83333   0.88022   0.25000   0.00000  Uiso   1.00
Cu556  Cu    0.83333   0.78645   0.25000   0.00000  Uiso   1.00
H557   H     0.84968   0.90612   0.03133   0.00000  Uiso   1.00
H558   H     0.78745   0.78604   0.46801   0.00000  Uiso   1.00
H559   H     0.89527   0.87628   0.47171   0.00000  Uiso   1.00
H560   H     0.83900   0.75730   0.02903   0.00000  Uiso   1.00
H561   H     0.84846   0.90684   0.11205   0.00000  Uiso   1.00
H562   H     0.78305   0.78749   0.38647   0.00000  Uiso   1.00
H563   H     0.89149   0.87600   0.39019   0.00000  Uiso   1.00
H564   H     0.83827   0.75815   0.10984   0.00000  Uiso   1.00
N565   N     0.83333   0.95069   0.25000   0.00000  Uiso   1.00
N566   N     0.83333   0.71598   0.25000   0.00000  Uiso   1.00
O567   O     0.77321   0.87291   0.25000   0.00000  Uiso   1.00
O568   O     0.89345   0.79375   0.25001   0.00000  Uiso   1.00
O569   O     0.89345   0.87291   0.25001   0.00000  Uiso   1.00
O570   O     0.77321   0.79375   0.25000   0.00000  Uiso   1.00
O571   O     0.83333   0.87293   0.18573   0.00000  Uiso   1.00
O572   O     0.83334   0.79374   0.31427   0.00000  Uiso   1.00
O573   O     0.83334   0.87293   0.31427   0.00000  Uiso   1.00
O574   O     0.83333   0.79374   0.18573   0.00000  Uiso   1.00
C575   C     0.78940   0.71139   0.17815   0.00000  Uiso   1.00
O576   O     0.76395   0.74108   0.18263   0.00000  Uiso   1.00
O577   O     0.79598   0.69455   0.13551   0.00000  Uiso   1.00
H578   H     0.77746   0.70921   0.11157   0.00000  Uiso   1.00
C579   C     0.87408   0.95471   0.32277   0.00000  Uiso   1.00
O580   O     0.90411   0.93047   0.32038   0.00000  Uiso   1.00
O581   O     0.85853   0.96437   0.36403   0.00000  Uiso   1.00
H582   H     0.87675   0.95300   0.38990   0.00000  Uiso   1.00
C583   C     0.88335   0.71807   0.31564   0.00000  Uiso   1.00
O584   O     0.91851   0.72857   0.30700   0.00000  Uiso   1.00
O585   O     0.87041   0.72611   0.35839   0.00000  Uiso   1.00
H586   H     0.89232   0.74265   0.37865   0.00000  Uiso   1.00
C587   C     0.77780   0.94871   0.18982   0.00000  Uiso   1.00
O588   O     0.74296   0.94419   0.20233   0.00000  Uiso   1.00
O589   O     0.78588   0.93496   0.14672   0.00000  Uiso   1.00
H590   H     0.76108   0.91946   0.13002   0.00000  Uiso   1.00
I591   I     0.70854   0.72346   0.26516   0.00000  Uiso   1.00
I592   I     0.95887   0.94306   0.23743   0.00000  Uiso   1.00
I593   I     0.94848   0.73777   0.19677   0.00000  Uiso   1.00
I594   I     0.71844   0.92709   0.30686   0.00000  Uiso   1.00
C595   C     0.08777   0.16610   0.75403   0.00000  Uiso   1.00
C596   C     0.24568   0.16719   0.74643   0.00000  Uiso   1.00
C597   C     0.16848   0.16640   0.66510   0.00000  Uiso   1.00
C598   C     0.16721   0.16691   0.83481   0.00000  Uiso   1.00
C599   C     0.14444   0.02326   0.71729   0.00000  Uiso   1.00
C600   C     0.18834   0.30997   0.78288   0.00000  Uiso   1.00
C601   C     0.18918   0.02595   0.78219   0.00000  Uiso   1.00
C602   C     0.14309   0.30726   0.71864   0.00000  Uiso   1.00
C603   C     0.01955   0.12376   0.74838   0.00000  Uiso   1.00
C604   C     0.31409   0.20917   0.75353   0.00000  Uiso   1.00
C605   C     0.31089   0.12650   0.73644   0.00000  Uiso   1.00
C606   C     0.02271   0.20629   0.76557   0.00000  Uiso   1.00
C607   C     0.18013   0.20699   0.54830   0.00000  Uiso   1.00
C608   C     0.14346   0.13938   0.95126   0.00000  Uiso   1.00
C609   C     0.20374   0.19062   0.95337   0.00000  Uiso   1.00
C610   C     0.17372   0.12344   0.54698   0.00000  Uiso   1.00
C611   C     0.17862   0.20739   0.59433   0.00000  Uiso   1.00
C612   C     0.14076   0.14040   0.90504   0.00000  Uiso   1.00
C613   C     0.20122   0.19119   0.90715   0.00000  Uiso   1.00
C614   C     0.17264   0.12392   0.59302   0.00000  Uiso   1.00
C615   C     0.17303   0.16591   0.61690   0.00000  Uiso   1.00
C616   C     0.16923   0.16700   0.88301   0.00000  Uiso   1.00
C617   C     0.17657   0.16506   0.52432   0.00000  Uiso   1.00
C618   C     0.17475   0.16484   0.97565   0.00000  Uiso   1.00
C619   C     0.29062   0.16827   0.74321   0.00000  Uiso   1.00
C620   C     0.04298   0.16475   0.75820   0.00000  Uiso   1.00
Cu621  Cu    0.16667   0.21355   0.75000   0.00000  Uiso   1.00
Cu622  Cu    0.16667   0.11978   0.75000   0.00000  Uiso   1.00
H623   H     0.18301   0.23945   0.53133   0.00000  Uiso   1.00
H624   H     0.12078   0.11937   0.96801   0.00000  Uiso   1.00
H625   H     0.22861   0.20961   0.97171   0.00000  Uiso   1.00
H626   H     0.17234   0.09064   0.52903   0.00000  Uiso   1.00
H627   H     0.18179   0.24018   0.61205   0.00000  Uiso   1.00
H628   H     0.11638   0.12083   0.88647   0.00000  Uiso   1.00
H629   H     0.22482   0.20934   0.89019   0.00000  Uiso   1.00
H630   H     0.17160   0.09148   0.60984   0.00000  Uiso   1.00
N631   N     0.16667   0.28402   0.75000   0.00000  Uiso   1.00
N632   N     0.16667   0.04931   0.75000   0.00000  Uiso   1.00
O633   O     0.10655   0.20625   0.75000   0.00000  Uiso   1.00
O634   O     0.22679   0.12709   0.75001   0.00000  Uiso   1.00
O635   O     0.22679   0.20625   0.75001   0.00000  Uiso   1.00
O636   O     0.10655   0.12709   0.75000   0.00000  Uiso   1.00
O637   O     0.16666   0.20626   0.68573   0.00000  Uiso   1.00
O638   O     0.16667   0.12707   0.81427   0.00000  Uiso   1.00
O639   O     0.16667   0.20626   0.81427   0.00000  Uiso   1.00
O640   O     0.16666   0.12707   0.68573   0.00000  Uiso   1.00
C641   C     0.12273   0.04473   0.67815   0.00000  Uiso   1.00
O642   O     0.09728   0.07441   0.68263   0.00000  Uiso   1.00
O643   O     0.12932   0.02788   0.63551   0.00000  Uiso   1.00
H644   H     0.11080   0.04254   0.61157   0.00000  Uiso   1.00
C645   C     0.20741   0.28804   0.82277   0.00000  Uiso   1.00
O646   O     0.23744   0.26380   0.82038   0.00000  Uiso   1.00
O647   O     0.19187   0.29770   0.86403   0.00000  Uiso   1.00
H648   H     0.21008   0.28634   0.88990   0.00000  Uiso   1.00
C649   C     0.21669   0.05140   0.81564   0.00000  Uiso   1.00
O650   O     0.25185   0.06190   0.80700   0.00000  Uiso   1.00
O651   O     0.20374   0.05944   0.85839   0.00000  Uiso   1.00
H652   H     0.22565   0.07599   0.87865   0.00000  Uiso   1.00
C653   C     0.11114   0.28205   0.68982   0.00000  Uiso   1.00
O654   O     0.07630   0.27753   0.70233   0.00000  Uiso   1.00
O655   O     0.11921   0.26829   0.64672   0.00000  Uiso   1.00
H656   H     0.09441   0.25279   0.63002   0.00000  Uiso   1.00
I657   I     0.04187   0.05679   0.76516   0.00000  Uiso   1.00
I658   I     0.29221   0.27639   0.73743   0.00000  Uiso   1.00
I659   I     0.28182   0.07110   0.69677   0.00000  Uiso   1.00
I660   I     0.05177   0.26043   0.80686   0.00000  Uiso   1.00
C661   C     0.42110   0.16610   0.75403   0.00000  Uiso   1.00
C662   C     0.57901   0.16719   0.74643   0.00000  Uiso   1.00
C663   C     0.50181   0.16640   0.66510   0.00000  Uiso   1.00
C664   C     0.50055   0.16691   0.83481   0.00000  Uiso   1.00
C665   C     0.47778   0.02326   0.71729   0.00000  Uiso   1.00
C666   C     0.52168   0.30997   0.78288   0.00000  Uiso   1.00
C667   C     0.52251   0.02595   0.78219   0.00000  Uiso   1.00
C668   C     0.47642   0.30726   0.71864   0.00000  Uiso   1.00
C669   C     0.35288   0.12376   0.74838   0.00000  Uiso   1.00
C670   C     0.64742   0.20917   0.75353   0.00000  Uiso   1.00
C671   C     0.64422   0.12650   0.73644   0.00000  Uiso   1.00
C672   C     0.35604   0.20629   0.76557   0.00000  Uiso   1.00
C673   C     0.51346   0.20699   0.54830   0.00000  Uiso   1.00
C674   C     0.47679   0.13938   0.95126   0.00000  Uiso   1.00
C675   C     0.53707   0.19062   0.95337   0.00000  Uiso   1.00
C676   C     0.50705   0.12344   0.54698   0.00000  Uiso   1.00
C677   C     0.51195   0.20739   0.59433   0.00000  Uiso   1.00
C678   C     0.47409   0.14040   0.90504   0.00000  Uiso   1.00
C679   C     0.53455   0.19119   0.90715   0.00000  Uiso   1.00
C680   C     0.50598   0.12392   0.59302   0.00000  Uiso   1.00
C681   C     0.50636   0.16591   0.61690   0.00000  Uiso   1.00
C682   C     0.50256   0.16700   0.88301   0.00000  Uiso   1.00
C683   C     0.50990   0.16506   0.52432   0.00000  Uiso   1.00
C684   C     0.50809   0.16484   0.97565   0.00000  Uiso   1.00
C685   C     0.62395   0.16827   0.74321   0.00000  Uiso   1.00
C686   C     0.37631   0.16475   0.75820   0.00000  Uiso   1.00
Cu687  Cu    0.50000   0.21355   0.75000   0.00000  Uiso   1.00
Cu688  Cu    0.50000   0.11978   0.75000   0.00000  Uiso   1.00
H689   H     0.51634   0.23945   0.53133   0.00000  Uiso   1.00
H690   H     0.45412   0.11937   0.96801   0.00000  Uiso   1.00
H691   H     0.56194   0.20961   0.97171   0.00000  Uiso   1.00
H692   H     0.50567   0.09064   0.52903   0.00000  Uiso   1.00
H693   H     0.51513   0.24018   0.61205   0.00000  Uiso   1.00
H694   H     0.44971   0.12083   0.88647   0.00000  Uiso   1.00
H695   H     0.55816   0.20934   0.89019   0.00000  Uiso   1.00
H696   H     0.50494   0.09148   0.60984   0.00000  Uiso   1.00
N697   N     0.50000   0.28402   0.75000   0.00000  Uiso   1.00
N698   N     0.50000   0.04931   0.75000   0.00000  Uiso   1.00
O699   O     0.43988   0.20625   0.75000   0.00000  Uiso   1.00
O700   O     0.56012   0.12709   0.75001   0.00000  Uiso   1.00
O701   O     0.56012   0.20625   0.75001   0.00000  Uiso   1.00
O702   O     0.43988   0.12709   0.75000   0.00000  Uiso   1.00
O703   O     0.50000   0.20626   0.68573   0.00000  Uiso   1.00
O704   O     0.50000   0.12707   0.81427   0.00000  Uiso   1.00
O705   O     0.50000   0.20626   0.81427   0.00000  Uiso   1.00
O706   O     0.50000   0.12707   0.68573   0.00000  Uiso   1.00
C707   C     0.45607   0.04473   0.67815   0.00000  Uiso   1.00
O708   O     0.43061   0.07441   0.68263   0.00000  Uiso   1.00
O709   O     0.46265   0.02788   0.63551   0.00000  Uiso   1.00
H710   H     0.44413   0.04254   0.61157   0.00000  Uiso   1.00
C711   C     0.54074   0.28804   0.82277   0.00000  Uiso   1.00
O712   O     0.57078   0.26380   0.82038   0.00000  Uiso   1.00
O713   O     0.52520   0.29770   0.86403   0.00000  Uiso   1.00
H714   H     0.54342   0.28634   0.88990   0.00000  Uiso   1.00
C715   C     0.55002   0.05140   0.81564   0.00000  Uiso   1.00
O716   O     0.58518   0.06190   0.80700   0.00000  Uiso   1.00
O717   O     0.53707   0.05944   0.85839   0.00000  Uiso   1.00
H718   H     0.55899   0.07599   0.87865   0.00000  Uiso   1.00
C719   C     0.44447   0.28205   0.68982   0.00000  Uiso   1.00
O720   O     0.40963   0.27753   0.70233   0.00000  Uiso   1.00
O721   O     0.45254   0.26829   0.64672   0.00000  Uiso   1.00
H722   H     0.42775   0.25279   0.63002   0.00000  Uiso   1.00
I723   I     0.37521   0.05679   0.76516   0.00000  Uiso   1.00
I724   I     0.62554   0.27639   0.73743   0.00000  Uiso   1.00
I725   I     0.61515   0.07110   0.69677   0.00000  Uiso   1.00
I726   I     0.38511   0.26043   0.80686   0.00000  Uiso   1.00
C727   C     0.75443   0.16610   0.75403   0.00000  Uiso   1.00
C728   C     0.91234   0.16719   0.74643   0.00000  Uiso   1.00
C729   C     0.83515   0.16640   0.66510   0.00000  Uiso   1.00
C730   C     0.83388   0.16691   0.83481   0.00000  Uiso   1.00
C731   C     0.81111   0.02326   0.71729   0.00000  Uiso   1.00
C732   C     0.85501   0.30997   0.78288   0.00000  Uiso   1.00
C733   C     0.85585   0.02595   0.78219   0.00000  Uiso   1.00
C734   C     0.80975   0.30726   0.71864   0.00000  Uiso   1.00
C735   C     0.68622   0.12376   0.74838   0.00000  Uiso   1.00
C736   C     0.98076   0.20917   0.75353   0.00000  Uiso   1.00
C737   C     0.97756   0.12650   0.73644   0.00000  Uiso   1.00
C738   C     0.68937   0.20629   0.76557   0.00000  Uiso   1.00
C739   C     0.84679   0.20699   0.54830   0.00000  Uiso   1.00
C740   C     0.81012   0.13938   0.95126   0.00000  Uiso   1.00
C741   C     0.87040   0.19062   0.95337   0.00000  Uiso   1.00
C742   C     0.84038   0.12344   0.54698   0.00000  Uiso   1.00
C743   C     0.84529   0.20739   0.59433   0.00000  Uiso   1.00
C744   C     0.80743   0.14040   0.90504   0.00000  Uiso   1.00
C745   C     0.86788   0.19119   0.90715   0.00000  Uiso   1.00
C746   C     0.83931   0.12392   0.59302   0.00000  Uiso   1.00
C747   C     0.83970   0.16591   0.61690   0.00000  Uiso   1.00
C748   C     0.83589   0.16700   0.88301   0.00000  Uiso   1.00
C749   C     0.84324   0.16506   0.52432   0.00000  Uiso   1.00
C750   C     0.84142   0.16484   0.97565   0.00000  Uiso   1.00
C751   C     0.95728   0.16827   0.74321   0.00000  Uiso   1.00
C752   C     0.70964   0.16475   0.75820   0.00000  Uiso   1.00
Cu753  Cu    0.83333   0.21355   0.75000   0.00000  Uiso   1.00
Cu754  Cu    0.83333   0.11978   0.75000   0.00000  Uiso   1.00
H755   H     0.84968   0.23945   0.53133   0.00000  Uiso   1.00
H756   H     0.78745   0.11937   0.96801   0.00000  Uiso   1.00
H757   H     0.89527   0.20961   0.97171   0.00000  Uiso   1.00
H758   H     0.83900   0.09064   0.52903   0.00000  Uiso   1.00
H759   H     0.84846   0.24018   0.61205   0.00000  Uiso   1.00
H760   H     0.78305   0.12083   0.88647   0.00000  Uiso   1.00
H761   H     0.89149   0.20934   0.89019   0.00000  Uiso   1.00
H762   H     0.83827   0.09148   0.60984   0.00000  Uiso   1.00
N763   N     0.83333   0.28402   0.75000   0.00000  Uiso   1.00
N764   N     0.83333   0.04931   0.75000   0.00000  Uiso   1.00
O765   O     0.77321   0.20625   0.75000   0.00000  Uiso   1.00
O766   O     0.89345   0.12709   0.75001   0.00000  Uiso   1.00
O767   O     0.89345   0.20625   0.75001   0.00000  Uiso   1.00
O768   O     0.77321   0.12709   0.75000   0.00000  Uiso   1.00
O769   O     0.83333   0.20626   0.68573   0.00000  Uiso   1.00
O770   O     0.83334   0.12707   0.81427   0.00000  Uiso   1.00
O771   O     0.83334   0.20626   0.81427   0.00000  Uiso   1.00
O772   O     0.83333   0.12707   0.68573   0.00000  Uiso   1.00
C773   C     0.78940   0.04473   0.67815   0.00000  Uiso   1.00
O774   O     0.76395   0.07441   0.68263   0.00000  Uiso   1.00
O775   O     0.79598   0.02788   0.63551   0.00000  Uiso   1.00
H776   H     0.77746   0.04254   0.61157   0.00000  Uiso   1.00
C777   C     0.87408   0.28804   0.82277   0.00000  Uiso   1.00
O778   O     0.90411   0.26380   0.82038   0.00000  Uiso   1.00
O779   O     0.85853   0.29770   0.86403   0.00000  Uiso   1.00
H780   H     0.87675   0.28634   0.88990   0.00000  Uiso   1.00
C781   C     0.88335   0.05140   0.81564   0.00000  Uiso   1.00
O782   O     0.91851   0.06190   0.80700   0.00000  Uiso   1.00
O783   O     0.87041   0.05944   0.85839   0.00000  Uiso   1.00
H784   H     0.89232   0.07599   0.87865   0.00000  Uiso   1.00
C785   C     0.77780   0.28205   0.68982   0.00000  Uiso   1.00
O786   O     0.74296   0.27753   0.70233   0.00000  Uiso   1.00
O787   O     0.78588   0.26829   0.64672   0.00000  Uiso   1.00
H788   H     0.76108   0.25279   0.63002   0.00000  Uiso   1.00
I789   I     0.70854   0.05679   0.76516   0.00000  Uiso   1.00
I790   I     0.95887   0.27639   0.73743   0.00000  Uiso   1.00
I791   I     0.94848   0.07110   0.69677   0.00000  Uiso   1.00
I792   I     0.71844   0.26043   0.80686   0.00000  Uiso   1.00
C793   C     0.08777   0.49944   0.75403   0.00000  Uiso   1.00
C794   C     0.24568   0.50053   0.74643   0.00000  Uiso   1.00
C795   C     0.16848   0.49974   0.66510   0.00000  Uiso   1.00
C796   C     0.16721   0.50025   0.83481   0.00000  Uiso   1.00
C797   C     0.14444   0.35659   0.71729   0.00000  Uiso   1.00
C798   C     0.18834   0.64331   0.78288   0.00000  Uiso   1.00
C799   C     0.18918   0.35928   0.78219   0.00000  Uiso   1.00
C800   C     0.14309   0.64059   0.71864   0.00000  Uiso   1.00
C801   C     0.01955   0.45709   0.74838   0.00000  Uiso   1.00
C802   C     0.31409   0.54250   0.75353   0.00000  Uiso   1.00
C803   C     0.31089   0.45984   0.73644   0.00000  Uiso   1.00
C804   C     0.02271   0.53963   0.76557   0.00000  Uiso   1.00
C805   C     0.18013   0.54032   0.54830   0.00000  Uiso   1.00
C806   C     0.14346   0.47271   0.95126   0.00000  Uiso   1.00
C807   C     0.20374   0.52395   0.95337   0.00000  Uiso   1.00
C808   C     0.17372   0.45677   0.54698   0.00000  Uiso   1.00
C809   C     0.17862   0.54072   0.59433   0.00000  Uiso   1.00
C810   C     0.14076   0.47374   0.90504   0.00000  Uiso   1.00
C811   C     0.20122   0.52453   0.90715   0.00000  Uiso   1.00
C812   C     0.17264   0.45725   0.59302   0.00000  Uiso   1.00
C813   C     0.17303   0.49924   0.61690   0.00000  Uiso   1.00
C814   C     0.16923   0.50033   0.88301   0.00000  Uiso   1.00
C815   C     0.17657   0.49839   0.52432   0.00000  Uiso   1.00
C816   C     0.17475   0.49817   0.97565   0.00000  Uiso   1.00
C817   C     0.29062   0.50161   0.74321   0.00000  Uiso   1.00
C818   C     0.04298   0.49809   0.75820   0.00000  Uiso   1.00
Cu819  Cu    0.16667   0.54689   0.75000   0.00000  Uiso   1.00
Cu820  Cu    0.16667   0.45311   0.75000   0.00000  Uiso   1.00
H821   H     0.18301   0.57279   0.53133   0.00000  Uiso   1.00
H822   H     0.12078   0.45271   0.96801   0.00000  Uiso   1.00
H823   H     0.22861   0.54294   0.97171   0.00000  Uiso   1.00
H824   H     0.17234   0.42397   0.52903   0.00000  Uiso   1.00
H825   H     0.18179   0.57351   0.61205   0.00000  Uiso   1.00
H826   H     0.11638   0.45416   0.88647   0.00000  Uiso   1.00
H827   H     0.22482   0.54267   0.89019   0.00000  Uiso   1.00
H828   H     0.17160   0.42482   0.60984   0.00000  Uiso   1.00
N829   N     0.16667   0.61736   0.75000   0.00000  Uiso   1.00
N830   N     0.16667   0.38264   0.75000   0.00000  Uiso   1.00
O831   O     0.10655   0.53958   0.75000   0.00000  Uiso   1.00
O832   O     0.22679   0.46042   0.75001   0.00000  Uiso   1.00
O833   O     0.22679   0.53958   0.75001   0.00000  Uiso   1.00
O834   O     0.10655   0.46042   0.75000   0.00000  Uiso   1.00
O835   O     0.16666   0.53959   0.68573   0.00000  Uiso   1.00
O836   O     0.16667   0.46041   0.81427   0.00000  Uiso   1.00
O837   O     0.16667   0.53959   0.81427   0.00000  Uiso   1.00
O838   O     0.16666   0.46041   0.68573   0.00000  Uiso   1.00
C839   C     0.12273   0.37806   0.67815   0.00000  Uiso   1.00
O840   O     0.09728   0.40775   0.68263   0.00000  Uiso   1.00
O841   O     0.12932   0.36122   0.63551   0.00000  Uiso   1.00
H842   H     0.11080   0.37588   0.61157   0.00000  Uiso   1.00
C843   C     0.20741   0.62138   0.82277   0.00000  Uiso   1.00
O844   O     0.23744   0.59713   0.82038   0.00000  Uiso   1.00
O845   O     0.19187   0.63104   0.86403   0.00000  Uiso   1.00
H846   H     0.21008   0.61967   0.88990   0.00000  Uiso   1.00
C847   C     0.21669   0.38474   0.81564   0.00000  Uiso   1.00
O848   O     0.25185   0.39524   0.80700   0.00000  Uiso   1.00
O849   O     0.20374   0.39278   0.85839   0.00000  Uiso   1.00
H850   H     0.22565   0.40932   0.87865   0.00000  Uiso   1.00
C851   C     0.11114   0.61538   0.68982   0.00000  Uiso   1.00
O852   O     0.07630   0.61086   0.70233   0.00000  Uiso   1.00
O853   O     0.11921   0.60162   0.64672   0.00000  Uiso   1.00
H854   H     0.09441   0.58612   0.63002   0.00000  Uiso   1.00
I855   I     0.04187   0.39013   0.76516   0.00000  Uiso   1.00
I856   I     0.29221   0.60973   0.73743   0.00000  Uiso   1.00
I857   I     0.28182   0.40444   0.69677   0.00000  Uiso   1.00
I858   I     0.05177   0.59376   0.80686   0.00000  Uiso   1.00
C859   C     0.42110   0.49944   0.75403   0.00000  Uiso   1.00
C860   C     0.57901   0.50053   0.74643   0.00000  Uiso   1.00
C861   C     0.50181   0.49974   0.66510   0.00000  Uiso   1.00
C862   C     0.50055   0.50025   0.83481   0.00000  Uiso   1.00
C863   C     0.47778   0.35659   0.71729   0.00000  Uiso   1.00
C864   C     0.52168   0.64331   0.78288   0.00000  Uiso   1.00
C865   C     0.52251   0.35928   0.78219   0.00000  Uiso   1.00
C866   C     0.47642   0.64059   0.71864   0.00000  Uiso   1.00
C867   C     0.35288   0.45709   0.74838   0.00000  Uiso   1.00
C868   C     0.64742   0.54250   0.75353   0.00000  Uiso   1.00
C869   C     0.64422   0.45984   0.73644   0.00000  Uiso   1.00
C870   C     0.35604   0.53963   0.76557   0.00000  Uiso   1.00
C871   C     0.51346   0.54032   0.54830   0.00000  Uiso   1.00
C872   C     0.47679   0.47271   0.95126   0.00000  Uiso   1.00
C873   C     0.53707   0.52395   0.95337   0.00000  Uiso   1.00
C874   C     0.50705   0.45677   0.54698   0.00000  Uiso   1.00
C875   C     0.51195   0.54072   0.59433   0.00000  Uiso   1.00
C876   C     0.47409   0.47374   0.90504   0.00000  Uiso   1.00
C877   C     0.53455   0.52453   0.90715   0.00000  Uiso   1.00
C878   C     0.50598   0.45725   0.59302   0.00000  Uiso   1.00
C879   C     0.50636   0.49924   0.61690   0.00000  Uiso   1.00
C880   C     0.50256   0.50033   0.88301   0.00000  Uiso   1.00
C881   C     0.50990   0.49839   0.52432   0.00000  Uiso   1.00
C882   C     0.50809   0.49817   0.97565   0.00000  Uiso   1.00
C883   C     0.62395   0.50161   0.74321   0.00000  Uiso   1.00
C884   C     0.37631   0.49809   0.75820   0.00000  Uiso   1.00
Cu885  Cu    0.50000   0.54689   0.75000   0.00000  Uiso   1.00
Cu886  Cu    0.50000   0.45311   0.75000   0.00000  Uiso   1.00
H887   H     0.51634   0.57279   0.53133   0.00000  Uiso   1.00
H888   H     0.45412   0.45271   0.96801   0.00000  Uiso   1.00
H889   H     0.56194   0.54294   0.97171   0.00000  Uiso   1.00
H890   H     0.50567   0.42397   0.52903   0.00000  Uiso   1.00
H891   H     0.51513   0.57351   0.61205   0.00000  Uiso   1.00
H892   H     0.44971   0.45416   0.88647   0.00000  Uiso   1.00
H893   H     0.55816   0.54267   0.89019   0.00000  Uiso   1.00
H894   H     0.50494   0.42482   0.60984   0.00000  Uiso   1.00
N895   N     0.50000   0.61736   0.75000   0.00000  Uiso   1.00
N896   N     0.50000   0.38264   0.75000   0.00000  Uiso   1.00
O897   O     0.43988   0.53958   0.75000   0.00000  Uiso   1.00
O898   O     0.56012   0.46042   0.75001   0.00000  Uiso   1.00
O899   O     0.56012   0.53958   0.75001   0.00000  Uiso   1.00
O900   O     0.43988   0.46042   0.75000   0.00000  Uiso   1.00
O901   O     0.50000   0.53959   0.68573   0.00000  Uiso   1.00
O902   O     0.50000   0.46041   0.81427   0.00000  Uiso   1.00
O903   O     0.50000   0.53959   0.81427   0.00000  Uiso   1.00
O904   O     0.50000   0.46041   0.68573   0.00000  Uiso   1.00
C905   C     0.45607   0.37806   0.67815   0.00000  Uiso   1.00
O906   O     0.43061   0.40775   0.68263   0.00000  Uiso   1.00
O907   O     0.46265   0.36122   0.63551   0.00000  Uiso   1.00
H908   H     0.44413   0.37588   0.61157   0.00000  Uiso   1.00
C909   C     0.54074   0.62138   0.82277   0.00000  Uiso   1.00
O910   O     0.57078   0.59713   0.82038   0.00000  Uiso   1.00
O911   O     0.52520   0.63104   0.86403   0.00000  Uiso   1.00
H912   H     0.54342   0.61967   0.88990   0.00000  Uiso   1.00
C913   C     0.55002   0.38474   0.81564   0.00000  Uiso   1.00
O914   O     0.58518   0.39524   0.80700   0.00000  Uiso   1.00
O915   O     0.53707   0.39278   0.85839   0.00000  Uiso   1.00
H916   H     0.55899   0.40932   0.87865   0.00000  Uiso   1.00
C917   C     0.44447   0.61538   0.68982   0.00000  Uiso   1.00
O918   O     0.40963   0.61086   0.70233   0.00000  Uiso   1.00
O919   O     0.45254   0.60162   0.64672   0.00000  Uiso   1.00
H920   H     0.42775   0.58612   0.63002   0.00000  Uiso   1.00
I921   I     0.37521   0.39013   0.76516   0.00000  Uiso   1.00
I922   I     0.62554   0.60973   0.73743   0.00000  Uiso   1.00
I923   I     0.61515   0.40444   0.69677   0.00000  Uiso   1.00
I924   I     0.38511   0.59376   0.80686   0.00000  Uiso   1.00
C925   C     0.75443   0.49944   0.75403   0.00000  Uiso   1.00
C926   C     0.91234   0.50053   0.74643   0.00000  Uiso   1.00
C927   C     0.83515   0.49974   0.66510   0.00000  Uiso   1.00
C928   C     0.83388   0.50025   0.83481   0.00000  Uiso   1.00
C929   C     0.81111   0.35659   0.71729   0.00000  Uiso   1.00
C930   C     0.85501   0.64331   0.78288   0.00000  Uiso   1.00
C931   C     0.85585   0.35928   0.78219   0.00000  Uiso   1.00
C932   C     0.80975   0.64059   0.71864   0.00000  Uiso   1.00
C933   C     0.68622   0.45709   0.74838   0.00000  Uiso   1.00
C934   C     0.98076   0.54250   0.75353   0.00000  Uiso   1.00
C935   C     0.97756   0.45984   0.73644   0.00000  Uiso   1.00
C936   C     0.68937   0.53963   0.76557   0.00000  Uiso   1.00
C937   C     0.84679   0.54032   0.54830   0.00000  Uiso   1.00
C938   C     0.81012   0.47271   0.95126   0.00000  Uiso   1.00
C939   C     0.87040   0.52395   0.95337   0.00000  Uiso   1.00
C940   C     0.84038   0.45677   0.54698   0.00000  Uiso   1.00
C941   C     0.84529   0.54072   0.59433   0.00000  Uiso   1.00
C942   C     0.80743   0.47374   0.90504   0.00000  Uiso   1.00
C943   C     0.86788   0.52453   0.90715   0.00000  Uiso   1.00
C944   C     0.83931   0.45725   0.59302   0.00000  Uiso   1.00
C945   C     0.83970   0.49924   0.61690   0.00000  Uiso   1.00
C946   C     0.83589   0.50033   0.88301   0.00000  Uiso   1.00
C947   C     0.84324   0.49839   0.52432   0.00000  Uiso   1.00
C948   C     0.84142   0.49817   0.97565   0.00000  Uiso   1.00
C949   C     0.95728   0.50161   0.74321   0.00000  Uiso   1.00
C950   C     0.70964   0.49809   0.75820   0.00000  Uiso   1.00
Cu951  Cu    0.83333   0.54689   0.75000   0.00000  Uiso   1.00
Cu952  Cu    0.83333   0.45311   0.75000   0.00000  Uiso   1.00
H953   H     0.84968   0.57279   0.53133   0.00000  Uiso   1.00
H954   H     0.78745   0.45271   0.96801   0.00000  Uiso   1.00
H955   H     0.89527   0.54294   0.97171   0.00000  Uiso   1.00
H956   H     0.83900   0.42397   0.52903   0.00000  Uiso   1.00
H957   H     0.84846   0.57351   0.61205   0.00000  Uiso   1.00
H958   H     0.78305   0.45416   0.88647   0.00000  Uiso   1.00
H959   H     0.89149   0.54267   0.89019   0.00000  Uiso   1.00
H960   H     0.83827   0.42482   0.60984   0.00000  Uiso   1.00
N961   N     0.83333   0.61736   0.75000   0.00000  Uiso   1.00
N962   N     0.83333   0.38264   0.75000   0.00000  Uiso   1.00
O963   O     0.77321   0.53958   0.75000   0.00000  Uiso   1.00
O964   O     0.89345   0.46042   0.75001   0.00000  Uiso   1.00
O965   O     0.89345   0.53958   0.75001   0.00000  Uiso   1.00
O966   O     0.77321   0.46042   0.75000   0.00000  Uiso   1.00
O967   O     0.83333   0.53959   0.68573   0.00000  Uiso   1.00
O968   O     0.83334   0.46041   0.81427   0.00000  Uiso   1.00
O969   O     0.83334   0.53959   0.81427   0.00000  Uiso   1.00
O970   O     0.83333   0.46041   0.68573   0.00000  Uiso   1.00
C971   C     0.78940   0.37806   0.67815   0.00000  Uiso   1.00
O972   O     0.76395   0.40775   0.68263   0.00000  Uiso   1.00
O973   O     0.79598   0.36122   0.63551   0.00000  Uiso   1.00
H974   H     0.77746   0.37588   0.61157   0.00000  Uiso   1.00
C975   C     0.87408   0.62138   0.82277   0.00000  Uiso   1.00
O976   O     0.90411   0.59713   0.82038   0.00000  Uiso   1.00
O977   O     0.85853   0.63104   0.86403   0.00000  Uiso   1.00
H978   H     0.87675   0.61967   0.88990   0.00000  Uiso   1.00
C979   C     0.88335   0.38474   0.81564   0.00000  Uiso   1.00
O980   O     0.91851   0.39524   0.80700   0.00000  Uiso   1.00
O981   O     0.87041   0.39278   0.85839   0.00000  Uiso   1.00
H982   H     0.89232   0.40932   0.87865   0.00000  Uiso   1.00
C983   C     0.77780   0.61538   0.68982   0.00000  Uiso   1.00
O984   O     0.74296   0.61086   0.70233   0.00000  Uiso   1.00
O985   O     0.78588   0.60162   0.64672   0.00000  Uiso   1.00
H986   H     0.76108   0.58612   0.63002   0.00000  Uiso   1.00
I987   I     0.70854   0.39013   0.76516   0.00000  Uiso   1.00
I988   I     0.95887   0.60973   0.73743   0.00000  Uiso   1.00
I989   I     0.94848   0.40444   0.69677   0.00000  Uiso   1.00
I990   I     0.71844   0.59376   0.80686   0.00000  Uiso   1.00
C991   C     0.08777   0.83277   0.75403   0.00000  Uiso   1.00
C992   C     0.24568   0.83386   0.74643   0.00000  Uiso   1.00
C993   C     0.16848   0.83307   0.66510   0.00000  Uiso   1.00
C994   C     0.16721   0.83358   0.83481   0.00000  Uiso   1.00
C995   C     0.14444   0.68992   0.71729   0.00000  Uiso   1.00
C996   C     0.18834   0.97664   0.78288   0.00000  Uiso   1.00
C997   C     0.18918   0.69262   0.78219   0.00000  Uiso   1.00
C998   C     0.14309   0.97392   0.71864   0.00000  Uiso   1.00
C999   C     0.01955   0.79043   0.74838   0.00000  Uiso   1.00
C1000  C     0.31409   0.87583   0.75353   0.00000  Uiso   1.00
C1001  C     0.31089   0.79317   0.73644   0.00000  Uiso   1.00
C1002  C     0.02271   0.87296   0.76557   0.00000  Uiso   1.00
C1003  C     0.18013   0.87365   0.54830   0.00000  Uiso   1.00
C1004  C     0.14346   0.80604   0.95126   0.00000  Uiso   1.00
C1005  C     0.20374   0.85729   0.95337   0.00000  Uiso   1.00
C1006  C     0.17372   0.79010   0.54698   0.00000  Uiso   1.00
C1007  C     0.17862   0.87405   0.59433   0.00000  Uiso   1.00
C1008  C     0.14076   0.80707   0.90504   0.00000  Uiso   1.00
C1009  C     0.20122   0.85786   0.90715   0.00000  Uiso   1.00
C1010  C     0.17264   0.79058   0.59302   0.00000  Uiso   1.00
C1011  C     0.17303   0.83258   0.61690   0.00000  Uiso   1.00
C1012  C     0.16923   0.83366   0.88301   0.00000  Uiso   1.00
C1013  C     0.17657   0.83172   0.52432   0.00000  Uiso   1.00
C1014  C     0.17475   0.83151   0.97565   0.00000  Uiso   1.00
C1015  C     0.29062   0.83494   0.74321   0.00000  Uiso   1.00
C1016  C     0.04298   0.83142   0.75820   0.00000  Uiso   1.00
Cu1017 Cu    0.16667   0.88022   0.75000   0.00000  Uiso   1.00
Cu1018 Cu    0.16667   0.78645   0.75000   0.00000  Uiso   1.00
H1019  H     0.18301   0.90612   0.53133   0.00000  Uiso   1.00
H1020  H     0.12078   0.78604   0.96801   0.00000  Uiso   1.00
H1021  H     0.22861   0.87628   0.97171   0.00000  Uiso   1.00
H1022  H     0.17234   0.75730   0.52903   0.00000  Uiso   1.00
H1023  H     0.18179   0.90684   0.61205   0.00000  Uiso   1.00
H1024  H     0.11638   0.78749   0.88647   0.00000  Uiso   1.00
H1025  H     0.22482   0.87600   0.89019   0.00000  Uiso   1.00
H1026  H     0.17160   0.75815   0.60984   0.00000  Uiso   1.00
N1027  N     0.16667   0.95069   0.75000   0.00000  Uiso   1.00
N1028  N     0.16667   0.71598   0.75000   0.00000  Uiso   1.00
O1029  O     0.10655   0.87291   0.75000   0.00000  Uiso   1.00
O1030  O     0.22679   0.79375   0.75001   0.00000  Uiso   1.00
O1031  O     0.22679   0.87291   0.75001   0.00000  Uiso   1.00
O1032  O     0.10655   0.79375   0.75000   0.00000  Uiso   1.00
O1033  O     0.16666   0.87293   0.68573   0.00000  Uiso   1.00
O1034  O     0.16667   0.79374   0.81427   0.00000  Uiso   1.00
O1035  O     0.16667   0.87293   0.81427   0.00000  Uiso   1.00
O1036  O     0.16666   0.79374   0.68573   0.00000  Uiso   1.00
C1037  C     0.12273   0.71139   0.67815   0.00000  Uiso   1.00
O1038  O     0.09728   0.74108   0.68263   0.00000  Uiso   1.00
O1039  O     0.12932   0.69455   0.63551   0.00000  Uiso   1.00
H1040  H     0.11080   0.70921   0.61157   0.00000  Uiso   1.00
C1041  C     0.20741   0.95471   0.82277   0.00000  Uiso   1.00
O1042  O     0.23744   0.93047   0.82038   0.00000  Uiso   1.00
O1043  O     0.19187   0.96437   0.86403   0.00000  Uiso   1.00
H1044  H     0.21008   0.95300   0.88990   0.00000  Uiso   1.00
C1045  C     0.21669   0.71807   0.81564   0.00000  Uiso   1.00
O1046  O     0.25185   0.72857   0.80700   0.00000  Uiso   1.00
O1047  O     0.20374   0.72611   0.85839   0.00000  Uiso   1.00
H1048  H     0.22565   0.74265   0.87865   0.00000  Uiso   1.00
C1049  C     0.11114   0.94871   0.68982   0.00000  Uiso   1.00
O1050  O     0.07630   0.94419   0.70233   0.00000  Uiso   1.00
O1051  O     0.11921   0.93496   0.64672   0.00000  Uiso   1.00
H1052  H     0.09441   0.91946   0.63002   0.00000  Uiso   1.00
I1053  I     0.04187   0.72346   0.76516   0.00000  Uiso   1.00
I1054  I     0.29221   0.94306   0.73743   0.00000  Uiso   1.00
I1055  I     0.28182   0.73777   0.69677   0.00000  Uiso   1.00
I1056  I     0.05177   0.92709   0.80686   0.00000  Uiso   1.00
C1057  C     0.42110   0.83277   0.75403   0.00000  Uiso   1.00
C1058  C     0.57901   0.83386   0.74643   0.00000  Uiso   1.00
C1059  C     0.50181   0.83307   0.66510   0.00000  Uiso   1.00
C1060  C     0.50055   0.83358   0.83481   0.00000  Uiso   1.00
C1061  C     0.47778   0.68992   0.71729   0.00000  Uiso   1.00
C1062  C     0.52168   0.97664   0.78288   0.00000  Uiso   1.00
C1063  C     0.52251   0.69262   0.78219   0.00000  Uiso   1.00
C1064  C     0.47642   0.97392   0.71864   0.00000  Uiso   1.00
C1065  C     0.35288   0.79043   0.74838   0.00000  Uiso   1.00
C1066  C     0.64742   0.87583   0.75353   0.00000  Uiso   1.00
C1067  C     0.64422   0.79317   0.73644   0.00000  Uiso   1.00
C1068  C     0.35604   0.87296   0.76557   0.00000  Uiso   1.00
C1069  C     0.51346   0.87365   0.54830   0.00000  Uiso   1.00
C1070  C     0.47679   0.80604   0.95126   0.00000  Uiso   1.00
C1071  C     0.53707   0.85729   0.95337   0.00000  Uiso   1.00
C1072  C     0.50705   0.79010   0.54698   0.00000  Uiso   1.00
C1073  C     0.51195   0.87405   0.59433   0.00000  Uiso   1.00
C1074  C     0.47409   0.80707   0.90504   0.00000  Uiso   1.00
C1075  C     0.53455   0.85786   0.90715   0.00000  Uiso   1.00
C1076  C     0.50598   0.79058   0.59302   0.00000  Uiso   1.00
C1077  C     0.50636   0.83258   0.61690   0.00000  Uiso   1.00
C1078  C     0.50256   0.83366   0.88301   0.00000  Uiso   1.00
C1079  C     0.50990   0.83172   0.52432   0.00000  Uiso   1.00
C1080  C     0.50809   0.83151   0.97565   0.00000  Uiso   1.00
C1081  C     0.62395   0.83494   0.74321   0.00000  Uiso   1.00
C1082  C     0.37631   0.83142   0.75820   0.00000  Uiso   1.00
Cu1083 Cu    0.50000   0.88022   0.75000   0.00000  Uiso   1.00
Cu1084 Cu    0.50000   0.78645   0.75000   0.00000  Uiso   1.00
H1085  H     0.51634   0.90612   0.53133   0.00000  Uiso   1.00
H1086  H     0.45412   0.78604   0.96801   0.00000  Uiso   1.00
H1087  H     0.56194   0.87628   0.97171   0.00000  Uiso   1.00
H1088  H     0.50567   0.75730   0.52903   0.00000  Uiso   1.00
H1089  H     0.51513   0.90684   0.61205   0.00000  Uiso   1.00
H1090  H     0.44971   0.78749   0.88647   0.00000  Uiso   1.00
H1091  H     0.55816   0.87600   0.89019   0.00000  Uiso   1.00
H1092  H     0.50494   0.75815   0.60984   0.00000  Uiso   1.00
N1093  N     0.50000   0.95069   0.75000   0.00000  Uiso   1.00
N1094  N     0.50000   0.71598   0.75000   0.00000  Uiso   1.00
O1095  O     0.43988   0.87291   0.75000   0.00000  Uiso   1.00
O1096  O     0.56012   0.79375   0.75001   0.00000  Uiso   1.00
O1097  O     0.56012   0.87291   0.75001   0.00000  Uiso   1.00
O1098  O     0.43988   0.79375   0.75000   0.00000  Uiso   1.00
O1099  O     0.50000   0.87293   0.68573   0.00000  Uiso   1.00
O1100  O     0.50000   0.79374   0.81427   0.00000  Uiso   1.00
O1101  O     0.50000   0.87293   0.81427   0.00000  Uiso   1.00
O1102  O     0.50000   0.79374   0.68573   0.00000  Uiso   1.00
C1103  C     0.45607   0.71139   0.67815   0.00000  Uiso   1.00
O1104  O     0.43061   0.74108   0.68263   0.00000  Uiso   1.00
O1105  O     0.46265   0.69455   0.63551   0.00000  Uiso   1.00
H1106  H     0.44413   0.70921   0.61157   0.00000  Uiso   1.00
C1107  C     0.54074   0.95471   0.82277   0.00000  Uiso   1.00
O1108  O     0.57078   0.93047   0.82038   0.00000  Uiso   1.00
O1109  O     0.52520   0.96437   0.86403   0.00000  Uiso   1.00
H1110  H     0.54342   0.95300   0.88990   0.00000  Uiso   1.00
C1111  C     0.55002   0.71807   0.81564   0.00000  Uiso   1.00
O1112  O     0.58518   0.72857   0.80700   0.00000  Uiso   1.00
O1113  O     0.53707   0.72611   0.85839   0.00000  Uiso   1.00
H1114  H     0.55899   0.74265   0.87865   0.00000  Uiso   1.00
C1115  C     0.44447   0.94871   0.68982   0.00000  Uiso   1.00
O1116  O     0.40963   0.94419   0.70233   0.00000  Uiso   1.00
O1117  O     0.45254   0.93496   0.64672   0.00000  Uiso   1.00
H1118  H     0.42775   0.91946   0.63002   0.00000  Uiso   1.00
I1119  I     0.37521   0.72346   0.76516   0.00000  Uiso   1.00
I1120  I     0.62554   0.94306   0.73743   0.00000  Uiso   1.00
I1121  I     0.61515   0.73777   0.69677   0.00000  Uiso   1.00
I1122  I     0.38511   0.92709   0.80686   0.00000  Uiso   1.00
C1123  C     0.75443   0.83277   0.75403   0.00000  Uiso   1.00
C1124  C     0.91234   0.83386   0.74643   0.00000  Uiso   1.00
C1125  C     0.83515   0.83307   0.66510   0.00000  Uiso   1.00
C1126  C     0.83388   0.83358   0.83481   0.00000  Uiso   1.00
C1127  C     0.81111   0.68992   0.71729   0.00000  Uiso   1.00
C1128  C     0.85501   0.97664   0.78288   0.00000  Uiso   1.00
C1129  C     0.85585   0.69262   0.78219   0.00000  Uiso   1.00
C1130  C     0.80975   0.97392   0.71864   0.00000  Uiso   1.00
C1131  C     0.68622   0.79043   0.74838   0.00000  Uiso   1.00
C1132  C     0.98076   0.87583   0.75353   0.00000  Uiso   1.00
C1133  C     0.97756   0.79317   0.73644   0.00000  Uiso   1.00
C1134  C     0.68937   0.87296   0.76557   0.00000  Uiso   1.00
C1135  C     0.84679   0.87365   0.54830   0.00000  Uiso   1.00
C1136  C     0.81012   0.80604   0.95126   0.00000  Uiso   1.00
C1137  C     0.87040   0.85729   0.95337   0.00000  Uiso   1.00
C1138  C     0.84038   0.79010   0.54698   0.00000  Uiso   1.00
C1139  C     0.84529   0.87405   0.59433   0.00000  Uiso   1.00
C1140  C     0.80743   0.80707   0.90504   0.00000  Uiso   1.00
C1141  C     0.86788   0.85786   0.90715   0.00000  Uiso   1.00
C1142  C     0.83931   0.79058   0.59302   0.00000  Uiso   1.00
C1143  C     0.83970   0.83258   0.61690   0.00000  Uiso   1.00
C1144  C     0.83589   0.83366   0.88301   0.00000  Uiso   1.00
C1145  C     0.84324   0.83172   0.52432   0.00000  Uiso   1.00
C1146  C     0.84142   0.83151   0.97565   0.00000  Uiso   1.00
C1147  C     0.95728   0.83494   0.74321   0.00000  Uiso   1.00
C1148  C     0.70964   0.83142   0.75820   0.00000  Uiso   1.00
Cu1149 Cu    0.83333   0.88022   0.75000   0.00000  Uiso   1.00
Cu1150 Cu    0.83333   0.78645   0.75000   0.00000  Uiso   1.00
H1151  H     0.84968   0.90612   0.53133   0.00000  Uiso   1.00
H1152  H     0.78745   0.78604   0.96801   0.00000  Uiso   1.00
H1153  H     0.89527   0.87628   0.97171   0.00000  Uiso   1.00
H1154  H     0.83900   0.75730   0.52903   0.00000  Uiso   1.00
H1155  H     0.84846   0.90684   0.61205   0.00000  Uiso   1.00
H1156  H     0.78305   0.78749   0.88647   0.00000  Uiso   1.00
H1157  H     0.89149   0.87600   0.89019   0.00000  Uiso   1.00
H1158  H     0.83827   0.75815   0.60984   0.00000  Uiso   1.00
N1159  N     0.83333   0.95069   0.75000   0.00000  Uiso   1.00
N1160  N     0.83333   0.71598   0.75000   0.00000  Uiso   1.00
O1161  O     0.77321   0.87291   0.75000   0.00000  Uiso   1.00
O1162  O     0.89345   0.79375   0.75001   0.00000  Uiso   1.00
O1163  O     0.89345   0.87291   0.75001   0.00000  Uiso   1.00
O1164  O     0.77321   0.79375   0.75000   0.00000  Uiso   1.00
O1165  O     0.83333   0.87293   0.68573   0.00000  Uiso   1.00
O1166  O     0.83334   0.79374   0.81427   0.00000  Uiso   1.00
O1167  O     0.83334   0.87293   0.81427   0.00000  Uiso   1.00
O1168  O     0.83333   0.79374   0.68573   0.00000  Uiso   1.00
C1169  C     0.78940   0.71139   0.67815   0.00000  Uiso   1.00
O1170  O     0.76395   0.74108   0.68263   0.00000  Uiso   1.00
O1171  O     0.79598   0.69455   0.63551   0.00000  Uiso   1.00
H1172  H     0.77746   0.70921   0.61157   0.00000  Uiso   1.00
C1173  C     0.87408   0.95471   0.82277   0.00000  Uiso   1.00
O1174  O     0.90411   0.93047   0.82038   0.00000  Uiso   1.00
O1175  O     0.85853   0.96437   0.86403   0.00000  Uiso   1.00
H1176  H     0.87675   0.95300   0.88990   0.00000  Uiso   1.00
C1177  C     0.88335   0.71807   0.81564   0.00000  Uiso   1.00
O1178  O     0.91851   0.72857   0.80700   0.00000  Uiso   1.00
O1179  O     0.87041   0.72611   0.85839   0.00000  Uiso   1.00
H1180  H     0.89232   0.74265   0.87865   0.00000  Uiso   1.00
C1181  C     0.77780   0.94871   0.68982   0.00000  Uiso   1.00
O1182  O     0.74296   0.94419   0.70233   0.00000  Uiso   1.00
O1183  O     0.78588   0.93496   0.64672   0.00000  Uiso   1.00
H1184  H     0.76108   0.91946   0.63002   0.00000  Uiso   1.00
I1185  I     0.70854   0.72346   0.76516   0.00000  Uiso   1.00
I1186  I     0.95887   0.94306   0.73743   0.00000  Uiso   1.00
I1187  I     0.94848   0.73777   0.69677   0.00000  Uiso   1.00
I1188  I     0.71844   0.92709   0.80686   0.00000  Uiso   1.00
loop_
_geom_bond_atom_site_label_1
_geom_bond_atom_site_label_2
_geom_bond_distance
_geom_bond_site_symmetry_2
_ccdc_geom_bond_type
C1     C26     1.469   .     S
C1     O39     1.312   .     A
C1     O42     1.303   .     A
C2     C25     1.469   .     S
C2     O41     1.304   .     A
C2     O40     1.311   .     A
C3     O46     1.309   .     A
C3     O43     1.306   .     A
C3     C21     1.470   .     S
C4     C22     1.450   .     S
C4     O45     1.306   .     A
C4     O44     1.299   .     A
C5     C47     1.488   .     S
C5     N38     1.386   .     A
C5     C404    1.430   1_545 S
C6     C51     1.477   .     S
C6     N37     1.380   .     A
C6     C205    1.428   .     S
C7     C55     1.479   .     S
C7     N38     1.374   .     A
C7     C402    1.428   1_545 S
C8     C59     1.481   .     S
C8     N37     1.373   .     A
C8     C203    1.430   .     S
C9     C26     1.413   .     A
C9     I63     2.142   .     S
C9     C143    1.393   1_455 S
C10    C25     1.414   .     A
C10    I64     2.140   .     S
C10    C78     1.392   .     S
C11    C25     1.408   .     A
C11    I65     2.149   .     S
C11    C75     1.393   .     S
C12    I66     2.148   .     S
C12    C26     1.405   .     A
C12    C142    1.392   1_455 S
C13    C17     1.391   .     A
C13    C23     1.401   .     A
C13    H29     1.083   .     S
C14    H30     1.083   .     S
C14    C24     1.403   .     A
C14    C18     1.391   .     A
C15    H31     1.083   .     S
C15    C19     1.391   .     A
C15    C24     1.402   .     A
C16    H32     1.083   .     S
C16    C20     1.390   .     A
C16    C23     1.400   .     A
C17    H33     1.081   .     S
C17    C21     1.405   .     A
C18    C22     1.399   .     A
C18    H34     1.084   .     S
C19    C22     1.398   .     A
C19    H35     1.081   .     S
C20    H36     1.076   .     S
C20    C21     1.402   .     A
C23    C618    1.464   1_554 S
C24    C617    1.464   .     S
Cu27   O41     1.970   .     S
Cu27   O45     1.952   .     S
Cu27   N37     2.041   .     S
Cu27   O39     1.960   .     S
Cu27   Cu28    2.715   .     S
Cu27   O43     1.945   .     S
Cu28   O46     1.952   .     S
Cu28   O42     1.970   .     S
Cu28   O40     1.960   .     S
Cu28   N38     2.041   .     S
Cu28   O44     1.945   .     S
C47    O48     1.218   .     D
C47    O49     1.398   .     S
O49    H50     1.014   .     S
C51    O52     1.219   .     D
C51    O53     1.398   .     S
O53    H54     1.012   .     S
C55    O56     1.222   .     D
C55    O57     1.398   .     S
O57    H58     1.014   .     S
C59    O60     1.221   .     D
C59    O61     1.395   .     S
O61    H62     1.014   .     S
C67    C92     1.469   .     S
C67    O105    1.312   .     A
C67    O108    1.303   .     A
C68    C91     1.469   .     S
C68    O107    1.304   .     A
C68    O106    1.311   .     A
C69    O112    1.309   .     A
C69    O109    1.306   .     A
C69    C87     1.470   .     S
C70    C88     1.450   .     S
C70    O111    1.306   .     A
C70    O110    1.299   .     A
C71    C113    1.488   .     S
C71    N104    1.386   .     A
C71    C470    1.430   1_545 S
C72    C117    1.477   .     S
C72    N103    1.380   .     A
C72    C271    1.428   .     S
C73    C121    1.479   .     S
C73    N104    1.374   .     A
C73    C468    1.428   1_545 S
C74    C125    1.481   .     S
C74    N103    1.373   .     A
C74    C269    1.430   .     S
C75    C92     1.413   .     A
C75    I129    2.142   .     S
C76    C91     1.414   .     A
C76    I130    2.140   .     S
C76    C144    1.392   .     S
C77    C91     1.408   .     A
C77    I131    2.149   .     S
C77    C141    1.393   .     S
C78    I132    2.148   .     S
C78    C92     1.405   .     A
C79    C83     1.391   .     A
C79    C89     1.401   .     A
C79    H95     1.083   .     S
C80    H96     1.083   .     S
C80    C90     1.403   .     A
C80    C84     1.391   .     A
C81    H97     1.083   .     S
C81    C85     1.391   .     A
C81    C90     1.402   .     A
C82    H98     1.083   .     S
C82    C86     1.390   .     A
C82    C89     1.400   .     A
C83    H99     1.081   .     S
C83    C87     1.405   .     A
C84    C88     1.399   .     A
C84    H100    1.084   .     S
C85    C88     1.398   .     A
C85    H101    1.081   .     S
C86    H102    1.076   .     S
C86    C87     1.402   .     A
C89    C684    1.464   1_554 S
C90    C683    1.464   .     S
Cu93   O107    1.970   .     S
Cu93   O111    1.952   .     S
Cu93   N103    2.041   .     S
Cu93   O105    1.960   .     S
Cu93   Cu94    2.715   .     S
Cu93   O109    1.945   .     S
Cu94   O112    1.952   .     S
Cu94   O108    1.970   .     S
Cu94   O106    1.960   .     S
Cu94   N104    2.041   .     S
Cu94   O110    1.945   .     S
C113   O114    1.218   .     D
C113   O115    1.398   .     S
O115   H116    1.014   .     S
C117   O118    1.219   .     D
C117   O119    1.398   .     S
O119   H120    1.012   .     S
C121   O122    1.222   .     D
C121   O123    1.398   .     S
O123   H124    1.014   .     S
C125   O126    1.221   .     D
C125   O127    1.395   .     S
O127   H128    1.014   .     S
C133   C158    1.469   .     S
C133   O171    1.312   .     A
C133   O174    1.303   .     A
C134   C157    1.469   .     S
C134   O173    1.304   .     A
C134   O172    1.311   .     A
C135   O178    1.309   .     A
C135   O175    1.306   .     A
C135   C153    1.470   .     S
C136   C154    1.450   .     S
C136   O177    1.306   .     A
C136   O176    1.299   .     A
C137   C179    1.488   .     S
C137   N170    1.386   .     A
C137   C536    1.430   1_545 S
C138   C183    1.477   .     S
C138   N169    1.380   .     A
C138   C337    1.428   .     S
C139   C187    1.479   .     S
C139   N170    1.374   .     A
C139   C534    1.428   1_545 S
C140   C191    1.481   .     S
C140   N169    1.373   .     A
C140   C335    1.430   .     S
C141   C158    1.413   .     A
C141   I195    2.142   .     S
C142   C157    1.414   .     A
C142   I196    2.140   .     S
C142   C12     1.392   1_655 S
C143   C157    1.408   .     A
C143   I197    2.149   .     S
C143   C9      1.393   1_655 S
C144   I198    2.148   .     S
C144   C158    1.405   .     A
C145   C149    1.391   .     A
C145   C155    1.401   .     A
C145   H161    1.083   .     S
C146   H162    1.083   .     S
C146   C156    1.403   .     A
C146   C150    1.391   .     A
C147   H163    1.083   .     S
C147   C151    1.391   .     A
C147   C156    1.402   .     A
C148   H164    1.083   .     S
C148   C152    1.390   .     A
C148   C155    1.400   .     A
C149   H165    1.081   .     S
C149   C153    1.405   .     A
C150   C154    1.399   .     A
C150   H166    1.084   .     S
C151   C154    1.398   .     A
C151   H167    1.081   .     S
C152   H168    1.076   .     S
C152   C153    1.402   .     A
C155   C750    1.464   1_554 S
C156   C749    1.464   .     S
Cu159  O173    1.970   .     S
Cu159  O177    1.952   .     S
Cu159  N169    2.041   .     S
Cu159  O171    1.960   .     S
Cu159  Cu160   2.715   .     S
Cu159  O175    1.945   .     S
Cu160  O178    1.952   .     S
Cu160  O174    1.970   .     S
Cu160  O172    1.960   .     S
Cu160  N170    2.041   .     S
Cu160  O176    1.945   .     S
C179   O180    1.218   .     D
C179   O181    1.398   .     S
O181   H182    1.014   .     S
C183   O184    1.219   .     D
C183   O185    1.398   .     S
O185   H186    1.012   .     S
C187   O188    1.222   .     D
C187   O189    1.398   .     S
O189   H190    1.014   .     S
C191   O192    1.221   .     D
C191   O193    1.395   .     S
O193   H194    1.014   .     S
C199   C224    1.469   .     S
C199   O237    1.312   .     A
C199   O240    1.303   .     A
C200   C223    1.469   .     S
C200   O239    1.304   .     A
C200   O238    1.311   .     A
C201   O244    1.309   .     A
C201   O241    1.306   .     A
C201   C219    1.470   .     S
C202   C220    1.450   .     S
C202   O243    1.306   .     A
C202   O242    1.299   .     A
C203   C245    1.488   .     S
C203   N236    1.386   .     A
C204   C249    1.477   .     S
C204   N235    1.380   .     A
C204   C403    1.428   .     S
C205   C253    1.479   .     S
C205   N236    1.374   .     A
C206   C257    1.481   .     S
C206   N235    1.373   .     A
C206   C401    1.430   .     S
C207   C224    1.413   .     A
C207   I261    2.142   .     S
C207   C341    1.393   1_455 S
C208   C223    1.414   .     A
C208   I262    2.140   .     S
C208   C276    1.392   .     S
C209   C223    1.408   .     A
C209   I263    2.149   .     S
C209   C273    1.393   .     S
C210   I264    2.148   .     S
C210   C224    1.405   .     A
C210   C340    1.392   1_455 S
C211   C215    1.391   .     A
C211   C221    1.401   .     A
C211   H227    1.083   .     S
C212   H228    1.083   .     S
C212   C222    1.403   .     A
C212   C216    1.391   .     A
C213   H229    1.083   .     S
C213   C217    1.391   .     A
C213   C222    1.402   .     A
C214   H230    1.083   .     S
C214   C218    1.390   .     A
C214   C221    1.400   .     A
C215   H231    1.081   .     S
C215   C219    1.405   .     A
C216   C220    1.399   .     A
C216   H232    1.084   .     S
C217   C220    1.398   .     A
C217   H233    1.081   .     S
C218   H234    1.076   .     S
C218   C219    1.402   .     A
C221   C816    1.464   1_554 S
C222   C815    1.464   .     S
Cu225  O239    1.970   .     S
Cu225  O243    1.952   .     S
Cu225  N235    2.041   .     S
Cu225  O237    1.960   .     S
Cu225  Cu226   2.715   .     S
Cu225  O241    1.945   .     S
Cu226  O244    1.952   .     S
Cu226  O240    1.970   .     S
Cu226  O238    1.960   .     S
Cu226  N236    2.041   .     S
Cu226  O242    1.945   .     S
C245   O246    1.218   .     D
C245   O247    1.398   .     S
O247   H248    1.014   .     S
C249   O250    1.219   .     D
C249   O251    1.398   .     S
O251   H252    1.012   .     S
C253   O254    1.222   .     D
C253   O255    1.398   .     S
O255   H256    1.014   .     S
C257   O258    1.221   .     D
C257   O259    1.395   .     S
O259   H260    1.014   .     S
C265   C290    1.469   .     S
C265   O303    1.312   .     A
C265   O306    1.303   .     A
C266   C289    1.469   .     S
C266   O305    1.304   .     A
C266   O304    1.311   .     A
C267   O310    1.309   .     A
C267   O307    1.306   .     A
C267   C285    1.470   .     S
C268   C286    1.450   .     S
C268   O309    1.306   .     A
C268   O308    1.299   .     A
C269   C311    1.488   .     S
C269   N302    1.386   .     A
C270   C315    1.477   .     S
C270   N301    1.380   .     A
C270   C469    1.428   .     S
C271   C319    1.479   .     S
C271   N302    1.374   .     A
C272   C323    1.481   .     S
C272   N301    1.373   .     A
C272   C467    1.430   .     S
C273   C290    1.413   .     A
C273   I327    2.142   .     S
C274   C289    1.414   .     A
C274   I328    2.140   .     S
C274   C342    1.392   .     S
C275   C289    1.408   .     A
C275   I329    2.149   .     S
C275   C339    1.393   .     S
C276   I330    2.148   .     S
C276   C290    1.405   .     A
C277   C281    1.391   .     A
C277   C287    1.401   .     A
C277   H293    1.083   .     S
C278   H294    1.083   .     S
C278   C288    1.403   .     A
C278   C282    1.391   .     A
C279   H295    1.083   .     S
C279   C283    1.391   .     A
C279   C288    1.402   .     A
C280   H296    1.083   .     S
C280   C284    1.390   .     A
C280   C287    1.400   .     A
C281   H297    1.081   .     S
C281   C285    1.405   .     A
C282   C286    1.399   .     A
C282   H298    1.084   .     S
C283   C286    1.398   .     A
C283   H299    1.081   .     S
C284   H300    1.076   .     S
C284   C285    1.402   .     A
C287   C882    1.464   1_554 S
C288   C881    1.464   .     S
Cu291  O305    1.970   .     S
Cu291  O309    1.952   .     S
Cu291  N301    2.041   .     S
Cu291  O303    1.960   .     S
Cu291  Cu292   2.715   .     S
Cu291  O307    1.945   .     S
Cu292  O310    1.952   .     S
Cu292  O306    1.970   .     S
Cu292  O304    1.960   .     S
Cu292  N302    2.041   .     S
Cu292  O308    1.945   .     S
C311   O312    1.218   .     D
C311   O313    1.398   .     S
O313   H314    1.014   .     S
C315   O316    1.219   .     D
C315   O317    1.398   .     S
O317   H318    1.012   .     S
C319   O320    1.222   .     D
C319   O321    1.398   .     S
O321   H322    1.014   .     S
C323   O324    1.221   .     D
C323   O325    1.395   .     S
O325   H326    1.014   .     S
C331   C356    1.469   .     S
C331   O369    1.312   .     A
C331   O372    1.303   .     A
C332   C355    1.469   .     S
C332   O371    1.304   .     A
C332   O370    1.311   .     A
C333   O376    1.309   .     A
C333   O373    1.306   .     A
C333   C351    1.470   .     S
C334   C352    1.450   .     S
C334   O375    1.306   .     A
C334   O374    1.299   .     A
C335   C377    1.488   .     S
C335   N368    1.386   .     A
C336   C381    1.477   .     S
C336   N367    1.380   .     A
C336   C535    1.428   .     S
C337   C385    1.479   .     S
C337   N368    1.374   .     A
C338   C389    1.481   .     S
C338   N367    1.373   .     A
C338   C533    1.430   .     S
C339   C356    1.413   .     A
C339   I393    2.142   .     S
C340   C355    1.414   .     A
C340   I394    2.140   .     S
C340   C210    1.392   1_655 S
C341   C355    1.408   .     A
C341   I395    2.149   .     S
C341   C207    1.393   1_655 S
C342   I396    2.148   .     S
C342   C356    1.405   .     A
C343   C347    1.391   .     A
C343   C353    1.401   .     A
C343   H359    1.083   .     S
C344   H360    1.083   .     S
C344   C354    1.403   .     A
C344   C348    1.391   .     A
C345   H361    1.083   .     S
C345   C349    1.391   .     A
C345   C354    1.402   .     A
C346   H362    1.083   .     S
C346   C350    1.390   .     A
C346   C353    1.400   .     A
C347   H363    1.081   .     S
C347   C351    1.405   .     A
C348   C352    1.399   .     A
C348   H364    1.084   .     S
C349   C352    1.398   .     A
C349   H365    1.081   .     S
C350   H366    1.076   .     S
C350   C351    1.402   .     A
C353   C948    1.464   1_554 S
C354   C947    1.464   .     S
Cu357  O371    1.970   .     S
Cu357  O375    1.952   .     S
Cu357  N367    2.041   .     S
Cu357  O369    1.960   .     S
Cu357  Cu358   2.715   .     S
Cu357  O373    1.945   .     S
Cu358  O376    1.952   .     S
Cu358  O372    1.970   .     S
Cu358  O370    1.960   .     S
Cu358  N368    2.041   .     S
Cu358  O374    1.945   .     S
C377   O378    1.218   .     D
C377   O379    1.398   .     S
O379   H380    1.014   .     S
C381   O382    1.219   .     D
C381   O383    1.398   .     S
O383   H384    1.012   .     S
C385   O386    1.222   .     D
C385   O387    1.398   .     S
O387   H388    1.014   .     S
C389   O390    1.221   .     D
C389   O391    1.395   .     S
O391   H392    1.014   .     S
C397   C422    1.469   .     S
C397   O435    1.312   .     A
C397   O438    1.303   .     A
C398   C421    1.469   .     S
C398   O437    1.304   .     A
C398   O436    1.311   .     A
C399   O442    1.309   .     A
C399   O439    1.306   .     A
C399   C417    1.470   .     S
C400   C418    1.450   .     S
C400   O441    1.306   .     A
C400   O440    1.299   .     A
C401   C443    1.488   .     S
C401   N434    1.386   .     A
C402   C447    1.477   .     S
C402   N433    1.380   .     A
C402   C7      1.428   1_565 S
C403   C451    1.479   .     S
C403   N434    1.374   .     A
C404   C455    1.481   .     S
C404   N433    1.373   .     A
C404   C5      1.430   1_565 S
C405   C422    1.413   .     A
C405   I459    2.142   .     S
C405   C539    1.393   1_455 S
C406   C421    1.414   .     A
C406   I460    2.140   .     S
C406   C474    1.392   .     S
C407   C421    1.408   .     A
C407   I461    2.149   .     S
C407   C471    1.393   .     S
C408   I462    2.148   .     S
C408   C422    1.405   .     A
C408   C538    1.392   1_455 S
C409   C413    1.391   .     A
C409   C419    1.401   .     A
C409   H425    1.083   .     S
C410   H426    1.083   .     S
C410   C420    1.403   .     A
C410   C414    1.391   .     A
C411   H427    1.083   .     S
C411   C415    1.391   .     A
C411   C420    1.402   .     A
C412   H428    1.083   .     S
C412   C416    1.390   .     A
C412   C419    1.400   .     A
C413   H429    1.081   .     S
C413   C417    1.405   .     A
C414   C418    1.399   .     A
C414   H430    1.084   .     S
C415   C418    1.398   .     A
C415   H431    1.081   .     S
C416   H432    1.076   .     S
C416   C417    1.402   .     A
C419   C1014   1.464   1_554 S
C420   C1013   1.464   .     S
Cu423  O437    1.970   .     S
Cu423  O441    1.952   .     S
Cu423  N433    2.041   .     S
Cu423  O435    1.960   .     S
Cu423  Cu424   2.715   .     S
Cu423  O439    1.945   .     S
Cu424  O442    1.952   .     S
Cu424  O438    1.970   .     S
Cu424  O436    1.960   .     S
Cu424  N434    2.041   .     S
Cu424  O440    1.945   .     S
C443   O444    1.218   .     D
C443   O445    1.398   .     S
O445   H446    1.014   .     S
C447   O448    1.219   .     D
C447   O449    1.398   .     S
O449   H450    1.012   .     S
C451   O452    1.222   .     D
C451   O453    1.398   .     S
O453   H454    1.014   .     S
C455   O456    1.221   .     D
C455   O457    1.395   .     S
O457   H458    1.014   .     S
C463   C488    1.469   .     S
C463   O501    1.312   .     A
C463   O504    1.303   .     A
C464   C487    1.469   .     S
C464   O503    1.304   .     A
C464   O502    1.311   .     A
C465   O508    1.309   .     A
C465   O505    1.306   .     A
C465   C483    1.470   .     S
C466   C484    1.450   .     S
C466   O507    1.306   .     A
C466   O506    1.299   .     A
C467   C509    1.488   .     S
C467   N500    1.386   .     A
C468   C513    1.477   .     S
C468   N499    1.380   .     A
C468   C73     1.428   1_565 S
C469   C517    1.479   .     S
C469   N500    1.374   .     A
C470   C521    1.481   .     S
C470   N499    1.373   .     A
C470   C71     1.430   1_565 S
C471   C488    1.413   .     A
C471   I525    2.142   .     S
C472   C487    1.414   .     A
C472   I526    2.140   .     S
C472   C540    1.392   .     S
C473   C487    1.408   .     A
C473   I527    2.149   .     S
C473   C537    1.393   .     S
C474   I528    2.148   .     S
C474   C488    1.405   .     A
C475   C479    1.391   .     A
C475   C485    1.401   .     A
C475   H491    1.083   .     S
C476   H492    1.083   .     S
C476   C486    1.403   .     A
C476   C480    1.391   .     A
C477   H493    1.083   .     S
C477   C481    1.391   .     A
C477   C486    1.402   .     A
C478   H494    1.083   .     S
C478   C482    1.390   .     A
C478   C485    1.400   .     A
C479   H495    1.081   .     S
C479   C483    1.405   .     A
C480   C484    1.399   .     A
C480   H496    1.084   .     S
C481   C484    1.398   .     A
C481   H497    1.081   .     S
C482   H498    1.076   .     S
C482   C483    1.402   .     A
C485   C1080   1.464   1_554 S
C486   C1079   1.464   .     S
Cu489  O503    1.970   .     S
Cu489  O507    1.952   .     S
Cu489  N499    2.041   .     S
Cu489  O501    1.960   .     S
Cu489  Cu490   2.715   .     S
Cu489  O505    1.945   .     S
Cu490  O508    1.952   .     S
Cu490  O504    1.970   .     S
Cu490  O502    1.960   .     S
Cu490  N500    2.041   .     S
Cu490  O506    1.945   .     S
C509   O510    1.218   .     D
C509   O511    1.398   .     S
O511   H512    1.014   .     S
C513   O514    1.219   .     D
C513   O515    1.398   .     S
O515   H516    1.012   .     S
C517   O518    1.222   .     D
C517   O519    1.398   .     S
O519   H520    1.014   .     S
C521   O522    1.221   .     D
C521   O523    1.395   .     S
O523   H524    1.014   .     S
C529   C554    1.469   .     S
C529   O567    1.312   .     A
C529   O570    1.303   .     A
C530   C553    1.469   .     S
C530   O569    1.304   .     A
C530   O568    1.311   .     A
C531   O574    1.309   .     A
C531   O571    1.306   .     A
C531   C549    1.470   .     S
C532   C550    1.450   .     S
C532   O573    1.306   .     A
C532   O572    1.299   .     A
C533   C575    1.488   .     S
C533   N566    1.386   .     A
C534   C579    1.477   .     S
C534   N565    1.380   .     A
C534   C139    1.428   1_565 S
C535   C583    1.479   .     S
C535   N566    1.374   .     A
C536   C587    1.481   .     S
C536   N565    1.373   .     A
C536   C137    1.430   1_565 S
C537   C554    1.413   .     A
C537   I591    2.142   .     S
C538   C553    1.414   .     A
C538   I592    2.140   .     S
C538   C408    1.392   1_655 S
C539   C553    1.408   .     A
C539   I593    2.149   .     S
C539   C405    1.393   1_655 S
C540   I594    2.148   .     S
C540   C554    1.405   .     A
C541   C545    1.391   .     A
C541   C551    1.401   .     A
C541   H557    1.083   .     S
C542   H558    1.083   .     S
C542   C552    1.403   .     A
C542   C546    1.391   .     A
C543   H559    1.083   .     S
C543   C547    1.391   .     A
C543   C552    1.402   .     A
C544   H560    1.083   .     S
C544   C548    1.390   .     A
C544   C551    1.400   .     A
C545   H561    1.081   .     S
C545   C549    1.405   .     A
C546   C550    1.399   .     A
C546   H562    1.084   .     S
C547   C550    1.398   .     A
C547   H563    1.081   .     S
C548   H564    1.076   .     S
C548   C549    1.402   .     A
C551   C1146   1.464   1_554 S
C552   C1145   1.464   .     S
Cu555  O569    1.970   .     S
Cu555  O573    1.952   .     S
Cu555  N565    2.041   .     S
Cu555  O567    1.960   .     S
Cu555  Cu556   2.715   .     S
Cu555  O571    1.945   .     S
Cu556  O574    1.952   .     S
Cu556  O570    1.970   .     S
Cu556  O568    1.960   .     S
Cu556  N566    2.041   .     S
Cu556  O572    1.945   .     S
C575   O576    1.218   .     D
C575   O577    1.398   .     S
O577   H578    1.014   .     S
C579   O580    1.219   .     D
C579   O581    1.398   .     S
O581   H582    1.012   .     S
C583   O584    1.222   .     D
C583   O585    1.398   .     S
O585   H586    1.014   .     S
C587   O588    1.221   .     D
C587   O589    1.395   .     S
O589   H590    1.014   .     S
C595   C620    1.469   .     S
C595   O633    1.312   .     A
C595   O636    1.303   .     A
C596   C619    1.469   .     S
C596   O635    1.304   .     A
C596   O634    1.311   .     A
C597   O640    1.309   .     A
C597   O637    1.306   .     A
C597   C615    1.470   .     S
C598   C616    1.450   .     S
C598   O639    1.306   .     A
C598   O638    1.299   .     A
C599   C641    1.488   .     S
C599   N632    1.386   .     A
C599   C998    1.430   1_545 S
C600   C645    1.477   .     S
C600   N631    1.380   .     A
C600   C799    1.428   .     S
C601   C649    1.479   .     S
C601   N632    1.374   .     A
C601   C996    1.428   1_545 S
C602   C653    1.481   .     S
C602   N631    1.373   .     A
C602   C797    1.430   .     S
C603   C620    1.413   .     A
C603   I657    2.142   .     S
C603   C737    1.393   1_455 S
C604   C619    1.414   .     A
C604   I658    2.140   .     S
C604   C672    1.392   .     S
C605   C619    1.408   .     A
C605   I659    2.149   .     S
C605   C669    1.393   .     S
C606   I660    2.148   .     S
C606   C620    1.405   .     A
C606   C736    1.392   1_455 S
C607   C611    1.391   .     A
C607   C617    1.401   .     A
C607   H623    1.083   .     S
C608   H624    1.083   .     S
C608   C618    1.403   .     A
C608   C612    1.391   .     A
C609   H625    1.083   .     S
C609   C613    1.391   .     A
C609   C618    1.402   .     A
C610   H626    1.083   .     S
C610   C614    1.390   .     A
C610   C617    1.400   .     A
C611   H627    1.081   .     S
C611   C615    1.405   .     A
C612   C616    1.399   .     A
C612   H628    1.084   .     S
C613   C616    1.398   .     A
C613   H629    1.081   .     S
C614   H630    1.076   .     S
C614   C615    1.402   .     A
C618   C23     1.464   1_556 S
Cu621  O635    1.970   .     S
Cu621  O639    1.952   .     S
Cu621  N631    2.041   .     S
Cu621  O633    1.960   .     S
Cu621  Cu622   2.715   .     S
Cu621  O637    1.945   .     S
Cu622  O640    1.952   .     S
Cu622  O636    1.970   .     S
Cu622  O634    1.960   .     S
Cu622  N632    2.041   .     S
Cu622  O638    1.945   .     S
C641   O642    1.218   .     D
C641   O643    1.398   .     S
O643   H644    1.014   .     S
C645   O646    1.219   .     D
C645   O647    1.398   .     S
O647   H648    1.012   .     S
C649   O650    1.222   .     D
C649   O651    1.398   .     S
O651   H652    1.014   .     S
C653   O654    1.221   .     D
C653   O655    1.395   .     S
O655   H656    1.014   .     S
C661   C686    1.469   .     S
C661   O699    1.312   .     A
C661   O702    1.303   .     A
C662   C685    1.469   .     S
C662   O701    1.304   .     A
C662   O700    1.311   .     A
C663   O706    1.309   .     A
C663   O703    1.306   .     A
C663   C681    1.470   .     S
C664   C682    1.450   .     S
C664   O705    1.306   .     A
C664   O704    1.299   .     A
C665   C707    1.488   .     S
C665   N698    1.386   .     A
C665   C1064   1.430   1_545 S
C666   C711    1.477   .     S
C666   N697    1.380   .     A
C666   C865    1.428   .     S
C667   C715    1.479   .     S
C667   N698    1.374   .     A
C667   C1062   1.428   1_545 S
C668   C719    1.481   .     S
C668   N697    1.373   .     A
C668   C863    1.430   .     S
C669   C686    1.413   .     A
C669   I723    2.142   .     S
C670   C685    1.414   .     A
C670   I724    2.140   .     S
C670   C738    1.392   .     S
C671   C685    1.408   .     A
C671   I725    2.149   .     S
C671   C735    1.393   .     S
C672   I726    2.148   .     S
C672   C686    1.405   .     A
C673   C677    1.391   .     A
C673   C683    1.401   .     A
C673   H689    1.083   .     S
C674   H690    1.083   .     S
C674   C684    1.403   .     A
C674   C678    1.391   .     A
C675   H691    1.083   .     S
C675   C679    1.391   .     A
C675   C684    1.402   .     A
C676   H692    1.083   .     S
C676   C680    1.390   .     A
C676   C683    1.400   .     A
C677   H693    1.081   .     S
C677   C681    1.405   .     A
C678   C682    1.399   .     A
C678   H694    1.084   .     S
C679   C682    1.398   .     A
C679   H695    1.081   .     S
C680   H696    1.076   .     S
C680   C681    1.402   .     A
C684   C89     1.464   1_556 S
Cu687  O701    1.970   .     S
Cu687  O705    1.952   .     S
Cu687  N697    2.041   .     S
Cu687  O699    1.960   .     S
Cu687  Cu688   2.715   .     S
Cu687  O703    1.945   .     S
Cu688  O706    1.952   .     S
Cu688  O702    1.970   .     S
Cu688  O700    1.960   .     S
Cu688  N698    2.041   .     S
Cu688  O704    1.945   .     S
C707   O708    1.218   .     D
C707   O709    1.398   .     S
O709   H710    1.014   .     S
C711   O712    1.219   .     D
C711   O713    1.398   .     S
O713   H714    1.012   .     S
C715   O716    1.222   .     D
C715   O717    1.398   .     S
O717   H718    1.014   .     S
C719   O720    1.221   .     D
C719   O721    1.395   .     S
O721   H722    1.014   .     S
C727   C752    1.469   .     S
C727   O765    1.312   .     A
C727   O768    1.303   .     A
C728   C751    1.469   .     S
C728   O767    1.304   .     A
C728   O766    1.311   .     A
C729   O772    1.309   .     A
C729   O769    1.306   .     A
C729   C747    1.470   .     S
C730   C748    1.450   .     S
C730   O771    1.306   .     A
C730   O770    1.299   .     A
C731   C773    1.488   .     S
C731   N764    1.386   .     A
C731   C1130   1.430   1_545 S
C732   C777    1.477   .     S
C732   N763    1.380   .     A
C732   C931    1.428   .     S
C733   C781    1.479   .     S
C733   N764    1.374   .     A
C733   C1128   1.428   1_545 S
C734   C785    1.481   .     S
C734   N763    1.373   .     A
C734   C929    1.430   .     S
C735   C752    1.413   .     A
C735   I789    2.142   .     S
C736   C751    1.414   .     A
C736   I790    2.140   .     S
C736   C606    1.392   1_655 S
C737   C751    1.408   .     A
C737   I791    2.149   .     S
C737   C603    1.393   1_655 S
C738   I792    2.148   .     S
C738   C752    1.405   .     A
C739   C743    1.391   .     A
C739   C749    1.401   .     A
C739   H755    1.083   .     S
C740   H756    1.083   .     S
C740   C750    1.403   .     A
C740   C744    1.391   .     A
C741   H757    1.083   .     S
C741   C745    1.391   .     A
C741   C750    1.402   .     A
C742   H758    1.083   .     S
C742   C746    1.390   .     A
C742   C749    1.400   .     A
C743   H759    1.081   .     S
C743   C747    1.405   .     A
C744   C748    1.399   .     A
C744   H760    1.084   .     S
C745   C748    1.398   .     A
C745   H761    1.081   .     S
C746   H762    1.076   .     S
C746   C747    1.402   .     A
C750   C155    1.464   1_556 S
Cu753  O767    1.970   .     S
Cu753  O771    1.952   .     S
Cu753  N763    2.041   .     S
Cu753  O765    1.960   .     S
Cu753  Cu754   2.715   .     S
Cu753  O769    1.945   .     S
Cu754  O772    1.952   .     S
Cu754  O768    1.970   .     S
Cu754  O766    1.960   .     S
Cu754  N764    2.041   .     S
Cu754  O770    1.945   .     S
C773   O774    1.218   .     D
C773   O775    1.398   .     S
O775   H776    1.014   .     S
C777   O778    1.219   .     D
C777   O779    1.398   .     S
O779   H780    1.012   .     S
C781   O782    1.222   .     D
C781   O783    1.398   .     S
O783   H784    1.014   .     S
C785   O786    1.221   .     D
C785   O787    1.395   .     S
O787   H788    1.014   .     S
C793   C818    1.469   .     S
C793   O831    1.312   .     A
C793   O834    1.303   .     A
C794   C817    1.469   .     S
C794   O833    1.304   .     A
C794   O832    1.311   .     A
C795   O838    1.309   .     A
C795   O835    1.306   .     A
C795   C813    1.470   .     S
C796   C814    1.450   .     S
C796   O837    1.306   .     A
C796   O836    1.299   .     A
C797   C839    1.488   .     S
C797   N830    1.386   .     A
C798   C843    1.477   .     S
C798   N829    1.380   .     A
C798   C997    1.428   .     S
C799   C847    1.479   .     S
C799   N830    1.374   .     A
C800   C851    1.481   .     S
C800   N829    1.373   .     A
C800   C995    1.430   .     S
C801   C818    1.413   .     A
C801   I855    2.142   .     S
C801   C935    1.393   1_455 S
C802   C817    1.414   .     A
C802   I856    2.140   .     S
C802   C870    1.392   .     S
C803   C817    1.408   .     A
C803   I857    2.149   .     S
C803   C867    1.393   .     S
C804   I858    2.148   .     S
C804   C818    1.405   .     A
C804   C934    1.392   1_455 S
C805   C809    1.391   .     A
C805   C815    1.401   .     A
C805   H821    1.083   .     S
C806   H822    1.083   .     S
C806   C816    1.403   .     A
C806   C810    1.391   .     A
C807   H823    1.083   .     S
C807   C811    1.391   .     A
C807   C816    1.402   .     A
C808   H824    1.083   .     S
C808   C812    1.390   .     A
C808   C815    1.400   .     A
C809   H825    1.081   .     S
C809   C813    1.405   .     A
C810   C814    1.399   .     A
C810   H826    1.084   .     S
C811   C814    1.398   .     A
C811   H827    1.081   .     S
C812   H828    1.076   .     S
C812   C813    1.402   .     A
C816   C221    1.464   1_556 S
Cu819  O833    1.970   .     S
Cu819  O837    1.952   .     S
Cu819  N829    2.041   .     S
Cu819  O831    1.960   .     S
Cu819  Cu820   2.715   .     S
Cu819  O835    1.945   .     S
Cu820  O838    1.952   .     S
Cu820  O834    1.970   .     S
Cu820  O832    1.960   .     S
Cu820  N830    2.041   .     S
Cu820  O836    1.945   .     S
C839   O840    1.218   .     D
C839   O841    1.398   .     S
O841   H842    1.014   .     S
C843   O844    1.219   .     D
C843   O845    1.398   .     S
O845   H846    1.012   .     S
C847   O848    1.222   .     D
C847   O849    1.398   .     S
O849   H850    1.014   .     S
C851   O852    1.221   .     D
C851   O853    1.395   .     S
O853   H854    1.014   .     S
C859   C884    1.469   .     S
C859   O897    1.312   .     A
C859   O900    1.303   .     A
C860   C883    1.469   .     S
C860   O899    1.304   .     A
C860   O898    1.311   .     A
C861   O904    1.309   .     A
C861   O901    1.306   .     A
C861   C879    1.470   .     S
C862   C880    1.450   .     S
C862   O903    1.306   .     A
C862   O902    1.299   .     A
C863   C905    1.488   .     S
C863   N896    1.386   .     A
C864   C909    1.477   .     S
C864   N895    1.380   .     A
C864   C1063   1.428   .     S
C865   C913    1.479   .     S
C865   N896    1.374   .     A
C866   C917    1.481   .     S
C866   N895    1.373   .     A
C866   C1061   1.430   .     S
C867   C884    1.413   .     A
C867   I921    2.142   .     S
C868   C883    1.414   .     A
C868   I922    2.140   .     S
C868   C936    1.392   .     S
C869   C883    1.408   .     A
C869   I923    2.149   .     S
C869   C933    1.393   .     S
C870   I924    2.148   .     S
C870   C884    1.405   .     A
C871   C875    1.391   .     A
C871   C881    1.401   .     A
C871   H887    1.083   .     S
C872   H888    1.083   .     S
C872   C882    1.403   .     A
C872   C876    1.391   .     A
C873   H889    1.083   .     S
C873   C877    1.391   .     A
C873   C882    1.402   .     A
C874   H890    1.083   .     S
C874   C878    1.390   .     A
C874   C881    1.400   .     A
C875   H891    1.081   .     S
C875   C879    1.405   .     A
C876   C880    1.399   .     A
C876   H892    1.084   .     S
C877   C880    1.398   .     A
C877   H893    1.081   .     S
C878   H894    1.076   .     S
C878   C879    1.402   .     A
C882   C287    1.464   1_556 S
Cu885  O899    1.970   .     S
Cu885  O903    1.952   .     S
Cu885  N895    2.041   .     S
Cu885  O897    1.960   .     S
Cu885  Cu886   2.715   .     S
Cu885  O901    1.945   .     S
Cu886  O904    1.952   .     S
Cu886  O900    1.970   .     S
Cu886  O898    1.960   .     S
Cu886  N896    2.041   .     S
Cu886  O902    1.945   .     S
C905   O906    1.218   .     D
C905   O907    1.398   .     S
O907   H908    1.014   .     S
C909   O910    1.219   .     D
C909   O911    1.398   .     S
O911   H912    1.012   .     S
C913   O914    1.222   .     D
C913   O915    1.398   .     S
O915   H916    1.014   .     S
C917   O918    1.221   .     D
C917   O919    1.395   .     S
O919   H920    1.014   .     S
C925   C950    1.469   .     S
C925   O963    1.312   .     A
C925   O966    1.303   .     A
C926   C949    1.469   .     S
C926   O965    1.304   .     A
C926   O964    1.311   .     A
C927   O970    1.309   .     A
C927   O967    1.306   .     A
C927   C945    1.470   .     S
C928   C946    1.450   .     S
C928   O969    1.306   .     A
C928   O968    1.299   .     A
C929   C971    1.488   .     S
C929   N962    1.386   .     A
C930   C975    1.477   .     S
C930   N961    1.380   .     A
C930   C1129   1.428   .     S
C931   C979    1.479   .     S
C931   N962    1.374   .     A
C932   C983    1.481   .     S
C932   N961    1.373   .     A
C932   C1127   1.430   .     S
C933   C950    1.413   .     A
C933   I987    2.142   .     S
C934   C949    1.414   .     A
C934   I988    2.140   .     S
C934   C804    1.392   1_655 S
C935   C949    1.408   .     A
C935   I989    2.149   .     S
C935   C801    1.393   1_655 S
C936   I990    2.148   .     S
C936   C950    1.405   .     A
C937   C941    1.391   .     A
C937   C947    1.401   .     A
C937   H953    1.083   .     S
C938   H954    1.083   .     S
C938   C948    1.403   .     A
C938   C942    1.391   .     A
C939   H955    1.083   .     S
C939   C943    1.391   .     A
C939   C948    1.402   .     A
C940   H956    1.083   .     S
C940   C944    1.390   .     A
C940   C947    1.400   .     A
C941   H957    1.081   .     S
C941   C945    1.405   .     A
C942   C946    1.399   .     A
C942   H958    1.084   .     S
C943   C946    1.398   .     A
C943   H959    1.081   .     S
C944   H960    1.076   .     S
C944   C945    1.402   .     A
C948   C353    1.464   1_556 S
Cu951  O965    1.970   .     S
Cu951  O969    1.952   .     S
Cu951  N961    2.041   .     S
Cu951  O963    1.960   .     S
Cu951  Cu952   2.715   .     S
Cu951  O967    1.945   .     S
Cu952  O970    1.952   .     S
Cu952  O966    1.970   .     S
Cu952  O964    1.960   .     S
Cu952  N962    2.041   .     S
Cu952  O968    1.945   .     S
C971   O972    1.218   .     D
C971   O973    1.398   .     S
O973   H974    1.014   .     S
C975   O976    1.219   .     D
C975   O977    1.398   .     S
O977   H978    1.012   .     S
C979   O980    1.222   .     D
C979   O981    1.398   .     S
O981   H982    1.014   .     S
C983   O984    1.221   .     D
C983   O985    1.395   .     S
O985   H986    1.014   .     S
C991   C1016   1.469   .     S
C991   O1029   1.312   .     A
C991   O1032   1.303   .     A
C992   C1015   1.469   .     S
C992   O1031   1.304   .     A
C992   O1030   1.311   .     A
C993   O1036   1.309   .     A
C993   O1033   1.306   .     A
C993   C1011   1.470   .     S
C994   C1012   1.450   .     S
C994   O1035   1.306   .     A
C994   O1034   1.299   .     A
C995   C1037   1.488   .     S
C995   N1028   1.386   .     A
C996   C1041   1.477   .     S
C996   N1027   1.380   .     A
C996   C601    1.428   1_565 S
C997   C1045   1.479   .     S
C997   N1028   1.374   .     A
C998   C1049   1.481   .     S
C998   N1027   1.373   .     A
C998   C599    1.430   1_565 S
C999   C1016   1.413   .     A
C999   I1053   2.142   .     S
C999   C1133   1.393   1_455 S
C1000  C1015   1.414   .     A
C1000  I1054   2.140   .     S
C1000  C1068   1.392   .     S
C1001  C1015   1.408   .     A
C1001  I1055   2.149   .     S
C1001  C1065   1.393   .     S
C1002  I1056   2.148   .     S
C1002  C1016   1.405   .     A
C1002  C1132   1.392   1_455 S
C1003  C1007   1.391   .     A
C1003  C1013   1.401   .     A
C1003  H1019   1.083   .     S
C1004  H1020   1.083   .     S
C1004  C1014   1.403   .     A
C1004  C1008   1.391   .     A
C1005  H1021   1.083   .     S
C1005  C1009   1.391   .     A
C1005  C1014   1.402   .     A
C1006  H1022   1.083   .     S
C1006  C1010   1.390   .     A
C1006  C1013   1.400   .     A
C1007  H1023   1.081   .     S
C1007  C1011   1.405   .     A
C1008  C1012   1.399   .     A
C1008  H1024   1.084   .     S
C1009  C1012   1.398   .     A
C1009  H1025   1.081   .     S
C1010  H1026   1.076   .     S
C1010  C1011   1.402   .     A
C1014  C419    1.464   1_556 S
Cu1017 O1031   1.970   .     S
Cu1017 O1035   1.952   .     S
Cu1017 N1027   2.041   .     S
Cu1017 O1029   1.960   .     S
Cu1017 Cu1018  2.715   .     S
Cu1017 O1033   1.945   .     S
Cu1018 O1036   1.952   .     S
Cu1018 O1032   1.970   .     S
Cu1018 O1030   1.960   .     S
Cu1018 N1028   2.041   .     S
Cu1018 O1034   1.945   .     S
C1037  O1038   1.218   .     D
C1037  O1039   1.398   .     S
O1039  H1040   1.014   .     S
C1041  O1042   1.219   .     D
C1041  O1043   1.398   .     S
O1043  H1044   1.012   .     S
C1045  O1046   1.222   .     D
C1045  O1047   1.398   .     S
O1047  H1048   1.014   .     S
C1049  O1050   1.221   .     D
C1049  O1051   1.395   .     S
O1051  H1052   1.014   .     S
C1057  C1082   1.469   .     S
C1057  O1095   1.312   .     A
C1057  O1098   1.303   .     A
C1058  C1081   1.469   .     S
C1058  O1097   1.304   .     A
C1058  O1096   1.311   .     A
C1059  O1102   1.309   .     A
C1059  O1099   1.306   .     A
C1059  C1077   1.470   .     S
C1060  C1078   1.450   .     S
C1060  O1101   1.306   .     A
C1060  O1100   1.299   .     A
C1061  C1103   1.488   .     S
C1061  N1094   1.386   .     A
C1062  C1107   1.477   .     S
C1062  N1093   1.380   .     A
C1062  C667    1.428   1_565 S
C1063  C1111   1.479   .     S
C1063  N1094   1.374   .     A
C1064  C1115   1.481   .     S
C1064  N1093   1.373   .     A
C1064  C665    1.430   1_565 S
C1065  C1082   1.413   .     A
C1065  I1119   2.142   .     S
C1066  C1081   1.414   .     A
C1066  I1120   2.140   .     S
C1066  C1134   1.392   .     S
C1067  C1081   1.408   .     A
C1067  I1121   2.149   .     S
C1067  C1131   1.393   .     S
C1068  I1122   2.148   .     S
C1068  C1082   1.405   .     A
C1069  C1073   1.391   .     A
C1069  C1079   1.401   .     A
C1069  H1085   1.083   .     S
C1070  H1086   1.083   .     S
C1070  C1080   1.403   .     A
C1070  C1074   1.391   .     A
C1071  H1087   1.083   .     S
C1071  C1075   1.391   .     A
C1071  C1080   1.402   .     A
C1072  H1088   1.083   .     S
C1072  C1076   1.390   .     A
C1072  C1079   1.400   .     A
C1073  H1089   1.081   .     S
C1073  C1077   1.405   .     A
C1074  C1078   1.399   .     A
C1074  H1090   1.084   .     S
C1075  C1078   1.398   .     A
C1075  H1091   1.081   .     S
C1076  H1092   1.076   .     S
C1076  C1077   1.402   .     A
C1080  C485    1.464   1_556 S
Cu1083 O1097   1.970   .     S
Cu1083 O1101   1.952   .     S
Cu1083 N1093   2.041   .     S
Cu1083 O1095   1.960   .     S
Cu1083 Cu1084  2.715   .     S
Cu1083 O1099   1.945   .     S
Cu1084 O1102   1.952   .     S
Cu1084 O1098   1.970   .     S
Cu1084 O1096   1.960   .     S
Cu1084 N1094   2.041   .     S
Cu1084 O1100   1.945   .     S
C1103  O1104   1.218   .     D
C1103  O1105   1.398   .     S
O1105  H1106   1.014   .     S
C1107  O1108   1.219   .     D
C1107  O1109   1.398   .     S
O1109  H1110   1.012   .     S
C1111  O1112   1.222   .     D
C1111  O1113   1.398   .     S
O1113  H1114   1.014   .     S
C1115  O1116   1.221   .     D
C1115  O1117   1.395   .     S
O1117  H1118   1.014   .     S
C1123  C1148   1.469   .     S
C1123  O1161   1.312   .     A
C1123  O1164   1.303   .     A
C1124  C1147   1.469   .     S
C1124  O1163   1.304   .     A
C1124  O1162   1.311   .     A
C1125  O1168   1.309   .     A
C1125  O1165   1.306   .     A
C1125  C1143   1.470   .     S
C1126  C1144   1.450   .     S
C1126  O1167   1.306   .     A
C1126  O1166   1.299   .     A
C1127  C1169   1.488   .     S
C1127  N1160   1.386   .     A
C1128  C1173   1.477   .     S
C1128  N1159   1.380   .     A
C1128  C733    1.428   1_565 S
C1129  C1177   1.479   .     S
C1129  N1160   1.374   .     A
C1130  C1181   1.481   .     S
C1130  N1159   1.373   .     A
C1130  C731    1.430   1_565 S
C1131  C1148   1.413   .     A
C1131  I1185   2.142   .     S
C1132  C1147   1.414   .     A
C1132  I1186   2.140   .     S
C1132  C1002   1.392   1_655 S
C1133  C1147   1.408   .     A
C1133  I1187   2.149   .     S
C1133  C999    1.393   1_655 S
C1134  I1188   2.148   .     S
C1134  C1148   1.405   .     A
C1135  C1139   1.391   .     A
C1135  C1145   1.401   .     A
C1135  H1151   1.083   .     S
C1136  H1152   1.083   .     S
C1136  C1146   1.403   .     A
C1136  C1140   1.391   .     A
C1137  H1153   1.083   .     S
C1137  C1141   1.391   .     A
C1137  C1146   1.402   .     A
C1138  H1154   1.083   .     S
C1138  C1142   1.390   .     A
C1138  C1145   1.400   .     A
C1139  H1155   1.081   .     S
C1139  C1143   1.405   .     A
C1140  C1144   1.399   .     A
C1140  H1156   1.084   .     S
C1141  C1144   1.398   .     A
C1141  H1157   1.081   .     S
C1142  H1158   1.076   .     S
C1142  C1143   1.402   .     A
C1146  C551    1.464   1_556 S
Cu1149 O1163   1.970   .     S
Cu1149 O1167   1.952   .     S
Cu1149 N1159   2.041   .     S
Cu1149 O1161   1.960   .     S
Cu1149 Cu1150  2.715   .     S
Cu1149 O1165   1.945   .     S
Cu1150 O1168   1.952   .     S
Cu1150 O1164   1.970   .     S
Cu1150 O1162   1.960   .     S
Cu1150 N1160   2.041   .     S
Cu1150 O1166   1.945   .     S
C1169  O1170   1.218   .     D
C1169  O1171   1.398   .     S
O1171  H1172   1.014   .     S
C1173  O1174   1.219   .     D
C1173  O1175   1.398   .     S
O1175  H1176   1.012   .     S
C1177  O1178   1.222   .     D
C1177  O1179   1.398   .     S
O1179  H1180   1.014   .     S
C1181  O1182   1.221   .     D
C1181  O1183   1.395   .     S
O1183  H1184   1.014   .     S
