data_str_m2_o1_o16_pcu_sym.211
_audit_creation_date              2020-01-03
_audit_creation_method            'Materials Studio'
_symmetry_space_group_name_H-M    'P1'
_symmetry_Int_Tables_number       1
_symmetry_cell_setting            triclinic
loop_
_symmetry_equiv_pos_as_xyz
  x,y,z
_cell_length_a                    28.5281
_cell_length_b                    32.4879
_cell_length_c                    26.9879
_cell_angle_alpha                 89.7134
_cell_angle_beta                  72.2670
_cell_angle_gamma                 89.5205
loop_
_atom_site_label
_atom_site_type_symbol
_atom_site_fract_x
_atom_site_fract_y
_atom_site_fract_z
_atom_site_U_iso_or_equiv
_atom_site_adp_type
_atom_site_occupancy
C1     C     0.16634   0.24582   0.25051   0.00000  Uiso   1.00
C2     C     0.14521   0.16498   0.48933   0.00000  Uiso   1.00
C3     C     0.15663   0.15360   0.43621   0.00000  Uiso   1.00
C4     C     0.18125   0.15822   0.01545   0.00000  Uiso   1.00
C5     C     0.22716   0.13983   0.48839   0.00000  Uiso   1.00
C6     C     0.23535   0.12511   0.43803   0.00000  Uiso   1.00
C7     C     0.20002   0.13084   0.41309   0.00000  Uiso   1.00
C8     C     0.17319   0.16908   0.06765   0.00000  Uiso   1.00
C9     C     0.25661   0.14872   0.06331   0.00000  Uiso   1.00
C10    C     0.12439   0.16536   0.40745   0.00000  Uiso   1.00
C11    C     0.19005   0.31101   0.28105   0.00000  Uiso   1.00
C12    C     0.14036   0.16502   0.35011   0.00000  Uiso   1.00
C13    C     0.19150   0.02041   0.28016   0.00000  Uiso   1.00
C14    C     0.16846   0.04248   0.24832   0.00000  Uiso   1.00
C15    C     0.14481   0.02098   0.21711   0.00000  Uiso   1.00
C16    C     0.14268   0.31155   0.22011   0.00000  Uiso   1.00
C17    C     0.16583   0.29018   0.25109   0.00000  Uiso   1.00
C18    C     0.29921   0.19277   0.28154   0.00000  Uiso   1.00
C19    C     0.01549   0.19270   0.28162   0.00000  Uiso   1.00
C20    C     0.03404   0.14044   0.21863   0.00000  Uiso   1.00
C21    C     0.31771   0.14031   0.21885   0.00000  Uiso   1.00
C22    C     0.16710   0.08733   0.24960   0.00000  Uiso   1.00
C23    C     0.19327   0.16671   0.14976   0.00000  Uiso   1.00
C24    C     0.26445   0.13615   0.01201   0.00000  Uiso   1.00
C25    C     0.20921   0.16294   0.09253   0.00000  Uiso   1.00
C26    C     0.07830   0.18259   0.43338   0.00000  Uiso   1.00
C27    C     0.06547   0.19104   0.48610   0.00000  Uiso   1.00
C28    C     0.09867   0.18341   0.01365   0.00000  Uiso   1.00
Cu29   Cu    0.11978   0.16666   0.25000   0.00000  Uiso   1.00
Cu30   Cu    0.21355   0.16667   0.25000   0.00000  Uiso   1.00
H31    H     0.12519   0.29462   0.19608   0.00000  Uiso   1.00
H32    H     0.27304   0.21368   0.30682   0.00000  Uiso   1.00
H33    H     0.02675   0.21353   0.30694   0.00000  Uiso   1.00
H34    H     0.06014   0.11952   0.19339   0.00000  Uiso   1.00
H35    H     0.30634   0.11919   0.19393   0.00000  Uiso   1.00
H36    H     0.30027   0.12396   0.49016   0.00000  Uiso   1.00
H37    H     0.13842   0.18157   0.09063   0.00000  Uiso   1.00
H38    H     0.05284   0.19132   0.41240   0.00000  Uiso   1.00
H39    H     0.08661   0.19262   0.05377   0.00000  Uiso   1.00
H40    H     0.03019   0.20523   0.00534   0.00000  Uiso   1.00
H41    H     0.20736   0.11688   0.37537   0.00000  Uiso   1.00
N42    N     0.04931   0.16666   0.24999   0.00000  Uiso   1.00
N43    N     0.28402   0.16669   0.25000   0.00000  Uiso   1.00
O44    O     0.12708   0.22678   0.25001   0.00000  Uiso   1.00
O45    O     0.20627   0.22679   0.25001   0.00000  Uiso   1.00
O46    O     0.10775   0.16665   0.32549   0.00000  Uiso   1.00
O47    O     0.18694   0.16666   0.32549   0.00000  Uiso   1.00
O48    O     0.12706   0.10654   0.25000   0.00000  Uiso   1.00
O49    O     0.20625   0.10655   0.25000   0.00000  Uiso   1.00
O50    O     0.14640   0.16667   0.17451   0.00000  Uiso   1.00
O51    O     0.22559   0.16668   0.17451   0.00000  Uiso   1.00
C52    C     0.29899   0.14702   0.08405   0.00000  Uiso   1.00
O53    O     0.32428   0.11580   0.07874   0.00000  Uiso   1.00
O54    O     0.31175   0.18198   0.10694   0.00000  Uiso   1.00
H55    H     0.00864   0.17738   0.11857   0.00000  Uiso   1.00
C56    C     0.21657   0.04056   0.31399   0.00000  Uiso   1.00
O57    O     0.19885   0.03828   0.36124   0.00000  Uiso   1.00
O58    O     0.26192   0.05964   0.29192   0.00000  Uiso   1.00
H59    H     0.27610   0.07133   0.31900   0.00000  Uiso   1.00
C60    C     0.12512   0.04172   0.17838   0.00000  Uiso   1.00
O61    O     0.08754   0.02909   0.17095   0.00000  Uiso   1.00
O62    O     0.15061   0.07453   0.14877   0.00000  Uiso   1.00
H63    H     0.13405   0.08546   0.12299   0.00000  Uiso   1.00
F64    F     0.27772   0.10495   0.41265   0.00000  Uiso   1.00
F65    F     0.21178   0.28964   0.31176   0.00000  Uiso   1.00
C66    C     0.49967   0.24582   0.25051   0.00000  Uiso   1.00
C67    C     0.47854   0.16498   0.48933   0.00000  Uiso   1.00
C68    C     0.48996   0.15360   0.43621   0.00000  Uiso   1.00
C69    C     0.51459   0.15822   0.01545   0.00000  Uiso   1.00
C70    C     0.56050   0.13983   0.48839   0.00000  Uiso   1.00
C71    C     0.56868   0.12511   0.43803   0.00000  Uiso   1.00
C72    C     0.53335   0.13084   0.41309   0.00000  Uiso   1.00
C73    C     0.50652   0.16908   0.06765   0.00000  Uiso   1.00
C74    C     0.58994   0.14872   0.06331   0.00000  Uiso   1.00
C75    C     0.45772   0.16536   0.40745   0.00000  Uiso   1.00
C76    C     0.52338   0.31101   0.28105   0.00000  Uiso   1.00
C77    C     0.47369   0.16502   0.35011   0.00000  Uiso   1.00
C78    C     0.52484   0.02041   0.28016   0.00000  Uiso   1.00
C79    C     0.50179   0.04248   0.24832   0.00000  Uiso   1.00
C80    C     0.47815   0.02098   0.21711   0.00000  Uiso   1.00
C81    C     0.47601   0.31155   0.22011   0.00000  Uiso   1.00
C82    C     0.49917   0.29018   0.25109   0.00000  Uiso   1.00
C83    C     0.63254   0.19277   0.28154   0.00000  Uiso   1.00
C84    C     0.34882   0.19270   0.28162   0.00000  Uiso   1.00
C85    C     0.36738   0.14044   0.21863   0.00000  Uiso   1.00
C86    C     0.65104   0.14031   0.21885   0.00000  Uiso   1.00
C87    C     0.50043   0.08733   0.24960   0.00000  Uiso   1.00
C88    C     0.52660   0.16671   0.14976   0.00000  Uiso   1.00
C89    C     0.59778   0.13615   0.01201   0.00000  Uiso   1.00
C90    C     0.54255   0.16294   0.09253   0.00000  Uiso   1.00
C91    C     0.41163   0.18259   0.43338   0.00000  Uiso   1.00
C92    C     0.39880   0.19104   0.48610   0.00000  Uiso   1.00
C93    C     0.43200   0.18341   0.01365   0.00000  Uiso   1.00
Cu94   Cu    0.45311   0.16666   0.25000   0.00000  Uiso   1.00
Cu95   Cu    0.54689   0.16667   0.25000   0.00000  Uiso   1.00
H96    H     0.45852   0.29462   0.19608   0.00000  Uiso   1.00
H97    H     0.60637   0.21368   0.30682   0.00000  Uiso   1.00
H98    H     0.36009   0.21353   0.30694   0.00000  Uiso   1.00
H99    H     0.39347   0.11952   0.19339   0.00000  Uiso   1.00
H100   H     0.63967   0.11919   0.19393   0.00000  Uiso   1.00
H101   H     0.63360   0.12396   0.49016   0.00000  Uiso   1.00
H102   H     0.47175   0.18157   0.09063   0.00000  Uiso   1.00
H103   H     0.38617   0.19132   0.41240   0.00000  Uiso   1.00
H104   H     0.41994   0.19262   0.05377   0.00000  Uiso   1.00
H105   H     0.36352   0.20523   0.00534   0.00000  Uiso   1.00
H106   H     0.54069   0.11688   0.37537   0.00000  Uiso   1.00
N107   N     0.38265   0.16666   0.24999   0.00000  Uiso   1.00
N108   N     0.61735   0.16669   0.25000   0.00000  Uiso   1.00
O109   O     0.46042   0.22678   0.25001   0.00000  Uiso   1.00
O110   O     0.53961   0.22679   0.25001   0.00000  Uiso   1.00
O111   O     0.44108   0.16665   0.32549   0.00000  Uiso   1.00
O112   O     0.52027   0.16666   0.32549   0.00000  Uiso   1.00
O113   O     0.46039   0.10654   0.25000   0.00000  Uiso   1.00
O114   O     0.53958   0.10655   0.25000   0.00000  Uiso   1.00
O115   O     0.47973   0.16667   0.17451   0.00000  Uiso   1.00
O116   O     0.55892   0.16668   0.17451   0.00000  Uiso   1.00
C117   C     0.63233   0.14702   0.08405   0.00000  Uiso   1.00
O118   O     0.65761   0.11580   0.07874   0.00000  Uiso   1.00
O119   O     0.64509   0.18198   0.10694   0.00000  Uiso   1.00
H120   H     0.34197   0.17738   0.11857   0.00000  Uiso   1.00
C121   C     0.54990   0.04056   0.31399   0.00000  Uiso   1.00
O122   O     0.53218   0.03828   0.36124   0.00000  Uiso   1.00
O123   O     0.59526   0.05964   0.29192   0.00000  Uiso   1.00
H124   H     0.60943   0.07133   0.31900   0.00000  Uiso   1.00
C125   C     0.45845   0.04172   0.17838   0.00000  Uiso   1.00
O126   O     0.42088   0.02909   0.17095   0.00000  Uiso   1.00
O127   O     0.48394   0.07453   0.14877   0.00000  Uiso   1.00
H128   H     0.46739   0.08546   0.12299   0.00000  Uiso   1.00
F129   F     0.61106   0.10495   0.41265   0.00000  Uiso   1.00
F130   F     0.54511   0.28964   0.31176   0.00000  Uiso   1.00
C131   C     0.83300   0.24582   0.25051   0.00000  Uiso   1.00
C132   C     0.81187   0.16498   0.48933   0.00000  Uiso   1.00
C133   C     0.82329   0.15360   0.43621   0.00000  Uiso   1.00
C134   C     0.84792   0.15822   0.01545   0.00000  Uiso   1.00
C135   C     0.89383   0.13983   0.48839   0.00000  Uiso   1.00
C136   C     0.90201   0.12511   0.43803   0.00000  Uiso   1.00
C137   C     0.86669   0.13084   0.41309   0.00000  Uiso   1.00
C138   C     0.83986   0.16908   0.06765   0.00000  Uiso   1.00
C139   C     0.92328   0.14872   0.06331   0.00000  Uiso   1.00
C140   C     0.79106   0.16536   0.40745   0.00000  Uiso   1.00
C141   C     0.85671   0.31101   0.28105   0.00000  Uiso   1.00
C142   C     0.80703   0.16502   0.35011   0.00000  Uiso   1.00
C143   C     0.85817   0.02041   0.28016   0.00000  Uiso   1.00
C144   C     0.83512   0.04248   0.24832   0.00000  Uiso   1.00
C145   C     0.81148   0.02098   0.21711   0.00000  Uiso   1.00
C146   C     0.80934   0.31155   0.22011   0.00000  Uiso   1.00
C147   C     0.83250   0.29018   0.25109   0.00000  Uiso   1.00
C148   C     0.96588   0.19277   0.28154   0.00000  Uiso   1.00
C149   C     0.68216   0.19270   0.28162   0.00000  Uiso   1.00
C150   C     0.70071   0.14044   0.21863   0.00000  Uiso   1.00
C151   C     0.98437   0.14031   0.21885   0.00000  Uiso   1.00
C152   C     0.83376   0.08733   0.24960   0.00000  Uiso   1.00
C153   C     0.85993   0.16671   0.14976   0.00000  Uiso   1.00
C154   C     0.93112   0.13615   0.01201   0.00000  Uiso   1.00
C155   C     0.87588   0.16294   0.09253   0.00000  Uiso   1.00
C156   C     0.74497   0.18259   0.43338   0.00000  Uiso   1.00
C157   C     0.73214   0.19104   0.48610   0.00000  Uiso   1.00
C158   C     0.76534   0.18341   0.01365   0.00000  Uiso   1.00
Cu159  Cu    0.78645   0.16666   0.25000   0.00000  Uiso   1.00
Cu160  Cu    0.88022   0.16667   0.25000   0.00000  Uiso   1.00
H161   H     0.79185   0.29462   0.19608   0.00000  Uiso   1.00
H162   H     0.93971   0.21368   0.30682   0.00000  Uiso   1.00
H163   H     0.69342   0.21353   0.30694   0.00000  Uiso   1.00
H164   H     0.72681   0.11952   0.19339   0.00000  Uiso   1.00
H165   H     0.97300   0.11919   0.19393   0.00000  Uiso   1.00
H166   H     0.96693   0.12396   0.49016   0.00000  Uiso   1.00
H167   H     0.80509   0.18157   0.09063   0.00000  Uiso   1.00
H168   H     0.71950   0.19132   0.41240   0.00000  Uiso   1.00
H169   H     0.75327   0.19262   0.05377   0.00000  Uiso   1.00
H170   H     0.69685   0.20523   0.00534   0.00000  Uiso   1.00
H171   H     0.87402   0.11688   0.37537   0.00000  Uiso   1.00
N172   N     0.71598   0.16666   0.24999   0.00000  Uiso   1.00
N173   N     0.95069   0.16669   0.25000   0.00000  Uiso   1.00
O174   O     0.79375   0.22678   0.25001   0.00000  Uiso   1.00
O175   O     0.87294   0.22679   0.25001   0.00000  Uiso   1.00
O176   O     0.77441   0.16665   0.32549   0.00000  Uiso   1.00
O177   O     0.85360   0.16666   0.32549   0.00000  Uiso   1.00
O178   O     0.79373   0.10654   0.25000   0.00000  Uiso   1.00
O179   O     0.87292   0.10655   0.25000   0.00000  Uiso   1.00
O180   O     0.81306   0.16667   0.17451   0.00000  Uiso   1.00
O181   O     0.89225   0.16668   0.17451   0.00000  Uiso   1.00
C182   C     0.96566   0.14702   0.08405   0.00000  Uiso   1.00
O183   O     0.99094   0.11580   0.07874   0.00000  Uiso   1.00
O184   O     0.97842   0.18198   0.10694   0.00000  Uiso   1.00
H185   H     0.67530   0.17738   0.11857   0.00000  Uiso   1.00
C186   C     0.88323   0.04056   0.31399   0.00000  Uiso   1.00
O187   O     0.86551   0.03828   0.36124   0.00000  Uiso   1.00
O188   O     0.92859   0.05964   0.29192   0.00000  Uiso   1.00
H189   H     0.94276   0.07133   0.31900   0.00000  Uiso   1.00
C190   C     0.79179   0.04172   0.17838   0.00000  Uiso   1.00
O191   O     0.75421   0.02909   0.17095   0.00000  Uiso   1.00
O192   O     0.81728   0.07453   0.14877   0.00000  Uiso   1.00
H193   H     0.80072   0.08546   0.12299   0.00000  Uiso   1.00
F194   F     0.94439   0.10495   0.41265   0.00000  Uiso   1.00
F195   F     0.87845   0.28964   0.31176   0.00000  Uiso   1.00
C196   C     0.16634   0.57916   0.25051   0.00000  Uiso   1.00
C197   C     0.14521   0.49831   0.48933   0.00000  Uiso   1.00
C198   C     0.15663   0.48693   0.43621   0.00000  Uiso   1.00
C199   C     0.18125   0.49155   0.01545   0.00000  Uiso   1.00
C200   C     0.22716   0.47317   0.48839   0.00000  Uiso   1.00
C201   C     0.23535   0.45845   0.43803   0.00000  Uiso   1.00
C202   C     0.20002   0.46417   0.41309   0.00000  Uiso   1.00
C203   C     0.17319   0.50241   0.06765   0.00000  Uiso   1.00
C204   C     0.25661   0.48206   0.06331   0.00000  Uiso   1.00
C205   C     0.12439   0.49869   0.40745   0.00000  Uiso   1.00
C206   C     0.19005   0.64434   0.28105   0.00000  Uiso   1.00
C207   C     0.14036   0.49835   0.35011   0.00000  Uiso   1.00
C208   C     0.19150   0.35374   0.28016   0.00000  Uiso   1.00
C209   C     0.16846   0.37581   0.24832   0.00000  Uiso   1.00
C210   C     0.14481   0.35432   0.21711   0.00000  Uiso   1.00
C211   C     0.14268   0.64488   0.22011   0.00000  Uiso   1.00
C212   C     0.16583   0.62351   0.25109   0.00000  Uiso   1.00
C213   C     0.29921   0.52611   0.28154   0.00000  Uiso   1.00
C214   C     0.01549   0.52603   0.28162   0.00000  Uiso   1.00
C215   C     0.03404   0.47378   0.21863   0.00000  Uiso   1.00
C216   C     0.31771   0.47364   0.21885   0.00000  Uiso   1.00
C217   C     0.16710   0.42066   0.24960   0.00000  Uiso   1.00
C218   C     0.19327   0.50004   0.14976   0.00000  Uiso   1.00
C219   C     0.26445   0.46948   0.01201   0.00000  Uiso   1.00
C220   C     0.20921   0.49628   0.09253   0.00000  Uiso   1.00
C221   C     0.07830   0.51592   0.43338   0.00000  Uiso   1.00
C222   C     0.06547   0.52437   0.48610   0.00000  Uiso   1.00
C223   C     0.09867   0.51674   0.01365   0.00000  Uiso   1.00
Cu224  Cu    0.11978   0.49999   0.25000   0.00000  Uiso   1.00
Cu225  Cu    0.21355   0.50001   0.25000   0.00000  Uiso   1.00
H226   H     0.12519   0.62795   0.19608   0.00000  Uiso   1.00
H227   H     0.27304   0.54701   0.30682   0.00000  Uiso   1.00
H228   H     0.02675   0.54686   0.30694   0.00000  Uiso   1.00
H229   H     0.06014   0.45286   0.19339   0.00000  Uiso   1.00
H230   H     0.30634   0.45252   0.19393   0.00000  Uiso   1.00
H231   H     0.30027   0.45729   0.49016   0.00000  Uiso   1.00
H232   H     0.13842   0.51490   0.09063   0.00000  Uiso   1.00
H233   H     0.05284   0.52465   0.41240   0.00000  Uiso   1.00
H234   H     0.08661   0.52595   0.05377   0.00000  Uiso   1.00
H235   H     0.03019   0.53856   0.00534   0.00000  Uiso   1.00
H236   H     0.20736   0.45022   0.37537   0.00000  Uiso   1.00
N237   N     0.04931   0.49999   0.24999   0.00000  Uiso   1.00
N238   N     0.28402   0.50002   0.25000   0.00000  Uiso   1.00
O239   O     0.12708   0.56011   0.25001   0.00000  Uiso   1.00
O240   O     0.20627   0.56012   0.25001   0.00000  Uiso   1.00
O241   O     0.10775   0.49998   0.32549   0.00000  Uiso   1.00
O242   O     0.18694   0.49999   0.32549   0.00000  Uiso   1.00
O243   O     0.12706   0.43988   0.25000   0.00000  Uiso   1.00
O244   O     0.20625   0.43989   0.25000   0.00000  Uiso   1.00
O245   O     0.14640   0.50001   0.17451   0.00000  Uiso   1.00
O246   O     0.22559   0.50002   0.17451   0.00000  Uiso   1.00
C247   C     0.29899   0.48035   0.08405   0.00000  Uiso   1.00
O248   O     0.32428   0.44913   0.07874   0.00000  Uiso   1.00
O249   O     0.31175   0.51531   0.10694   0.00000  Uiso   1.00
H250   H     0.00864   0.51071   0.11857   0.00000  Uiso   1.00
C251   C     0.21657   0.37389   0.31399   0.00000  Uiso   1.00
O252   O     0.19885   0.37161   0.36124   0.00000  Uiso   1.00
O253   O     0.26192   0.39298   0.29192   0.00000  Uiso   1.00
H254   H     0.27610   0.40467   0.31900   0.00000  Uiso   1.00
C255   C     0.12512   0.37505   0.17838   0.00000  Uiso   1.00
O256   O     0.08754   0.36242   0.17095   0.00000  Uiso   1.00
O257   O     0.15061   0.40786   0.14877   0.00000  Uiso   1.00
H258   H     0.13405   0.41879   0.12299   0.00000  Uiso   1.00
F259   F     0.27772   0.43828   0.41265   0.00000  Uiso   1.00
F260   F     0.21178   0.62297   0.31176   0.00000  Uiso   1.00
C261   C     0.49967   0.57916   0.25051   0.00000  Uiso   1.00
C262   C     0.47854   0.49831   0.48933   0.00000  Uiso   1.00
C263   C     0.48996   0.48693   0.43621   0.00000  Uiso   1.00
C264   C     0.51459   0.49155   0.01545   0.00000  Uiso   1.00
C265   C     0.56050   0.47317   0.48839   0.00000  Uiso   1.00
C266   C     0.56868   0.45845   0.43803   0.00000  Uiso   1.00
C267   C     0.53335   0.46417   0.41309   0.00000  Uiso   1.00
C268   C     0.50652   0.50241   0.06765   0.00000  Uiso   1.00
C269   C     0.58994   0.48206   0.06331   0.00000  Uiso   1.00
C270   C     0.45772   0.49869   0.40745   0.00000  Uiso   1.00
C271   C     0.52338   0.64434   0.28105   0.00000  Uiso   1.00
C272   C     0.47369   0.49835   0.35011   0.00000  Uiso   1.00
C273   C     0.52484   0.35374   0.28016   0.00000  Uiso   1.00
C274   C     0.50179   0.37581   0.24832   0.00000  Uiso   1.00
C275   C     0.47815   0.35432   0.21711   0.00000  Uiso   1.00
C276   C     0.47601   0.64488   0.22011   0.00000  Uiso   1.00
C277   C     0.49917   0.62351   0.25109   0.00000  Uiso   1.00
C278   C     0.63254   0.52611   0.28154   0.00000  Uiso   1.00
C279   C     0.34882   0.52603   0.28162   0.00000  Uiso   1.00
C280   C     0.36738   0.47378   0.21863   0.00000  Uiso   1.00
C281   C     0.65104   0.47364   0.21885   0.00000  Uiso   1.00
C282   C     0.50043   0.42066   0.24960   0.00000  Uiso   1.00
C283   C     0.52660   0.50004   0.14976   0.00000  Uiso   1.00
C284   C     0.59778   0.46948   0.01201   0.00000  Uiso   1.00
C285   C     0.54255   0.49628   0.09253   0.00000  Uiso   1.00
C286   C     0.41163   0.51592   0.43338   0.00000  Uiso   1.00
C287   C     0.39880   0.52437   0.48610   0.00000  Uiso   1.00
C288   C     0.43200   0.51674   0.01365   0.00000  Uiso   1.00
Cu289  Cu    0.45311   0.49999   0.25000   0.00000  Uiso   1.00
Cu290  Cu    0.54689   0.50001   0.25000   0.00000  Uiso   1.00
H291   H     0.45852   0.62795   0.19608   0.00000  Uiso   1.00
H292   H     0.60637   0.54701   0.30682   0.00000  Uiso   1.00
H293   H     0.36009   0.54686   0.30694   0.00000  Uiso   1.00
H294   H     0.39347   0.45286   0.19339   0.00000  Uiso   1.00
H295   H     0.63967   0.45252   0.19393   0.00000  Uiso   1.00
H296   H     0.63360   0.45729   0.49016   0.00000  Uiso   1.00
H297   H     0.47175   0.51490   0.09063   0.00000  Uiso   1.00
H298   H     0.38617   0.52465   0.41240   0.00000  Uiso   1.00
H299   H     0.41994   0.52595   0.05377   0.00000  Uiso   1.00
H300   H     0.36352   0.53856   0.00534   0.00000  Uiso   1.00
H301   H     0.54069   0.45022   0.37537   0.00000  Uiso   1.00
N302   N     0.38265   0.49999   0.24999   0.00000  Uiso   1.00
N303   N     0.61735   0.50002   0.25000   0.00000  Uiso   1.00
O304   O     0.46042   0.56011   0.25001   0.00000  Uiso   1.00
O305   O     0.53961   0.56012   0.25001   0.00000  Uiso   1.00
O306   O     0.44108   0.49998   0.32549   0.00000  Uiso   1.00
O307   O     0.52027   0.49999   0.32549   0.00000  Uiso   1.00
O308   O     0.46039   0.43988   0.25000   0.00000  Uiso   1.00
O309   O     0.53958   0.43989   0.25000   0.00000  Uiso   1.00
O310   O     0.47973   0.50001   0.17451   0.00000  Uiso   1.00
O311   O     0.55892   0.50002   0.17451   0.00000  Uiso   1.00
C312   C     0.63233   0.48035   0.08405   0.00000  Uiso   1.00
O313   O     0.65761   0.44913   0.07874   0.00000  Uiso   1.00
O314   O     0.64509   0.51531   0.10694   0.00000  Uiso   1.00
H315   H     0.34197   0.51071   0.11857   0.00000  Uiso   1.00
C316   C     0.54990   0.37389   0.31399   0.00000  Uiso   1.00
O317   O     0.53218   0.37161   0.36124   0.00000  Uiso   1.00
O318   O     0.59526   0.39298   0.29192   0.00000  Uiso   1.00
H319   H     0.60943   0.40467   0.31900   0.00000  Uiso   1.00
C320   C     0.45845   0.37505   0.17838   0.00000  Uiso   1.00
O321   O     0.42088   0.36242   0.17095   0.00000  Uiso   1.00
O322   O     0.48394   0.40786   0.14877   0.00000  Uiso   1.00
H323   H     0.46739   0.41879   0.12299   0.00000  Uiso   1.00
F324   F     0.61106   0.43828   0.41265   0.00000  Uiso   1.00
F325   F     0.54511   0.62297   0.31176   0.00000  Uiso   1.00
C326   C     0.83300   0.57916   0.25051   0.00000  Uiso   1.00
C327   C     0.81187   0.49831   0.48933   0.00000  Uiso   1.00
C328   C     0.82329   0.48693   0.43621   0.00000  Uiso   1.00
C329   C     0.84792   0.49155   0.01545   0.00000  Uiso   1.00
C330   C     0.89383   0.47317   0.48839   0.00000  Uiso   1.00
C331   C     0.90201   0.45845   0.43803   0.00000  Uiso   1.00
C332   C     0.86669   0.46417   0.41309   0.00000  Uiso   1.00
C333   C     0.83986   0.50241   0.06765   0.00000  Uiso   1.00
C334   C     0.92328   0.48206   0.06331   0.00000  Uiso   1.00
C335   C     0.79106   0.49869   0.40745   0.00000  Uiso   1.00
C336   C     0.85671   0.64434   0.28105   0.00000  Uiso   1.00
C337   C     0.80703   0.49835   0.35011   0.00000  Uiso   1.00
C338   C     0.85817   0.35374   0.28016   0.00000  Uiso   1.00
C339   C     0.83512   0.37581   0.24832   0.00000  Uiso   1.00
C340   C     0.81148   0.35432   0.21711   0.00000  Uiso   1.00
C341   C     0.80934   0.64488   0.22011   0.00000  Uiso   1.00
C342   C     0.83250   0.62351   0.25109   0.00000  Uiso   1.00
C343   C     0.96588   0.52611   0.28154   0.00000  Uiso   1.00
C344   C     0.68216   0.52603   0.28162   0.00000  Uiso   1.00
C345   C     0.70071   0.47378   0.21863   0.00000  Uiso   1.00
C346   C     0.98437   0.47364   0.21885   0.00000  Uiso   1.00
C347   C     0.83376   0.42066   0.24960   0.00000  Uiso   1.00
C348   C     0.85993   0.50004   0.14976   0.00000  Uiso   1.00
C349   C     0.93112   0.46948   0.01201   0.00000  Uiso   1.00
C350   C     0.87588   0.49628   0.09253   0.00000  Uiso   1.00
C351   C     0.74497   0.51592   0.43338   0.00000  Uiso   1.00
C352   C     0.73214   0.52437   0.48610   0.00000  Uiso   1.00
C353   C     0.76534   0.51674   0.01365   0.00000  Uiso   1.00
Cu354  Cu    0.78645   0.49999   0.25000   0.00000  Uiso   1.00
Cu355  Cu    0.88022   0.50001   0.25000   0.00000  Uiso   1.00
H356   H     0.79185   0.62795   0.19608   0.00000  Uiso   1.00
H357   H     0.93971   0.54701   0.30682   0.00000  Uiso   1.00
H358   H     0.69342   0.54686   0.30694   0.00000  Uiso   1.00
H359   H     0.72681   0.45286   0.19339   0.00000  Uiso   1.00
H360   H     0.97300   0.45252   0.19393   0.00000  Uiso   1.00
H361   H     0.96693   0.45729   0.49016   0.00000  Uiso   1.00
H362   H     0.80509   0.51490   0.09063   0.00000  Uiso   1.00
H363   H     0.71950   0.52465   0.41240   0.00000  Uiso   1.00
H364   H     0.75327   0.52595   0.05377   0.00000  Uiso   1.00
H365   H     0.69685   0.53856   0.00534   0.00000  Uiso   1.00
H366   H     0.87402   0.45022   0.37537   0.00000  Uiso   1.00
N367   N     0.71598   0.49999   0.24999   0.00000  Uiso   1.00
N368   N     0.95069   0.50002   0.25000   0.00000  Uiso   1.00
O369   O     0.79375   0.56011   0.25001   0.00000  Uiso   1.00
O370   O     0.87294   0.56012   0.25001   0.00000  Uiso   1.00
O371   O     0.77441   0.49998   0.32549   0.00000  Uiso   1.00
O372   O     0.85360   0.49999   0.32549   0.00000  Uiso   1.00
O373   O     0.79373   0.43988   0.25000   0.00000  Uiso   1.00
O374   O     0.87292   0.43989   0.25000   0.00000  Uiso   1.00
O375   O     0.81306   0.50001   0.17451   0.00000  Uiso   1.00
O376   O     0.89225   0.50002   0.17451   0.00000  Uiso   1.00
C377   C     0.96566   0.48035   0.08405   0.00000  Uiso   1.00
O378   O     0.99094   0.44913   0.07874   0.00000  Uiso   1.00
O379   O     0.97842   0.51531   0.10694   0.00000  Uiso   1.00
H380   H     0.67530   0.51071   0.11857   0.00000  Uiso   1.00
C381   C     0.88323   0.37389   0.31399   0.00000  Uiso   1.00
O382   O     0.86551   0.37161   0.36124   0.00000  Uiso   1.00
O383   O     0.92859   0.39298   0.29192   0.00000  Uiso   1.00
H384   H     0.94276   0.40467   0.31900   0.00000  Uiso   1.00
C385   C     0.79179   0.37505   0.17838   0.00000  Uiso   1.00
O386   O     0.75421   0.36242   0.17095   0.00000  Uiso   1.00
O387   O     0.81728   0.40786   0.14877   0.00000  Uiso   1.00
H388   H     0.80072   0.41879   0.12299   0.00000  Uiso   1.00
F389   F     0.94439   0.43828   0.41265   0.00000  Uiso   1.00
F390   F     0.87845   0.62297   0.31176   0.00000  Uiso   1.00
C391   C     0.16634   0.91249   0.25051   0.00000  Uiso   1.00
C392   C     0.14521   0.83164   0.48933   0.00000  Uiso   1.00
C393   C     0.15663   0.82026   0.43621   0.00000  Uiso   1.00
C394   C     0.18125   0.82489   0.01545   0.00000  Uiso   1.00
C395   C     0.22716   0.80650   0.48839   0.00000  Uiso   1.00
C396   C     0.23535   0.79178   0.43803   0.00000  Uiso   1.00
C397   C     0.20002   0.79750   0.41309   0.00000  Uiso   1.00
C398   C     0.17319   0.83575   0.06765   0.00000  Uiso   1.00
C399   C     0.25661   0.81539   0.06331   0.00000  Uiso   1.00
C400   C     0.12439   0.83203   0.40745   0.00000  Uiso   1.00
C401   C     0.19005   0.97767   0.28105   0.00000  Uiso   1.00
C402   C     0.14036   0.83169   0.35011   0.00000  Uiso   1.00
C403   C     0.19150   0.68707   0.28016   0.00000  Uiso   1.00
C404   C     0.16846   0.70914   0.24832   0.00000  Uiso   1.00
C405   C     0.14481   0.68765   0.21711   0.00000  Uiso   1.00
C406   C     0.14268   0.97822   0.22011   0.00000  Uiso   1.00
C407   C     0.16583   0.95685   0.25109   0.00000  Uiso   1.00
C408   C     0.29921   0.85944   0.28154   0.00000  Uiso   1.00
C409   C     0.01549   0.85936   0.28162   0.00000  Uiso   1.00
C410   C     0.03404   0.80711   0.21863   0.00000  Uiso   1.00
C411   C     0.31771   0.80698   0.21885   0.00000  Uiso   1.00
C412   C     0.16710   0.75400   0.24960   0.00000  Uiso   1.00
C413   C     0.19327   0.83337   0.14976   0.00000  Uiso   1.00
C414   C     0.26445   0.80281   0.01201   0.00000  Uiso   1.00
C415   C     0.20921   0.82961   0.09253   0.00000  Uiso   1.00
C416   C     0.07830   0.84926   0.43338   0.00000  Uiso   1.00
C417   C     0.06547   0.85771   0.48610   0.00000  Uiso   1.00
C418   C     0.09867   0.85007   0.01365   0.00000  Uiso   1.00
Cu419  Cu    0.11978   0.83333   0.25000   0.00000  Uiso   1.00
Cu420  Cu    0.21355   0.83334   0.25000   0.00000  Uiso   1.00
H421   H     0.12519   0.96129   0.19608   0.00000  Uiso   1.00
H422   H     0.27304   0.88034   0.30682   0.00000  Uiso   1.00
H423   H     0.02675   0.88019   0.30694   0.00000  Uiso   1.00
H424   H     0.06014   0.78619   0.19339   0.00000  Uiso   1.00
H425   H     0.30634   0.78585   0.19393   0.00000  Uiso   1.00
H426   H     0.30027   0.79063   0.49016   0.00000  Uiso   1.00
H427   H     0.13842   0.84823   0.09063   0.00000  Uiso   1.00
H428   H     0.05284   0.85798   0.41240   0.00000  Uiso   1.00
H429   H     0.08661   0.85929   0.05377   0.00000  Uiso   1.00
H430   H     0.03019   0.87190   0.00534   0.00000  Uiso   1.00
H431   H     0.20736   0.78355   0.37537   0.00000  Uiso   1.00
N432   N     0.04931   0.83332   0.24999   0.00000  Uiso   1.00
N433   N     0.28402   0.83335   0.25000   0.00000  Uiso   1.00
O434   O     0.12708   0.89345   0.25001   0.00000  Uiso   1.00
O435   O     0.20627   0.89346   0.25001   0.00000  Uiso   1.00
O436   O     0.10775   0.83332   0.32549   0.00000  Uiso   1.00
O437   O     0.18694   0.83333   0.32549   0.00000  Uiso   1.00
O438   O     0.12706   0.77321   0.25000   0.00000  Uiso   1.00
O439   O     0.20625   0.77322   0.25000   0.00000  Uiso   1.00
O440   O     0.14640   0.83334   0.17451   0.00000  Uiso   1.00
O441   O     0.22559   0.83335   0.17451   0.00000  Uiso   1.00
C442   C     0.29899   0.81368   0.08405   0.00000  Uiso   1.00
O443   O     0.32428   0.78246   0.07874   0.00000  Uiso   1.00
O444   O     0.31175   0.84865   0.10694   0.00000  Uiso   1.00
H445   H     0.00864   0.84404   0.11857   0.00000  Uiso   1.00
C446   C     0.21657   0.70722   0.31399   0.00000  Uiso   1.00
O447   O     0.19885   0.70495   0.36124   0.00000  Uiso   1.00
O448   O     0.26192   0.72631   0.29192   0.00000  Uiso   1.00
H449   H     0.27610   0.73800   0.31900   0.00000  Uiso   1.00
C450   C     0.12512   0.70838   0.17838   0.00000  Uiso   1.00
O451   O     0.08754   0.69576   0.17095   0.00000  Uiso   1.00
O452   O     0.15061   0.74120   0.14877   0.00000  Uiso   1.00
H453   H     0.13405   0.75213   0.12299   0.00000  Uiso   1.00
F454   F     0.27772   0.77162   0.41265   0.00000  Uiso   1.00
F455   F     0.21178   0.95630   0.31176   0.00000  Uiso   1.00
C456   C     0.49967   0.91249   0.25051   0.00000  Uiso   1.00
C457   C     0.47854   0.83164   0.48933   0.00000  Uiso   1.00
C458   C     0.48996   0.82026   0.43621   0.00000  Uiso   1.00
C459   C     0.51459   0.82489   0.01545   0.00000  Uiso   1.00
C460   C     0.56050   0.80650   0.48839   0.00000  Uiso   1.00
C461   C     0.56868   0.79178   0.43803   0.00000  Uiso   1.00
C462   C     0.53335   0.79750   0.41309   0.00000  Uiso   1.00
C463   C     0.50652   0.83575   0.06765   0.00000  Uiso   1.00
C464   C     0.58994   0.81539   0.06331   0.00000  Uiso   1.00
C465   C     0.45772   0.83203   0.40745   0.00000  Uiso   1.00
C466   C     0.52338   0.97767   0.28105   0.00000  Uiso   1.00
C467   C     0.47369   0.83169   0.35011   0.00000  Uiso   1.00
C468   C     0.52484   0.68707   0.28016   0.00000  Uiso   1.00
C469   C     0.50179   0.70914   0.24832   0.00000  Uiso   1.00
C470   C     0.47815   0.68765   0.21711   0.00000  Uiso   1.00
C471   C     0.47601   0.97822   0.22011   0.00000  Uiso   1.00
C472   C     0.49917   0.95685   0.25109   0.00000  Uiso   1.00
C473   C     0.63254   0.85944   0.28154   0.00000  Uiso   1.00
C474   C     0.34882   0.85936   0.28162   0.00000  Uiso   1.00
C475   C     0.36738   0.80711   0.21863   0.00000  Uiso   1.00
C476   C     0.65104   0.80698   0.21885   0.00000  Uiso   1.00
C477   C     0.50043   0.75400   0.24960   0.00000  Uiso   1.00
C478   C     0.52660   0.83337   0.14976   0.00000  Uiso   1.00
C479   C     0.59778   0.80281   0.01201   0.00000  Uiso   1.00
C480   C     0.54255   0.82961   0.09253   0.00000  Uiso   1.00
C481   C     0.41163   0.84926   0.43338   0.00000  Uiso   1.00
C482   C     0.39880   0.85771   0.48610   0.00000  Uiso   1.00
C483   C     0.43200   0.85007   0.01365   0.00000  Uiso   1.00
Cu484  Cu    0.45311   0.83333   0.25000   0.00000  Uiso   1.00
Cu485  Cu    0.54689   0.83334   0.25000   0.00000  Uiso   1.00
H486   H     0.45852   0.96129   0.19608   0.00000  Uiso   1.00
H487   H     0.60637   0.88034   0.30682   0.00000  Uiso   1.00
H488   H     0.36009   0.88019   0.30694   0.00000  Uiso   1.00
H489   H     0.39347   0.78619   0.19339   0.00000  Uiso   1.00
H490   H     0.63967   0.78585   0.19393   0.00000  Uiso   1.00
H491   H     0.63360   0.79063   0.49016   0.00000  Uiso   1.00
H492   H     0.47175   0.84823   0.09063   0.00000  Uiso   1.00
H493   H     0.38617   0.85798   0.41240   0.00000  Uiso   1.00
H494   H     0.41994   0.85929   0.05377   0.00000  Uiso   1.00
H495   H     0.36352   0.87190   0.00534   0.00000  Uiso   1.00
H496   H     0.54069   0.78355   0.37537   0.00000  Uiso   1.00
N497   N     0.38265   0.83332   0.24999   0.00000  Uiso   1.00
N498   N     0.61735   0.83335   0.25000   0.00000  Uiso   1.00
O499   O     0.46042   0.89345   0.25001   0.00000  Uiso   1.00
O500   O     0.53961   0.89346   0.25001   0.00000  Uiso   1.00
O501   O     0.44108   0.83332   0.32549   0.00000  Uiso   1.00
O502   O     0.52027   0.83333   0.32549   0.00000  Uiso   1.00
O503   O     0.46039   0.77321   0.25000   0.00000  Uiso   1.00
O504   O     0.53958   0.77322   0.25000   0.00000  Uiso   1.00
O505   O     0.47973   0.83334   0.17451   0.00000  Uiso   1.00
O506   O     0.55892   0.83335   0.17451   0.00000  Uiso   1.00
C507   C     0.63233   0.81368   0.08405   0.00000  Uiso   1.00
O508   O     0.65761   0.78246   0.07874   0.00000  Uiso   1.00
O509   O     0.64509   0.84865   0.10694   0.00000  Uiso   1.00
H510   H     0.34197   0.84404   0.11857   0.00000  Uiso   1.00
C511   C     0.54990   0.70722   0.31399   0.00000  Uiso   1.00
O512   O     0.53218   0.70495   0.36124   0.00000  Uiso   1.00
O513   O     0.59526   0.72631   0.29192   0.00000  Uiso   1.00
H514   H     0.60943   0.73800   0.31900   0.00000  Uiso   1.00
C515   C     0.45845   0.70838   0.17838   0.00000  Uiso   1.00
O516   O     0.42088   0.69576   0.17095   0.00000  Uiso   1.00
O517   O     0.48394   0.74120   0.14877   0.00000  Uiso   1.00
H518   H     0.46739   0.75213   0.12299   0.00000  Uiso   1.00
F519   F     0.61106   0.77162   0.41265   0.00000  Uiso   1.00
F520   F     0.54511   0.95630   0.31176   0.00000  Uiso   1.00
C521   C     0.83300   0.91249   0.25051   0.00000  Uiso   1.00
C522   C     0.81187   0.83164   0.48933   0.00000  Uiso   1.00
C523   C     0.82329   0.82026   0.43621   0.00000  Uiso   1.00
C524   C     0.84792   0.82489   0.01545   0.00000  Uiso   1.00
C525   C     0.89383   0.80650   0.48839   0.00000  Uiso   1.00
C526   C     0.90201   0.79178   0.43803   0.00000  Uiso   1.00
C527   C     0.86669   0.79750   0.41309   0.00000  Uiso   1.00
C528   C     0.83986   0.83575   0.06765   0.00000  Uiso   1.00
C529   C     0.92328   0.81539   0.06331   0.00000  Uiso   1.00
C530   C     0.79106   0.83203   0.40745   0.00000  Uiso   1.00
C531   C     0.85671   0.97767   0.28105   0.00000  Uiso   1.00
C532   C     0.80703   0.83169   0.35011   0.00000  Uiso   1.00
C533   C     0.85817   0.68707   0.28016   0.00000  Uiso   1.00
C534   C     0.83512   0.70914   0.24832   0.00000  Uiso   1.00
C535   C     0.81148   0.68765   0.21711   0.00000  Uiso   1.00
C536   C     0.80934   0.97822   0.22011   0.00000  Uiso   1.00
C537   C     0.83250   0.95685   0.25109   0.00000  Uiso   1.00
C538   C     0.96588   0.85944   0.28154   0.00000  Uiso   1.00
C539   C     0.68216   0.85936   0.28162   0.00000  Uiso   1.00
C540   C     0.70071   0.80711   0.21863   0.00000  Uiso   1.00
C541   C     0.98437   0.80698   0.21885   0.00000  Uiso   1.00
C542   C     0.83376   0.75400   0.24960   0.00000  Uiso   1.00
C543   C     0.85993   0.83337   0.14976   0.00000  Uiso   1.00
C544   C     0.93112   0.80281   0.01201   0.00000  Uiso   1.00
C545   C     0.87588   0.82961   0.09253   0.00000  Uiso   1.00
C546   C     0.74497   0.84926   0.43338   0.00000  Uiso   1.00
C547   C     0.73214   0.85771   0.48610   0.00000  Uiso   1.00
C548   C     0.76534   0.85007   0.01365   0.00000  Uiso   1.00
Cu549  Cu    0.78645   0.83333   0.25000   0.00000  Uiso   1.00
Cu550  Cu    0.88022   0.83334   0.25000   0.00000  Uiso   1.00
H551   H     0.79185   0.96129   0.19608   0.00000  Uiso   1.00
H552   H     0.93971   0.88034   0.30682   0.00000  Uiso   1.00
H553   H     0.69342   0.88019   0.30694   0.00000  Uiso   1.00
H554   H     0.72681   0.78619   0.19339   0.00000  Uiso   1.00
H555   H     0.97300   0.78585   0.19393   0.00000  Uiso   1.00
H556   H     0.96693   0.79063   0.49016   0.00000  Uiso   1.00
H557   H     0.80509   0.84823   0.09063   0.00000  Uiso   1.00
H558   H     0.71950   0.85798   0.41240   0.00000  Uiso   1.00
H559   H     0.75327   0.85929   0.05377   0.00000  Uiso   1.00
H560   H     0.69685   0.87190   0.00534   0.00000  Uiso   1.00
H561   H     0.87402   0.78355   0.37537   0.00000  Uiso   1.00
N562   N     0.71598   0.83332   0.24999   0.00000  Uiso   1.00
N563   N     0.95069   0.83335   0.25000   0.00000  Uiso   1.00
O564   O     0.79375   0.89345   0.25001   0.00000  Uiso   1.00
O565   O     0.87294   0.89346   0.25001   0.00000  Uiso   1.00
O566   O     0.77441   0.83332   0.32549   0.00000  Uiso   1.00
O567   O     0.85360   0.83333   0.32549   0.00000  Uiso   1.00
O568   O     0.79373   0.77321   0.25000   0.00000  Uiso   1.00
O569   O     0.87292   0.77322   0.25000   0.00000  Uiso   1.00
O570   O     0.81306   0.83334   0.17451   0.00000  Uiso   1.00
O571   O     0.89225   0.83335   0.17451   0.00000  Uiso   1.00
C572   C     0.96566   0.81368   0.08405   0.00000  Uiso   1.00
O573   O     0.99094   0.78246   0.07874   0.00000  Uiso   1.00
O574   O     0.97842   0.84865   0.10694   0.00000  Uiso   1.00
H575   H     0.67530   0.84404   0.11857   0.00000  Uiso   1.00
C576   C     0.88323   0.70722   0.31399   0.00000  Uiso   1.00
O577   O     0.86551   0.70495   0.36124   0.00000  Uiso   1.00
O578   O     0.92859   0.72631   0.29192   0.00000  Uiso   1.00
H579   H     0.94276   0.73800   0.31900   0.00000  Uiso   1.00
C580   C     0.79179   0.70838   0.17838   0.00000  Uiso   1.00
O581   O     0.75421   0.69576   0.17095   0.00000  Uiso   1.00
O582   O     0.81728   0.74120   0.14877   0.00000  Uiso   1.00
H583   H     0.80072   0.75213   0.12299   0.00000  Uiso   1.00
F584   F     0.94439   0.77162   0.41265   0.00000  Uiso   1.00
F585   F     0.87845   0.95630   0.31176   0.00000  Uiso   1.00
C586   C     0.16634   0.24582   0.75051   0.00000  Uiso   1.00
C587   C     0.14521   0.16498   0.98933   0.00000  Uiso   1.00
C588   C     0.15663   0.15360   0.93621   0.00000  Uiso   1.00
C589   C     0.18125   0.15822   0.51545   0.00000  Uiso   1.00
C590   C     0.22716   0.13983   0.98839   0.00000  Uiso   1.00
C591   C     0.23535   0.12511   0.93803   0.00000  Uiso   1.00
C592   C     0.20002   0.13084   0.91309   0.00000  Uiso   1.00
C593   C     0.17319   0.16908   0.56765   0.00000  Uiso   1.00
C594   C     0.25661   0.14872   0.56331   0.00000  Uiso   1.00
C595   C     0.12439   0.16536   0.90745   0.00000  Uiso   1.00
C596   C     0.19005   0.31101   0.78105   0.00000  Uiso   1.00
C597   C     0.14036   0.16502   0.85011   0.00000  Uiso   1.00
C598   C     0.19150   0.02041   0.78016   0.00000  Uiso   1.00
C599   C     0.16846   0.04248   0.74832   0.00000  Uiso   1.00
C600   C     0.14481   0.02098   0.71711   0.00000  Uiso   1.00
C601   C     0.14268   0.31155   0.72011   0.00000  Uiso   1.00
C602   C     0.16583   0.29018   0.75109   0.00000  Uiso   1.00
C603   C     0.29921   0.19277   0.78154   0.00000  Uiso   1.00
C604   C     0.01549   0.19270   0.78162   0.00000  Uiso   1.00
C605   C     0.03404   0.14044   0.71863   0.00000  Uiso   1.00
C606   C     0.31771   0.14031   0.71885   0.00000  Uiso   1.00
C607   C     0.16710   0.08733   0.74960   0.00000  Uiso   1.00
C608   C     0.19327   0.16671   0.64976   0.00000  Uiso   1.00
C609   C     0.26445   0.13615   0.51201   0.00000  Uiso   1.00
C610   C     0.20921   0.16294   0.59253   0.00000  Uiso   1.00
C611   C     0.07830   0.18259   0.93338   0.00000  Uiso   1.00
C612   C     0.06547   0.19104   0.98610   0.00000  Uiso   1.00
C613   C     0.09867   0.18341   0.51365   0.00000  Uiso   1.00
Cu614  Cu    0.11978   0.16666   0.75000   0.00000  Uiso   1.00
Cu615  Cu    0.21355   0.16667   0.75000   0.00000  Uiso   1.00
H616   H     0.12519   0.29462   0.69608   0.00000  Uiso   1.00
H617   H     0.27304   0.21368   0.80682   0.00000  Uiso   1.00
H618   H     0.02675   0.21353   0.80694   0.00000  Uiso   1.00
H619   H     0.06014   0.11952   0.69339   0.00000  Uiso   1.00
H620   H     0.30634   0.11919   0.69393   0.00000  Uiso   1.00
H621   H     0.30027   0.12396   0.99016   0.00000  Uiso   1.00
H622   H     0.13842   0.18157   0.59063   0.00000  Uiso   1.00
H623   H     0.05284   0.19132   0.91240   0.00000  Uiso   1.00
H624   H     0.08661   0.19262   0.55377   0.00000  Uiso   1.00
H625   H     0.03019   0.20523   0.50534   0.00000  Uiso   1.00
H626   H     0.20736   0.11688   0.87537   0.00000  Uiso   1.00
N627   N     0.04931   0.16666   0.74999   0.00000  Uiso   1.00
N628   N     0.28402   0.16669   0.75000   0.00000  Uiso   1.00
O629   O     0.12708   0.22678   0.75001   0.00000  Uiso   1.00
O630   O     0.20627   0.22679   0.75001   0.00000  Uiso   1.00
O631   O     0.10775   0.16665   0.82549   0.00000  Uiso   1.00
O632   O     0.18694   0.16666   0.82549   0.00000  Uiso   1.00
O633   O     0.12706   0.10654   0.75000   0.00000  Uiso   1.00
O634   O     0.20625   0.10655   0.75000   0.00000  Uiso   1.00
O635   O     0.14640   0.16667   0.67451   0.00000  Uiso   1.00
O636   O     0.22559   0.16668   0.67451   0.00000  Uiso   1.00
C637   C     0.29899   0.14702   0.58405   0.00000  Uiso   1.00
O638   O     0.32428   0.11580   0.57874   0.00000  Uiso   1.00
O639   O     0.31175   0.18198   0.60694   0.00000  Uiso   1.00
H640   H     0.00864   0.17738   0.61857   0.00000  Uiso   1.00
C641   C     0.21657   0.04056   0.81399   0.00000  Uiso   1.00
O642   O     0.19885   0.03828   0.86124   0.00000  Uiso   1.00
O643   O     0.26192   0.05964   0.79192   0.00000  Uiso   1.00
H644   H     0.27610   0.07133   0.81900   0.00000  Uiso   1.00
C645   C     0.12512   0.04172   0.67838   0.00000  Uiso   1.00
O646   O     0.08754   0.02909   0.67095   0.00000  Uiso   1.00
O647   O     0.15061   0.07453   0.64877   0.00000  Uiso   1.00
H648   H     0.13405   0.08546   0.62299   0.00000  Uiso   1.00
F649   F     0.27772   0.10495   0.91265   0.00000  Uiso   1.00
F650   F     0.21178   0.28964   0.81176   0.00000  Uiso   1.00
C651   C     0.49967   0.24582   0.75051   0.00000  Uiso   1.00
C652   C     0.47854   0.16498   0.98933   0.00000  Uiso   1.00
C653   C     0.48996   0.15360   0.93621   0.00000  Uiso   1.00
C654   C     0.51459   0.15822   0.51545   0.00000  Uiso   1.00
C655   C     0.56050   0.13983   0.98839   0.00000  Uiso   1.00
C656   C     0.56868   0.12511   0.93803   0.00000  Uiso   1.00
C657   C     0.53335   0.13084   0.91309   0.00000  Uiso   1.00
C658   C     0.50652   0.16908   0.56765   0.00000  Uiso   1.00
C659   C     0.58994   0.14872   0.56331   0.00000  Uiso   1.00
C660   C     0.45772   0.16536   0.90745   0.00000  Uiso   1.00
C661   C     0.52338   0.31101   0.78105   0.00000  Uiso   1.00
C662   C     0.47369   0.16502   0.85011   0.00000  Uiso   1.00
C663   C     0.52484   0.02041   0.78016   0.00000  Uiso   1.00
C664   C     0.50179   0.04248   0.74832   0.00000  Uiso   1.00
C665   C     0.47815   0.02098   0.71711   0.00000  Uiso   1.00
C666   C     0.47601   0.31155   0.72011   0.00000  Uiso   1.00
C667   C     0.49917   0.29018   0.75109   0.00000  Uiso   1.00
C668   C     0.63254   0.19277   0.78154   0.00000  Uiso   1.00
C669   C     0.34882   0.19270   0.78162   0.00000  Uiso   1.00
C670   C     0.36738   0.14044   0.71863   0.00000  Uiso   1.00
C671   C     0.65104   0.14031   0.71885   0.00000  Uiso   1.00
C672   C     0.50043   0.08733   0.74960   0.00000  Uiso   1.00
C673   C     0.52660   0.16671   0.64976   0.00000  Uiso   1.00
C674   C     0.59778   0.13615   0.51201   0.00000  Uiso   1.00
C675   C     0.54255   0.16294   0.59253   0.00000  Uiso   1.00
C676   C     0.41163   0.18259   0.93338   0.00000  Uiso   1.00
C677   C     0.39880   0.19104   0.98610   0.00000  Uiso   1.00
C678   C     0.43200   0.18341   0.51365   0.00000  Uiso   1.00
Cu679  Cu    0.45311   0.16666   0.75000   0.00000  Uiso   1.00
Cu680  Cu    0.54689   0.16667   0.75000   0.00000  Uiso   1.00
H681   H     0.45852   0.29462   0.69608   0.00000  Uiso   1.00
H682   H     0.60637   0.21368   0.80682   0.00000  Uiso   1.00
H683   H     0.36009   0.21353   0.80694   0.00000  Uiso   1.00
H684   H     0.39347   0.11952   0.69339   0.00000  Uiso   1.00
H685   H     0.63967   0.11919   0.69393   0.00000  Uiso   1.00
H686   H     0.63360   0.12396   0.99016   0.00000  Uiso   1.00
H687   H     0.47175   0.18157   0.59063   0.00000  Uiso   1.00
H688   H     0.38617   0.19132   0.91240   0.00000  Uiso   1.00
H689   H     0.41994   0.19262   0.55377   0.00000  Uiso   1.00
H690   H     0.36352   0.20523   0.50534   0.00000  Uiso   1.00
H691   H     0.54069   0.11688   0.87537   0.00000  Uiso   1.00
N692   N     0.38265   0.16666   0.74999   0.00000  Uiso   1.00
N693   N     0.61735   0.16669   0.75000   0.00000  Uiso   1.00
O694   O     0.46042   0.22678   0.75001   0.00000  Uiso   1.00
O695   O     0.53961   0.22679   0.75001   0.00000  Uiso   1.00
O696   O     0.44108   0.16665   0.82549   0.00000  Uiso   1.00
O697   O     0.52027   0.16666   0.82549   0.00000  Uiso   1.00
O698   O     0.46039   0.10654   0.75000   0.00000  Uiso   1.00
O699   O     0.53958   0.10655   0.75000   0.00000  Uiso   1.00
O700   O     0.47973   0.16667   0.67451   0.00000  Uiso   1.00
O701   O     0.55892   0.16668   0.67451   0.00000  Uiso   1.00
C702   C     0.63233   0.14702   0.58405   0.00000  Uiso   1.00
O703   O     0.65761   0.11580   0.57874   0.00000  Uiso   1.00
O704   O     0.64509   0.18198   0.60694   0.00000  Uiso   1.00
H705   H     0.34197   0.17738   0.61857   0.00000  Uiso   1.00
C706   C     0.54990   0.04056   0.81399   0.00000  Uiso   1.00
O707   O     0.53218   0.03828   0.86124   0.00000  Uiso   1.00
O708   O     0.59526   0.05964   0.79192   0.00000  Uiso   1.00
H709   H     0.60943   0.07133   0.81900   0.00000  Uiso   1.00
C710   C     0.45845   0.04172   0.67838   0.00000  Uiso   1.00
O711   O     0.42088   0.02909   0.67095   0.00000  Uiso   1.00
O712   O     0.48394   0.07453   0.64877   0.00000  Uiso   1.00
H713   H     0.46739   0.08546   0.62299   0.00000  Uiso   1.00
F714   F     0.61106   0.10495   0.91265   0.00000  Uiso   1.00
F715   F     0.54511   0.28964   0.81176   0.00000  Uiso   1.00
C716   C     0.83300   0.24582   0.75051   0.00000  Uiso   1.00
C717   C     0.81187   0.16498   0.98933   0.00000  Uiso   1.00
C718   C     0.82329   0.15360   0.93621   0.00000  Uiso   1.00
C719   C     0.84792   0.15822   0.51545   0.00000  Uiso   1.00
C720   C     0.89383   0.13983   0.98839   0.00000  Uiso   1.00
C721   C     0.90201   0.12511   0.93803   0.00000  Uiso   1.00
C722   C     0.86669   0.13084   0.91309   0.00000  Uiso   1.00
C723   C     0.83986   0.16908   0.56765   0.00000  Uiso   1.00
C724   C     0.92328   0.14872   0.56331   0.00000  Uiso   1.00
C725   C     0.79106   0.16536   0.90745   0.00000  Uiso   1.00
C726   C     0.85671   0.31101   0.78105   0.00000  Uiso   1.00
C727   C     0.80703   0.16502   0.85011   0.00000  Uiso   1.00
C728   C     0.85817   0.02041   0.78016   0.00000  Uiso   1.00
C729   C     0.83512   0.04248   0.74832   0.00000  Uiso   1.00
C730   C     0.81148   0.02098   0.71711   0.00000  Uiso   1.00
C731   C     0.80934   0.31155   0.72011   0.00000  Uiso   1.00
C732   C     0.83250   0.29018   0.75109   0.00000  Uiso   1.00
C733   C     0.96588   0.19277   0.78154   0.00000  Uiso   1.00
C734   C     0.68216   0.19270   0.78162   0.00000  Uiso   1.00
C735   C     0.70071   0.14044   0.71863   0.00000  Uiso   1.00
C736   C     0.98437   0.14031   0.71885   0.00000  Uiso   1.00
C737   C     0.83376   0.08733   0.74960   0.00000  Uiso   1.00
C738   C     0.85993   0.16671   0.64976   0.00000  Uiso   1.00
C739   C     0.93112   0.13615   0.51201   0.00000  Uiso   1.00
C740   C     0.87588   0.16294   0.59253   0.00000  Uiso   1.00
C741   C     0.74497   0.18259   0.93338   0.00000  Uiso   1.00
C742   C     0.73214   0.19104   0.98610   0.00000  Uiso   1.00
C743   C     0.76534   0.18341   0.51365   0.00000  Uiso   1.00
Cu744  Cu    0.78645   0.16666   0.75000   0.00000  Uiso   1.00
Cu745  Cu    0.88022   0.16667   0.75000   0.00000  Uiso   1.00
H746   H     0.79185   0.29462   0.69608   0.00000  Uiso   1.00
H747   H     0.93971   0.21368   0.80682   0.00000  Uiso   1.00
H748   H     0.69342   0.21353   0.80694   0.00000  Uiso   1.00
H749   H     0.72681   0.11952   0.69339   0.00000  Uiso   1.00
H750   H     0.97300   0.11919   0.69393   0.00000  Uiso   1.00
H751   H     0.96693   0.12396   0.99016   0.00000  Uiso   1.00
H752   H     0.80509   0.18157   0.59063   0.00000  Uiso   1.00
H753   H     0.71950   0.19132   0.91240   0.00000  Uiso   1.00
H754   H     0.75327   0.19262   0.55377   0.00000  Uiso   1.00
H755   H     0.69685   0.20523   0.50534   0.00000  Uiso   1.00
H756   H     0.87402   0.11688   0.87537   0.00000  Uiso   1.00
N757   N     0.71598   0.16666   0.74999   0.00000  Uiso   1.00
N758   N     0.95069   0.16669   0.75000   0.00000  Uiso   1.00
O759   O     0.79375   0.22678   0.75001   0.00000  Uiso   1.00
O760   O     0.87294   0.22679   0.75001   0.00000  Uiso   1.00
O761   O     0.77441   0.16665   0.82549   0.00000  Uiso   1.00
O762   O     0.85360   0.16666   0.82549   0.00000  Uiso   1.00
O763   O     0.79373   0.10654   0.75000   0.00000  Uiso   1.00
O764   O     0.87292   0.10655   0.75000   0.00000  Uiso   1.00
O765   O     0.81306   0.16667   0.67451   0.00000  Uiso   1.00
O766   O     0.89225   0.16668   0.67451   0.00000  Uiso   1.00
C767   C     0.96566   0.14702   0.58405   0.00000  Uiso   1.00
O768   O     0.99094   0.11580   0.57874   0.00000  Uiso   1.00
O769   O     0.97842   0.18198   0.60694   0.00000  Uiso   1.00
H770   H     0.67530   0.17738   0.61857   0.00000  Uiso   1.00
C771   C     0.88323   0.04056   0.81399   0.00000  Uiso   1.00
O772   O     0.86551   0.03828   0.86124   0.00000  Uiso   1.00
O773   O     0.92859   0.05964   0.79192   0.00000  Uiso   1.00
H774   H     0.94276   0.07133   0.81900   0.00000  Uiso   1.00
C775   C     0.79179   0.04172   0.67838   0.00000  Uiso   1.00
O776   O     0.75421   0.02909   0.67095   0.00000  Uiso   1.00
O777   O     0.81728   0.07453   0.64877   0.00000  Uiso   1.00
H778   H     0.80072   0.08546   0.62299   0.00000  Uiso   1.00
F779   F     0.94439   0.10495   0.91265   0.00000  Uiso   1.00
F780   F     0.87845   0.28964   0.81176   0.00000  Uiso   1.00
C781   C     0.16634   0.57916   0.75051   0.00000  Uiso   1.00
C782   C     0.14521   0.49831   0.98933   0.00000  Uiso   1.00
C783   C     0.15663   0.48693   0.93621   0.00000  Uiso   1.00
C784   C     0.18125   0.49155   0.51545   0.00000  Uiso   1.00
C785   C     0.22716   0.47317   0.98839   0.00000  Uiso   1.00
C786   C     0.23535   0.45845   0.93803   0.00000  Uiso   1.00
C787   C     0.20002   0.46417   0.91309   0.00000  Uiso   1.00
C788   C     0.17319   0.50241   0.56765   0.00000  Uiso   1.00
C789   C     0.25661   0.48206   0.56331   0.00000  Uiso   1.00
C790   C     0.12439   0.49869   0.90745   0.00000  Uiso   1.00
C791   C     0.19005   0.64434   0.78105   0.00000  Uiso   1.00
C792   C     0.14036   0.49835   0.85011   0.00000  Uiso   1.00
C793   C     0.19150   0.35374   0.78016   0.00000  Uiso   1.00
C794   C     0.16846   0.37581   0.74832   0.00000  Uiso   1.00
C795   C     0.14481   0.35432   0.71711   0.00000  Uiso   1.00
C796   C     0.14268   0.64488   0.72011   0.00000  Uiso   1.00
C797   C     0.16583   0.62351   0.75109   0.00000  Uiso   1.00
C798   C     0.29921   0.52611   0.78154   0.00000  Uiso   1.00
C799   C     0.01549   0.52603   0.78162   0.00000  Uiso   1.00
C800   C     0.03404   0.47378   0.71863   0.00000  Uiso   1.00
C801   C     0.31771   0.47364   0.71885   0.00000  Uiso   1.00
C802   C     0.16710   0.42066   0.74960   0.00000  Uiso   1.00
C803   C     0.19327   0.50004   0.64976   0.00000  Uiso   1.00
C804   C     0.26445   0.46948   0.51201   0.00000  Uiso   1.00
C805   C     0.20921   0.49628   0.59253   0.00000  Uiso   1.00
C806   C     0.07830   0.51592   0.93338   0.00000  Uiso   1.00
C807   C     0.06547   0.52437   0.98610   0.00000  Uiso   1.00
C808   C     0.09867   0.51674   0.51365   0.00000  Uiso   1.00
Cu809  Cu    0.11978   0.49999   0.75000   0.00000  Uiso   1.00
Cu810  Cu    0.21355   0.50001   0.75000   0.00000  Uiso   1.00
H811   H     0.12519   0.62795   0.69608   0.00000  Uiso   1.00
H812   H     0.27304   0.54701   0.80682   0.00000  Uiso   1.00
H813   H     0.02675   0.54686   0.80694   0.00000  Uiso   1.00
H814   H     0.06014   0.45286   0.69339   0.00000  Uiso   1.00
H815   H     0.30634   0.45252   0.69393   0.00000  Uiso   1.00
H816   H     0.30027   0.45729   0.99016   0.00000  Uiso   1.00
H817   H     0.13842   0.51490   0.59063   0.00000  Uiso   1.00
H818   H     0.05284   0.52465   0.91240   0.00000  Uiso   1.00
H819   H     0.08661   0.52595   0.55377   0.00000  Uiso   1.00
H820   H     0.03019   0.53856   0.50534   0.00000  Uiso   1.00
H821   H     0.20736   0.45022   0.87537   0.00000  Uiso   1.00
N822   N     0.04931   0.49999   0.74999   0.00000  Uiso   1.00
N823   N     0.28402   0.50002   0.75000   0.00000  Uiso   1.00
O824   O     0.12708   0.56011   0.75001   0.00000  Uiso   1.00
O825   O     0.20627   0.56012   0.75001   0.00000  Uiso   1.00
O826   O     0.10775   0.49998   0.82549   0.00000  Uiso   1.00
O827   O     0.18694   0.49999   0.82549   0.00000  Uiso   1.00
O828   O     0.12706   0.43988   0.75000   0.00000  Uiso   1.00
O829   O     0.20625   0.43989   0.75000   0.00000  Uiso   1.00
O830   O     0.14640   0.50001   0.67451   0.00000  Uiso   1.00
O831   O     0.22559   0.50002   0.67451   0.00000  Uiso   1.00
C832   C     0.29899   0.48035   0.58405   0.00000  Uiso   1.00
O833   O     0.32428   0.44913   0.57874   0.00000  Uiso   1.00
O834   O     0.31175   0.51531   0.60694   0.00000  Uiso   1.00
H835   H     0.00864   0.51071   0.61857   0.00000  Uiso   1.00
C836   C     0.21657   0.37389   0.81399   0.00000  Uiso   1.00
O837   O     0.19885   0.37161   0.86124   0.00000  Uiso   1.00
O838   O     0.26192   0.39298   0.79192   0.00000  Uiso   1.00
H839   H     0.27610   0.40467   0.81900   0.00000  Uiso   1.00
C840   C     0.12512   0.37505   0.67838   0.00000  Uiso   1.00
O841   O     0.08754   0.36242   0.67095   0.00000  Uiso   1.00
O842   O     0.15061   0.40786   0.64877   0.00000  Uiso   1.00
H843   H     0.13405   0.41879   0.62299   0.00000  Uiso   1.00
F844   F     0.27772   0.43828   0.91265   0.00000  Uiso   1.00
F845   F     0.21178   0.62297   0.81176   0.00000  Uiso   1.00
C846   C     0.49967   0.57916   0.75051   0.00000  Uiso   1.00
C847   C     0.47854   0.49831   0.98933   0.00000  Uiso   1.00
C848   C     0.48996   0.48693   0.93621   0.00000  Uiso   1.00
C849   C     0.51459   0.49155   0.51545   0.00000  Uiso   1.00
C850   C     0.56050   0.47317   0.98839   0.00000  Uiso   1.00
C851   C     0.56868   0.45845   0.93803   0.00000  Uiso   1.00
C852   C     0.53335   0.46417   0.91309   0.00000  Uiso   1.00
C853   C     0.50652   0.50241   0.56765   0.00000  Uiso   1.00
C854   C     0.58994   0.48206   0.56331   0.00000  Uiso   1.00
C855   C     0.45772   0.49869   0.90745   0.00000  Uiso   1.00
C856   C     0.52338   0.64434   0.78105   0.00000  Uiso   1.00
C857   C     0.47369   0.49835   0.85011   0.00000  Uiso   1.00
C858   C     0.52484   0.35374   0.78016   0.00000  Uiso   1.00
C859   C     0.50179   0.37581   0.74832   0.00000  Uiso   1.00
C860   C     0.47815   0.35432   0.71711   0.00000  Uiso   1.00
C861   C     0.47601   0.64488   0.72011   0.00000  Uiso   1.00
C862   C     0.49917   0.62351   0.75109   0.00000  Uiso   1.00
C863   C     0.63254   0.52611   0.78154   0.00000  Uiso   1.00
C864   C     0.34882   0.52603   0.78162   0.00000  Uiso   1.00
C865   C     0.36738   0.47378   0.71863   0.00000  Uiso   1.00
C866   C     0.65104   0.47364   0.71885   0.00000  Uiso   1.00
C867   C     0.50043   0.42066   0.74960   0.00000  Uiso   1.00
C868   C     0.52660   0.50004   0.64976   0.00000  Uiso   1.00
C869   C     0.59778   0.46948   0.51201   0.00000  Uiso   1.00
C870   C     0.54255   0.49628   0.59253   0.00000  Uiso   1.00
C871   C     0.41163   0.51592   0.93338   0.00000  Uiso   1.00
C872   C     0.39880   0.52437   0.98610   0.00000  Uiso   1.00
C873   C     0.43200   0.51674   0.51365   0.00000  Uiso   1.00
Cu874  Cu    0.45311   0.49999   0.75000   0.00000  Uiso   1.00
Cu875  Cu    0.54689   0.50001   0.75000   0.00000  Uiso   1.00
H876   H     0.45852   0.62795   0.69608   0.00000  Uiso   1.00
H877   H     0.60637   0.54701   0.80682   0.00000  Uiso   1.00
H878   H     0.36009   0.54686   0.80694   0.00000  Uiso   1.00
H879   H     0.39347   0.45286   0.69339   0.00000  Uiso   1.00
H880   H     0.63967   0.45252   0.69393   0.00000  Uiso   1.00
H881   H     0.63360   0.45729   0.99016   0.00000  Uiso   1.00
H882   H     0.47175   0.51490   0.59063   0.00000  Uiso   1.00
H883   H     0.38617   0.52465   0.91240   0.00000  Uiso   1.00
H884   H     0.41994   0.52595   0.55377   0.00000  Uiso   1.00
H885   H     0.36352   0.53856   0.50534   0.00000  Uiso   1.00
H886   H     0.54069   0.45022   0.87537   0.00000  Uiso   1.00
N887   N     0.38265   0.49999   0.74999   0.00000  Uiso   1.00
N888   N     0.61735   0.50002   0.75000   0.00000  Uiso   1.00
O889   O     0.46042   0.56011   0.75001   0.00000  Uiso   1.00
O890   O     0.53961   0.56012   0.75001   0.00000  Uiso   1.00
O891   O     0.44108   0.49998   0.82549   0.00000  Uiso   1.00
O892   O     0.52027   0.49999   0.82549   0.00000  Uiso   1.00
O893   O     0.46039   0.43988   0.75000   0.00000  Uiso   1.00
O894   O     0.53958   0.43989   0.75000   0.00000  Uiso   1.00
O895   O     0.47973   0.50001   0.67451   0.00000  Uiso   1.00
O896   O     0.55892   0.50002   0.67451   0.00000  Uiso   1.00
C897   C     0.63233   0.48035   0.58405   0.00000  Uiso   1.00
O898   O     0.65761   0.44913   0.57874   0.00000  Uiso   1.00
O899   O     0.64509   0.51531   0.60694   0.00000  Uiso   1.00
H900   H     0.34197   0.51071   0.61857   0.00000  Uiso   1.00
C901   C     0.54990   0.37389   0.81399   0.00000  Uiso   1.00
O902   O     0.53218   0.37161   0.86124   0.00000  Uiso   1.00
O903   O     0.59526   0.39298   0.79192   0.00000  Uiso   1.00
H904   H     0.60943   0.40467   0.81900   0.00000  Uiso   1.00
C905   C     0.45845   0.37505   0.67838   0.00000  Uiso   1.00
O906   O     0.42088   0.36242   0.67095   0.00000  Uiso   1.00
O907   O     0.48394   0.40786   0.64877   0.00000  Uiso   1.00
H908   H     0.46739   0.41879   0.62299   0.00000  Uiso   1.00
F909   F     0.61106   0.43828   0.91265   0.00000  Uiso   1.00
F910   F     0.54511   0.62297   0.81176   0.00000  Uiso   1.00
C911   C     0.83300   0.57916   0.75051   0.00000  Uiso   1.00
C912   C     0.81187   0.49831   0.98933   0.00000  Uiso   1.00
C913   C     0.82329   0.48693   0.93621   0.00000  Uiso   1.00
C914   C     0.84792   0.49155   0.51545   0.00000  Uiso   1.00
C915   C     0.89383   0.47317   0.98839   0.00000  Uiso   1.00
C916   C     0.90201   0.45845   0.93803   0.00000  Uiso   1.00
C917   C     0.86669   0.46417   0.91309   0.00000  Uiso   1.00
C918   C     0.83986   0.50241   0.56765   0.00000  Uiso   1.00
C919   C     0.92328   0.48206   0.56331   0.00000  Uiso   1.00
C920   C     0.79106   0.49869   0.90745   0.00000  Uiso   1.00
C921   C     0.85671   0.64434   0.78105   0.00000  Uiso   1.00
C922   C     0.80703   0.49835   0.85011   0.00000  Uiso   1.00
C923   C     0.85817   0.35374   0.78016   0.00000  Uiso   1.00
C924   C     0.83512   0.37581   0.74832   0.00000  Uiso   1.00
C925   C     0.81148   0.35432   0.71711   0.00000  Uiso   1.00
C926   C     0.80934   0.64488   0.72011   0.00000  Uiso   1.00
C927   C     0.83250   0.62351   0.75109   0.00000  Uiso   1.00
C928   C     0.96588   0.52611   0.78154   0.00000  Uiso   1.00
C929   C     0.68216   0.52603   0.78162   0.00000  Uiso   1.00
C930   C     0.70071   0.47378   0.71863   0.00000  Uiso   1.00
C931   C     0.98437   0.47364   0.71885   0.00000  Uiso   1.00
C932   C     0.83376   0.42066   0.74960   0.00000  Uiso   1.00
C933   C     0.85993   0.50004   0.64976   0.00000  Uiso   1.00
C934   C     0.93112   0.46948   0.51201   0.00000  Uiso   1.00
C935   C     0.87588   0.49628   0.59253   0.00000  Uiso   1.00
C936   C     0.74497   0.51592   0.93338   0.00000  Uiso   1.00
C937   C     0.73214   0.52437   0.98610   0.00000  Uiso   1.00
C938   C     0.76534   0.51674   0.51365   0.00000  Uiso   1.00
Cu939  Cu    0.78645   0.49999   0.75000   0.00000  Uiso   1.00
Cu940  Cu    0.88022   0.50001   0.75000   0.00000  Uiso   1.00
H941   H     0.79185   0.62795   0.69608   0.00000  Uiso   1.00
H942   H     0.93971   0.54701   0.80682   0.00000  Uiso   1.00
H943   H     0.69342   0.54686   0.80694   0.00000  Uiso   1.00
H944   H     0.72681   0.45286   0.69339   0.00000  Uiso   1.00
H945   H     0.97300   0.45252   0.69393   0.00000  Uiso   1.00
H946   H     0.96693   0.45729   0.99016   0.00000  Uiso   1.00
H947   H     0.80509   0.51490   0.59063   0.00000  Uiso   1.00
H948   H     0.71950   0.52465   0.91240   0.00000  Uiso   1.00
H949   H     0.75327   0.52595   0.55377   0.00000  Uiso   1.00
H950   H     0.69685   0.53856   0.50534   0.00000  Uiso   1.00
H951   H     0.87402   0.45022   0.87537   0.00000  Uiso   1.00
N952   N     0.71598   0.49999   0.74999   0.00000  Uiso   1.00
N953   N     0.95069   0.50002   0.75000   0.00000  Uiso   1.00
O954   O     0.79375   0.56011   0.75001   0.00000  Uiso   1.00
O955   O     0.87294   0.56012   0.75001   0.00000  Uiso   1.00
O956   O     0.77441   0.49998   0.82549   0.00000  Uiso   1.00
O957   O     0.85360   0.49999   0.82549   0.00000  Uiso   1.00
O958   O     0.79373   0.43988   0.75000   0.00000  Uiso   1.00
O959   O     0.87292   0.43989   0.75000   0.00000  Uiso   1.00
O960   O     0.81306   0.50001   0.67451   0.00000  Uiso   1.00
O961   O     0.89225   0.50002   0.67451   0.00000  Uiso   1.00
C962   C     0.96566   0.48035   0.58405   0.00000  Uiso   1.00
O963   O     0.99094   0.44913   0.57874   0.00000  Uiso   1.00
O964   O     0.97842   0.51531   0.60694   0.00000  Uiso   1.00
H965   H     0.67530   0.51071   0.61857   0.00000  Uiso   1.00
C966   C     0.88323   0.37389   0.81399   0.00000  Uiso   1.00
O967   O     0.86551   0.37161   0.86124   0.00000  Uiso   1.00
O968   O     0.92859   0.39298   0.79192   0.00000  Uiso   1.00
H969   H     0.94276   0.40467   0.81900   0.00000  Uiso   1.00
C970   C     0.79179   0.37505   0.67838   0.00000  Uiso   1.00
O971   O     0.75421   0.36242   0.67095   0.00000  Uiso   1.00
O972   O     0.81728   0.40786   0.64877   0.00000  Uiso   1.00
H973   H     0.80072   0.41879   0.62299   0.00000  Uiso   1.00
F974   F     0.94439   0.43828   0.91265   0.00000  Uiso   1.00
F975   F     0.87845   0.62297   0.81176   0.00000  Uiso   1.00
C976   C     0.16634   0.91249   0.75051   0.00000  Uiso   1.00
C977   C     0.14521   0.83164   0.98933   0.00000  Uiso   1.00
C978   C     0.15663   0.82026   0.93621   0.00000  Uiso   1.00
C979   C     0.18125   0.82489   0.51545   0.00000  Uiso   1.00
C980   C     0.22716   0.80650   0.98839   0.00000  Uiso   1.00
C981   C     0.23535   0.79178   0.93803   0.00000  Uiso   1.00
C982   C     0.20002   0.79750   0.91309   0.00000  Uiso   1.00
C983   C     0.17319   0.83575   0.56765   0.00000  Uiso   1.00
C984   C     0.25661   0.81539   0.56331   0.00000  Uiso   1.00
C985   C     0.12439   0.83203   0.90745   0.00000  Uiso   1.00
C986   C     0.19005   0.97767   0.78105   0.00000  Uiso   1.00
C987   C     0.14036   0.83169   0.85011   0.00000  Uiso   1.00
C988   C     0.19150   0.68707   0.78016   0.00000  Uiso   1.00
C989   C     0.16846   0.70914   0.74832   0.00000  Uiso   1.00
C990   C     0.14481   0.68765   0.71711   0.00000  Uiso   1.00
C991   C     0.14268   0.97822   0.72011   0.00000  Uiso   1.00
C992   C     0.16583   0.95685   0.75109   0.00000  Uiso   1.00
C993   C     0.29921   0.85944   0.78154   0.00000  Uiso   1.00
C994   C     0.01549   0.85936   0.78162   0.00000  Uiso   1.00
C995   C     0.03404   0.80711   0.71863   0.00000  Uiso   1.00
C996   C     0.31771   0.80698   0.71885   0.00000  Uiso   1.00
C997   C     0.16710   0.75400   0.74960   0.00000  Uiso   1.00
C998   C     0.19327   0.83337   0.64976   0.00000  Uiso   1.00
C999   C     0.26445   0.80281   0.51201   0.00000  Uiso   1.00
C1000  C     0.20921   0.82961   0.59253   0.00000  Uiso   1.00
C1001  C     0.07830   0.84926   0.93338   0.00000  Uiso   1.00
C1002  C     0.06547   0.85771   0.98610   0.00000  Uiso   1.00
C1003  C     0.09867   0.85007   0.51365   0.00000  Uiso   1.00
Cu1004 Cu    0.11978   0.83333   0.75000   0.00000  Uiso   1.00
Cu1005 Cu    0.21355   0.83334   0.75000   0.00000  Uiso   1.00
H1006  H     0.12519   0.96129   0.69608   0.00000  Uiso   1.00
H1007  H     0.27304   0.88034   0.80682   0.00000  Uiso   1.00
H1008  H     0.02675   0.88019   0.80694   0.00000  Uiso   1.00
H1009  H     0.06014   0.78619   0.69339   0.00000  Uiso   1.00
H1010  H     0.30634   0.78585   0.69393   0.00000  Uiso   1.00
H1011  H     0.30027   0.79063   0.99016   0.00000  Uiso   1.00
H1012  H     0.13842   0.84823   0.59063   0.00000  Uiso   1.00
H1013  H     0.05284   0.85798   0.91240   0.00000  Uiso   1.00
H1014  H     0.08661   0.85929   0.55377   0.00000  Uiso   1.00
H1015  H     0.03019   0.87190   0.50534   0.00000  Uiso   1.00
H1016  H     0.20736   0.78355   0.87537   0.00000  Uiso   1.00
N1017  N     0.04931   0.83332   0.74999   0.00000  Uiso   1.00
N1018  N     0.28402   0.83335   0.75000   0.00000  Uiso   1.00
O1019  O     0.12708   0.89345   0.75001   0.00000  Uiso   1.00
O1020  O     0.20627   0.89346   0.75001   0.00000  Uiso   1.00
O1021  O     0.10775   0.83332   0.82549   0.00000  Uiso   1.00
O1022  O     0.18694   0.83333   0.82549   0.00000  Uiso   1.00
O1023  O     0.12706   0.77321   0.75000   0.00000  Uiso   1.00
O1024  O     0.20625   0.77322   0.75000   0.00000  Uiso   1.00
O1025  O     0.14640   0.83334   0.67451   0.00000  Uiso   1.00
O1026  O     0.22559   0.83335   0.67451   0.00000  Uiso   1.00
C1027  C     0.29899   0.81368   0.58405   0.00000  Uiso   1.00
O1028  O     0.32428   0.78246   0.57874   0.00000  Uiso   1.00
O1029  O     0.31175   0.84865   0.60694   0.00000  Uiso   1.00
H1030  H     0.00864   0.84404   0.61857   0.00000  Uiso   1.00
C1031  C     0.21657   0.70722   0.81399   0.00000  Uiso   1.00
O1032  O     0.19885   0.70495   0.86124   0.00000  Uiso   1.00
O1033  O     0.26192   0.72631   0.79192   0.00000  Uiso   1.00
H1034  H     0.27610   0.73800   0.81900   0.00000  Uiso   1.00
C1035  C     0.12512   0.70838   0.67838   0.00000  Uiso   1.00
O1036  O     0.08754   0.69576   0.67095   0.00000  Uiso   1.00
O1037  O     0.15061   0.74120   0.64877   0.00000  Uiso   1.00
H1038  H     0.13405   0.75213   0.62299   0.00000  Uiso   1.00
F1039  F     0.27772   0.77162   0.91265   0.00000  Uiso   1.00
F1040  F     0.21178   0.95630   0.81176   0.00000  Uiso   1.00
C1041  C     0.49967   0.91249   0.75051   0.00000  Uiso   1.00
C1042  C     0.47854   0.83164   0.98933   0.00000  Uiso   1.00
C1043  C     0.48996   0.82026   0.93621   0.00000  Uiso   1.00
C1044  C     0.51459   0.82489   0.51545   0.00000  Uiso   1.00
C1045  C     0.56050   0.80650   0.98839   0.00000  Uiso   1.00
C1046  C     0.56868   0.79178   0.93803   0.00000  Uiso   1.00
C1047  C     0.53335   0.79750   0.91309   0.00000  Uiso   1.00
C1048  C     0.50652   0.83575   0.56765   0.00000  Uiso   1.00
C1049  C     0.58994   0.81539   0.56331   0.00000  Uiso   1.00
C1050  C     0.45772   0.83203   0.90745   0.00000  Uiso   1.00
C1051  C     0.52338   0.97767   0.78105   0.00000  Uiso   1.00
C1052  C     0.47369   0.83169   0.85011   0.00000  Uiso   1.00
C1053  C     0.52484   0.68707   0.78016   0.00000  Uiso   1.00
C1054  C     0.50179   0.70914   0.74832   0.00000  Uiso   1.00
C1055  C     0.47815   0.68765   0.71711   0.00000  Uiso   1.00
C1056  C     0.47601   0.97822   0.72011   0.00000  Uiso   1.00
C1057  C     0.49917   0.95685   0.75109   0.00000  Uiso   1.00
C1058  C     0.63254   0.85944   0.78154   0.00000  Uiso   1.00
C1059  C     0.34882   0.85936   0.78162   0.00000  Uiso   1.00
C1060  C     0.36738   0.80711   0.71863   0.00000  Uiso   1.00
C1061  C     0.65104   0.80698   0.71885   0.00000  Uiso   1.00
C1062  C     0.50043   0.75400   0.74960   0.00000  Uiso   1.00
C1063  C     0.52660   0.83337   0.64976   0.00000  Uiso   1.00
C1064  C     0.59778   0.80281   0.51201   0.00000  Uiso   1.00
C1065  C     0.54255   0.82961   0.59253   0.00000  Uiso   1.00
C1066  C     0.41163   0.84926   0.93338   0.00000  Uiso   1.00
C1067  C     0.39880   0.85771   0.98610   0.00000  Uiso   1.00
C1068  C     0.43200   0.85007   0.51365   0.00000  Uiso   1.00
Cu1069 Cu    0.45311   0.83333   0.75000   0.00000  Uiso   1.00
Cu1070 Cu    0.54689   0.83334   0.75000   0.00000  Uiso   1.00
H1071  H     0.45852   0.96129   0.69608   0.00000  Uiso   1.00
H1072  H     0.60637   0.88034   0.80682   0.00000  Uiso   1.00
H1073  H     0.36009   0.88019   0.80694   0.00000  Uiso   1.00
H1074  H     0.39347   0.78619   0.69339   0.00000  Uiso   1.00
H1075  H     0.63967   0.78585   0.69393   0.00000  Uiso   1.00
H1076  H     0.63360   0.79063   0.99016   0.00000  Uiso   1.00
H1077  H     0.47175   0.84823   0.59063   0.00000  Uiso   1.00
H1078  H     0.38617   0.85798   0.91240   0.00000  Uiso   1.00
H1079  H     0.41994   0.85929   0.55377   0.00000  Uiso   1.00
H1080  H     0.36352   0.87190   0.50534   0.00000  Uiso   1.00
H1081  H     0.54069   0.78355   0.87537   0.00000  Uiso   1.00
N1082  N     0.38265   0.83332   0.74999   0.00000  Uiso   1.00
N1083  N     0.61735   0.83335   0.75000   0.00000  Uiso   1.00
O1084  O     0.46042   0.89345   0.75001   0.00000  Uiso   1.00
O1085  O     0.53961   0.89346   0.75001   0.00000  Uiso   1.00
O1086  O     0.44108   0.83332   0.82549   0.00000  Uiso   1.00
O1087  O     0.52027   0.83333   0.82549   0.00000  Uiso   1.00
O1088  O     0.46039   0.77321   0.75000   0.00000  Uiso   1.00
O1089  O     0.53958   0.77322   0.75000   0.00000  Uiso   1.00
O1090  O     0.47973   0.83334   0.67451   0.00000  Uiso   1.00
O1091  O     0.55892   0.83335   0.67451   0.00000  Uiso   1.00
C1092  C     0.63233   0.81368   0.58405   0.00000  Uiso   1.00
O1093  O     0.65761   0.78246   0.57874   0.00000  Uiso   1.00
O1094  O     0.64509   0.84865   0.60694   0.00000  Uiso   1.00
H1095  H     0.34197   0.84404   0.61857   0.00000  Uiso   1.00
C1096  C     0.54990   0.70722   0.81399   0.00000  Uiso   1.00
O1097  O     0.53218   0.70495   0.86124   0.00000  Uiso   1.00
O1098  O     0.59526   0.72631   0.79192   0.00000  Uiso   1.00
H1099  H     0.60943   0.73800   0.81900   0.00000  Uiso   1.00
C1100  C     0.45845   0.70838   0.67838   0.00000  Uiso   1.00
O1101  O     0.42088   0.69576   0.67095   0.00000  Uiso   1.00
O1102  O     0.48394   0.74120   0.64877   0.00000  Uiso   1.00
H1103  H     0.46739   0.75213   0.62299   0.00000  Uiso   1.00
F1104  F     0.61106   0.77162   0.91265   0.00000  Uiso   1.00
F1105  F     0.54511   0.95630   0.81176   0.00000  Uiso   1.00
C1106  C     0.83300   0.91249   0.75051   0.00000  Uiso   1.00
C1107  C     0.81187   0.83164   0.98933   0.00000  Uiso   1.00
C1108  C     0.82329   0.82026   0.93621   0.00000  Uiso   1.00
C1109  C     0.84792   0.82489   0.51545   0.00000  Uiso   1.00
C1110  C     0.89383   0.80650   0.98839   0.00000  Uiso   1.00
C1111  C     0.90201   0.79178   0.93803   0.00000  Uiso   1.00
C1112  C     0.86669   0.79750   0.91309   0.00000  Uiso   1.00
C1113  C     0.83986   0.83575   0.56765   0.00000  Uiso   1.00
C1114  C     0.92328   0.81539   0.56331   0.00000  Uiso   1.00
C1115  C     0.79106   0.83203   0.90745   0.00000  Uiso   1.00
C1116  C     0.85671   0.97767   0.78105   0.00000  Uiso   1.00
C1117  C     0.80703   0.83169   0.85011   0.00000  Uiso   1.00
C1118  C     0.85817   0.68707   0.78016   0.00000  Uiso   1.00
C1119  C     0.83512   0.70914   0.74832   0.00000  Uiso   1.00
C1120  C     0.81148   0.68765   0.71711   0.00000  Uiso   1.00
C1121  C     0.80934   0.97822   0.72011   0.00000  Uiso   1.00
C1122  C     0.83250   0.95685   0.75109   0.00000  Uiso   1.00
C1123  C     0.96588   0.85944   0.78154   0.00000  Uiso   1.00
C1124  C     0.68216   0.85936   0.78162   0.00000  Uiso   1.00
C1125  C     0.70071   0.80711   0.71863   0.00000  Uiso   1.00
C1126  C     0.98437   0.80698   0.71885   0.00000  Uiso   1.00
C1127  C     0.83376   0.75400   0.74960   0.00000  Uiso   1.00
C1128  C     0.85993   0.83337   0.64976   0.00000  Uiso   1.00
C1129  C     0.93112   0.80281   0.51201   0.00000  Uiso   1.00
C1130  C     0.87588   0.82961   0.59253   0.00000  Uiso   1.00
C1131  C     0.74497   0.84926   0.93338   0.00000  Uiso   1.00
C1132  C     0.73214   0.85771   0.98610   0.00000  Uiso   1.00
C1133  C     0.76534   0.85007   0.51365   0.00000  Uiso   1.00
Cu1134 Cu    0.78645   0.83333   0.75000   0.00000  Uiso   1.00
Cu1135 Cu    0.88022   0.83334   0.75000   0.00000  Uiso   1.00
H1136  H     0.79185   0.96129   0.69608   0.00000  Uiso   1.00
H1137  H     0.93971   0.88034   0.80682   0.00000  Uiso   1.00
H1138  H     0.69342   0.88019   0.80694   0.00000  Uiso   1.00
H1139  H     0.72681   0.78619   0.69339   0.00000  Uiso   1.00
H1140  H     0.97300   0.78585   0.69393   0.00000  Uiso   1.00
H1141  H     0.96693   0.79063   0.99016   0.00000  Uiso   1.00
H1142  H     0.80509   0.84823   0.59063   0.00000  Uiso   1.00
H1143  H     0.71950   0.85798   0.91240   0.00000  Uiso   1.00
H1144  H     0.75327   0.85929   0.55377   0.00000  Uiso   1.00
H1145  H     0.69685   0.87190   0.50534   0.00000  Uiso   1.00
H1146  H     0.87402   0.78355   0.87537   0.00000  Uiso   1.00
N1147  N     0.71598   0.83332   0.74999   0.00000  Uiso   1.00
N1148  N     0.95069   0.83335   0.75000   0.00000  Uiso   1.00
O1149  O     0.79375   0.89345   0.75001   0.00000  Uiso   1.00
O1150  O     0.87294   0.89346   0.75001   0.00000  Uiso   1.00
O1151  O     0.77441   0.83332   0.82549   0.00000  Uiso   1.00
O1152  O     0.85360   0.83333   0.82549   0.00000  Uiso   1.00
O1153  O     0.79373   0.77321   0.75000   0.00000  Uiso   1.00
O1154  O     0.87292   0.77322   0.75000   0.00000  Uiso   1.00
O1155  O     0.81306   0.83334   0.67451   0.00000  Uiso   1.00
O1156  O     0.89225   0.83335   0.67451   0.00000  Uiso   1.00
C1157  C     0.96566   0.81368   0.58405   0.00000  Uiso   1.00
O1158  O     0.99094   0.78246   0.57874   0.00000  Uiso   1.00
O1159  O     0.97842   0.84865   0.60694   0.00000  Uiso   1.00
H1160  H     0.67530   0.84404   0.61857   0.00000  Uiso   1.00
C1161  C     0.88323   0.70722   0.81399   0.00000  Uiso   1.00
O1162  O     0.86551   0.70495   0.86124   0.00000  Uiso   1.00
O1163  O     0.92859   0.72631   0.79192   0.00000  Uiso   1.00
H1164  H     0.94276   0.73800   0.81900   0.00000  Uiso   1.00
C1165  C     0.79179   0.70838   0.67838   0.00000  Uiso   1.00
O1166  O     0.75421   0.69576   0.67095   0.00000  Uiso   1.00
O1167  O     0.81728   0.74120   0.64877   0.00000  Uiso   1.00
H1168  H     0.80072   0.75213   0.62299   0.00000  Uiso   1.00
F1169  F     0.94439   0.77162   0.91265   0.00000  Uiso   1.00
F1170  F     0.87845   0.95630   0.81176   0.00000  Uiso   1.00
loop_
_geom_bond_atom_site_label_1
_geom_bond_atom_site_label_2
_geom_bond_distance
_geom_bond_site_symmetry_2
_ccdc_geom_bond_type
C1     O44     1.288   .     A
C1     O45     1.288   .     A
C1     C17     1.441   .     S
C2     C3      1.420   .     A
C2     C589    1.428   .     S
C2     C613    1.418   .     S
C3     C10     1.421   .     A
C3     C7      1.410   .     A
C4     C8      1.403   .     A
C4     C587    1.428   1_554 S
C4     C590    1.419   1_554 S
C5     C6      1.393   .     A
C5     C589    1.419   .     S
C5     C609    1.401   .     S
C6     C7      1.383   .     A
C6     F64     1.359   .     S
C7     H41     1.077   .     S
C8     C25     1.401   .     A
C8     H37     1.074   .     S
C9     C24     1.396   .     A
C9     C25     1.417   .     A
C9     C52     1.480   .     S
C10    C12     1.474   .     S
C10    C26     1.401   .     A
C11    F65     1.361   .     S
C11    C17     1.394   .     A
C11    C208    1.389   .     S
C12    O47     1.293   .     A
C12    O46     1.298   .     A
C13    C56     1.478   .     S
C13    C14     1.420   .     A
C13    C401    1.389   1_545 S
C14    C15     1.418   .     A
C14    C22     1.458   .     S
C15    C60     1.485   .     S
C15    C406    1.392   1_545 S
C16    H31     1.085   .     S
C16    C17     1.393   .     A
C16    C210    1.392   .     S
C18    H32     1.082   .     S
C18    N43     1.367   .     A
C18    C84     1.416   .     S
C19    N42     1.366   .     A
C19    H33     1.082   .     S
C19    C148    1.416   1_455 S
C20    N42     1.367   .     A
C20    H34     1.080   .     S
C20    C151    1.415   1_455 S
C21    H35     1.082   .     S
C21    N43     1.366   .     A
C21    C85     1.415   .     S
C22    O48     1.294   .     A
C22    O49     1.287   .     A
C23    O51     1.293   .     A
C23    C25     1.477   .     S
C23    O50     1.300   .     A
C24    C590    1.401   1_554 S
C24    H621    1.085   1_554 S
C26    H38     1.083   .     S
C26    C27     1.385   .     A
C27    C613    1.391   .     S
C27    H625    1.082   .     S
C28    H39     1.074   .     S
C28    C612    1.391   1_554 S
C28    C587    1.418   1_554 S
Cu29   N42     2.010   .     S
Cu29   O46     1.960   .     S
Cu29   Cu30    2.675   .     S
Cu29   O50     1.945   .     S
Cu29   O44     1.966   .     S
Cu29   O48     1.962   .     S
Cu30   O51     1.960   .     S
Cu30   O49     1.966   .     S
Cu30   N43     2.010   .     S
Cu30   O47     1.945   .     S
Cu30   O45     1.962   .     S
H36    C609    1.085   .     S
H40    C612    1.082   1_554 S
C52    O53     1.223   .     D
C52    O54     1.398   .     S
O54    H120    1.013   .     S
H55    O184    1.013   1_455 S
C56    O58     1.398   .     S
C56    O57     1.222   .     D
O58    H59     1.013   .     S
C60    O62     1.398   .     S
C60    O61     1.223   .     D
O62    H63     1.014   .     S
C66    O109    1.288   .     A
C66    O110    1.288   .     A
C66    C82     1.441   .     S
C67    C68     1.420   .     A
C67    C654    1.428   .     S
C67    C678    1.418   .     S
C68    C75     1.421   .     A
C68    C72     1.410   .     A
C69    C73     1.403   .     A
C69    C652    1.428   1_554 S
C69    C655    1.419   1_554 S
C70    C71     1.393   .     A
C70    C654    1.419   .     S
C70    C674    1.401   .     S
C71    C72     1.383   .     A
C71    F129    1.359   .     S
C72    H106    1.077   .     S
C73    C90     1.401   .     A
C73    H102    1.074   .     S
C74    C89     1.396   .     A
C74    C90     1.417   .     A
C74    C117    1.480   .     S
C75    C77     1.474   .     S
C75    C91     1.401   .     A
C76    F130    1.361   .     S
C76    C82     1.394   .     A
C76    C273    1.389   .     S
C77    O112    1.293   .     A
C77    O111    1.298   .     A
C78    C121    1.478   .     S
C78    C79     1.420   .     A
C78    C466    1.389   1_545 S
C79    C80     1.418   .     A
C79    C87     1.458   .     S
C80    C125    1.485   .     S
C80    C471    1.392   1_545 S
C81    H96     1.085   .     S
C81    C82     1.393   .     A
C81    C275    1.392   .     S
C83    H97     1.082   .     S
C83    N108    1.367   .     A
C83    C149    1.416   .     S
C84    N107    1.366   .     A
C84    H98     1.082   .     S
C85    N107    1.367   .     A
C85    H99     1.080   .     S
C86    H100    1.082   .     S
C86    N108    1.366   .     A
C86    C150    1.415   .     S
C87    O113    1.294   .     A
C87    O114    1.287   .     A
C88    O116    1.293   .     A
C88    C90     1.477   .     S
C88    O115    1.300   .     A
C89    C655    1.401   1_554 S
C89    H686    1.085   1_554 S
C91    H103    1.083   .     S
C91    C92     1.385   .     A
C92    C678    1.391   .     S
C92    H690    1.082   .     S
C93    H104    1.074   .     S
C93    C677    1.391   1_554 S
C93    C652    1.418   1_554 S
Cu94   N107    2.010   .     S
Cu94   O111    1.960   .     S
Cu94   Cu95    2.675   .     S
Cu94   O115    1.945   .     S
Cu94   O109    1.966   .     S
Cu94   O113    1.962   .     S
Cu95   O116    1.960   .     S
Cu95   O114    1.966   .     S
Cu95   N108    2.010   .     S
Cu95   O112    1.945   .     S
Cu95   O110    1.962   .     S
H101   C674    1.085   .     S
H105   C677    1.082   1_554 S
C117   O118    1.223   .     D
C117   O119    1.398   .     S
O119   H185    1.013   .     S
C121   O123    1.398   .     S
C121   O122    1.222   .     D
O123   H124    1.013   .     S
C125   O127    1.398   .     S
C125   O126    1.223   .     D
O127   H128    1.014   .     S
C131   O174    1.288   .     A
C131   O175    1.288   .     A
C131   C147    1.441   .     S
C132   C133    1.420   .     A
C132   C719    1.428   .     S
C132   C743    1.418   .     S
C133   C140    1.421   .     A
C133   C137    1.410   .     A
C134   C138    1.403   .     A
C134   C717    1.428   1_554 S
C134   C720    1.419   1_554 S
C135   C136    1.393   .     A
C135   C719    1.419   .     S
C135   C739    1.401   .     S
C136   C137    1.383   .     A
C136   F194    1.359   .     S
C137   H171    1.077   .     S
C138   C155    1.401   .     A
C138   H167    1.074   .     S
C139   C154    1.396   .     A
C139   C155    1.417   .     A
C139   C182    1.480   .     S
C140   C142    1.474   .     S
C140   C156    1.401   .     A
C141   F195    1.361   .     S
C141   C147    1.394   .     A
C141   C338    1.389   .     S
C142   O177    1.293   .     A
C142   O176    1.298   .     A
C143   C186    1.478   .     S
C143   C144    1.420   .     A
C143   C531    1.389   1_545 S
C144   C145    1.418   .     A
C144   C152    1.458   .     S
C145   C190    1.485   .     S
C145   C536    1.392   1_545 S
C146   H161    1.085   .     S
C146   C147    1.393   .     A
C146   C340    1.392   .     S
C148   H162    1.082   .     S
C148   N173    1.367   .     A
C148   C19     1.416   1_655 S
C149   N172    1.366   .     A
C149   H163    1.082   .     S
C150   N172    1.367   .     A
C150   H164    1.080   .     S
C151   H165    1.082   .     S
C151   N173    1.366   .     A
C151   C20     1.415   1_655 S
C152   O178    1.294   .     A
C152   O179    1.287   .     A
C153   O181    1.293   .     A
C153   C155    1.477   .     S
C153   O180    1.300   .     A
C154   C720    1.401   1_554 S
C154   H751    1.085   1_554 S
C156   H168    1.083   .     S
C156   C157    1.385   .     A
C157   C743    1.391   .     S
C157   H755    1.082   .     S
C158   H169    1.074   .     S
C158   C742    1.391   1_554 S
C158   C717    1.418   1_554 S
Cu159  N172    2.010   .     S
Cu159  O176    1.960   .     S
Cu159  Cu160   2.675   .     S
Cu159  O180    1.945   .     S
Cu159  O174    1.966   .     S
Cu159  O178    1.962   .     S
Cu160  O181    1.960   .     S
Cu160  O179    1.966   .     S
Cu160  N173    2.010   .     S
Cu160  O177    1.945   .     S
Cu160  O175    1.962   .     S
H166   C739    1.085   .     S
H170   C742    1.082   1_554 S
C182   O183    1.223   .     D
C182   O184    1.398   .     S
O184   H55     1.013   1_655 S
C186   O188    1.398   .     S
C186   O187    1.222   .     D
O188   H189    1.013   .     S
C190   O192    1.398   .     S
C190   O191    1.223   .     D
O192   H193    1.014   .     S
C196   O239    1.288   .     A
C196   O240    1.288   .     A
C196   C212    1.441   .     S
C197   C198    1.420   .     A
C197   C784    1.428   .     S
C197   C808    1.418   .     S
C198   C205    1.421   .     A
C198   C202    1.410   .     A
C199   C203    1.403   .     A
C199   C782    1.428   1_554 S
C199   C785    1.419   1_554 S
C200   C201    1.393   .     A
C200   C784    1.419   .     S
C200   C804    1.401   .     S
C201   C202    1.383   .     A
C201   F259    1.359   .     S
C202   H236    1.077   .     S
C203   C220    1.401   .     A
C203   H232    1.074   .     S
C204   C219    1.396   .     A
C204   C220    1.417   .     A
C204   C247    1.480   .     S
C205   C207    1.474   .     S
C205   C221    1.401   .     A
C206   F260    1.361   .     S
C206   C212    1.394   .     A
C206   C403    1.389   .     S
C207   O242    1.293   .     A
C207   O241    1.298   .     A
C208   C251    1.478   .     S
C208   C209    1.420   .     A
C209   C210    1.418   .     A
C209   C217    1.458   .     S
C210   C255    1.485   .     S
C211   H226    1.085   .     S
C211   C212    1.393   .     A
C211   C405    1.392   .     S
C213   H227    1.082   .     S
C213   N238    1.367   .     A
C213   C279    1.416   .     S
C214   N237    1.366   .     A
C214   H228    1.082   .     S
C214   C343    1.416   1_455 S
C215   N237    1.367   .     A
C215   H229    1.080   .     S
C215   C346    1.415   1_455 S
C216   H230    1.082   .     S
C216   N238    1.366   .     A
C216   C280    1.415   .     S
C217   O243    1.294   .     A
C217   O244    1.287   .     A
C218   O246    1.293   .     A
C218   C220    1.477   .     S
C218   O245    1.300   .     A
C219   C785    1.401   1_554 S
C219   H816    1.085   1_554 S
C221   H233    1.083   .     S
C221   C222    1.385   .     A
C222   C808    1.391   .     S
C222   H820    1.082   .     S
C223   H234    1.074   .     S
C223   C807    1.391   1_554 S
C223   C782    1.418   1_554 S
Cu224  N237    2.010   .     S
Cu224  O241    1.960   .     S
Cu224  Cu225   2.675   .     S
Cu224  O245    1.945   .     S
Cu224  O239    1.966   .     S
Cu224  O243    1.962   .     S
Cu225  O246    1.960   .     S
Cu225  O244    1.966   .     S
Cu225  N238    2.010   .     S
Cu225  O242    1.945   .     S
Cu225  O240    1.962   .     S
H231   C804    1.085   .     S
H235   C807    1.082   1_554 S
C247   O248    1.223   .     D
C247   O249    1.398   .     S
O249   H315    1.013   .     S
H250   O379    1.013   1_455 S
C251   O253    1.398   .     S
C251   O252    1.222   .     D
O253   H254    1.013   .     S
C255   O257    1.398   .     S
C255   O256    1.223   .     D
O257   H258    1.014   .     S
C261   O304    1.288   .     A
C261   O305    1.288   .     A
C261   C277    1.441   .     S
C262   C263    1.420   .     A
C262   C849    1.428   .     S
C262   C873    1.418   .     S
C263   C270    1.421   .     A
C263   C267    1.410   .     A
C264   C268    1.403   .     A
C264   C847    1.428   1_554 S
C264   C850    1.419   1_554 S
C265   C266    1.393   .     A
C265   C849    1.419   .     S
C265   C869    1.401   .     S
C266   C267    1.383   .     A
C266   F324    1.359   .     S
C267   H301    1.077   .     S
C268   C285    1.401   .     A
C268   H297    1.074   .     S
C269   C284    1.396   .     A
C269   C285    1.417   .     A
C269   C312    1.480   .     S
C270   C272    1.474   .     S
C270   C286    1.401   .     A
C271   F325    1.361   .     S
C271   C277    1.394   .     A
C271   C468    1.389   .     S
C272   O307    1.293   .     A
C272   O306    1.298   .     A
C273   C316    1.478   .     S
C273   C274    1.420   .     A
C274   C275    1.418   .     A
C274   C282    1.458   .     S
C275   C320    1.485   .     S
C276   H291    1.085   .     S
C276   C277    1.393   .     A
C276   C470    1.392   .     S
C278   H292    1.082   .     S
C278   N303    1.367   .     A
C278   C344    1.416   .     S
C279   N302    1.366   .     A
C279   H293    1.082   .     S
C280   N302    1.367   .     A
C280   H294    1.080   .     S
C281   H295    1.082   .     S
C281   N303    1.366   .     A
C281   C345    1.415   .     S
C282   O308    1.294   .     A
C282   O309    1.287   .     A
C283   O311    1.293   .     A
C283   C285    1.477   .     S
C283   O310    1.300   .     A
C284   C850    1.401   1_554 S
C284   H881    1.085   1_554 S
C286   H298    1.083   .     S
C286   C287    1.385   .     A
C287   C873    1.391   .     S
C287   H885    1.082   .     S
C288   H299    1.074   .     S
C288   C872    1.391   1_554 S
C288   C847    1.418   1_554 S
Cu289  N302    2.010   .     S
Cu289  O306    1.960   .     S
Cu289  Cu290   2.675   .     S
Cu289  O310    1.945   .     S
Cu289  O304    1.966   .     S
Cu289  O308    1.962   .     S
Cu290  O311    1.960   .     S
Cu290  O309    1.966   .     S
Cu290  N303    2.010   .     S
Cu290  O307    1.945   .     S
Cu290  O305    1.962   .     S
H296   C869    1.085   .     S
H300   C872    1.082   1_554 S
C312   O313    1.223   .     D
C312   O314    1.398   .     S
O314   H380    1.013   .     S
C316   O318    1.398   .     S
C316   O317    1.222   .     D
O318   H319    1.013   .     S
C320   O322    1.398   .     S
C320   O321    1.223   .     D
O322   H323    1.014   .     S
C326   O369    1.288   .     A
C326   O370    1.288   .     A
C326   C342    1.441   .     S
C327   C328    1.420   .     A
C327   C914    1.428   .     S
C327   C938    1.418   .     S
C328   C335    1.421   .     A
C328   C332    1.410   .     A
C329   C333    1.403   .     A
C329   C912    1.428   1_554 S
C329   C915    1.419   1_554 S
C330   C331    1.393   .     A
C330   C914    1.419   .     S
C330   C934    1.401   .     S
C331   C332    1.383   .     A
C331   F389    1.359   .     S
C332   H366    1.077   .     S
C333   C350    1.401   .     A
C333   H362    1.074   .     S
C334   C349    1.396   .     A
C334   C350    1.417   .     A
C334   C377    1.480   .     S
C335   C337    1.474   .     S
C335   C351    1.401   .     A
C336   F390    1.361   .     S
C336   C342    1.394   .     A
C336   C533    1.389   .     S
C337   O372    1.293   .     A
C337   O371    1.298   .     A
C338   C381    1.478   .     S
C338   C339    1.420   .     A
C339   C340    1.418   .     A
C339   C347    1.458   .     S
C340   C385    1.485   .     S
C341   H356    1.085   .     S
C341   C342    1.393   .     A
C341   C535    1.392   .     S
C343   H357    1.082   .     S
C343   N368    1.367   .     A
C343   C214    1.416   1_655 S
C344   N367    1.366   .     A
C344   H358    1.082   .     S
C345   N367    1.367   .     A
C345   H359    1.080   .     S
C346   H360    1.082   .     S
C346   N368    1.366   .     A
C346   C215    1.415   1_655 S
C347   O373    1.294   .     A
C347   O374    1.287   .     A
C348   O376    1.293   .     A
C348   C350    1.477   .     S
C348   O375    1.300   .     A
C349   C915    1.401   1_554 S
C349   H946    1.085   1_554 S
C351   H363    1.083   .     S
C351   C352    1.385   .     A
C352   C938    1.391   .     S
C352   H950    1.082   .     S
C353   H364    1.074   .     S
C353   C937    1.391   1_554 S
C353   C912    1.418   1_554 S
Cu354  N367    2.010   .     S
Cu354  O371    1.960   .     S
Cu354  Cu355   2.675   .     S
Cu354  O375    1.945   .     S
Cu354  O369    1.966   .     S
Cu354  O373    1.962   .     S
Cu355  O376    1.960   .     S
Cu355  O374    1.966   .     S
Cu355  N368    2.010   .     S
Cu355  O372    1.945   .     S
Cu355  O370    1.962   .     S
H361   C934    1.085   .     S
H365   C937    1.082   1_554 S
C377   O378    1.223   .     D
C377   O379    1.398   .     S
O379   H250    1.013   1_655 S
C381   O383    1.398   .     S
C381   O382    1.222   .     D
O383   H384    1.013   .     S
C385   O387    1.398   .     S
C385   O386    1.223   .     D
O387   H388    1.014   .     S
C391   O434    1.288   .     A
C391   O435    1.288   .     A
C391   C407    1.441   .     S
C392   C393    1.420   .     A
C392   C979    1.428   .     S
C392   C1003   1.418   .     S
C393   C400    1.421   .     A
C393   C397    1.410   .     A
C394   C398    1.403   .     A
C394   C977    1.428   1_554 S
C394   C980    1.419   1_554 S
C395   C396    1.393   .     A
C395   C979    1.419   .     S
C395   C999    1.401   .     S
C396   C397    1.383   .     A
C396   F454    1.359   .     S
C397   H431    1.077   .     S
C398   C415    1.401   .     A
C398   H427    1.074   .     S
C399   C414    1.396   .     A
C399   C415    1.417   .     A
C399   C442    1.480   .     S
C400   C402    1.474   .     S
C400   C416    1.401   .     A
C401   F455    1.361   .     S
C401   C407    1.394   .     A
C401   C13     1.389   1_565 S
C402   O437    1.293   .     A
C402   O436    1.298   .     A
C403   C446    1.478   .     S
C403   C404    1.420   .     A
C404   C405    1.418   .     A
C404   C412    1.458   .     S
C405   C450    1.485   .     S
C406   H421    1.085   .     S
C406   C407    1.393   .     A
C406   C15     1.392   1_565 S
C408   H422    1.082   .     S
C408   N433    1.367   .     A
C408   C474    1.416   .     S
C409   N432    1.366   .     A
C409   H423    1.082   .     S
C409   C538    1.416   1_455 S
C410   N432    1.367   .     A
C410   H424    1.080   .     S
C410   C541    1.415   1_455 S
C411   H425    1.082   .     S
C411   N433    1.366   .     A
C411   C475    1.415   .     S
C412   O438    1.294   .     A
C412   O439    1.287   .     A
C413   O441    1.293   .     A
C413   C415    1.477   .     S
C413   O440    1.300   .     A
C414   C980    1.401   1_554 S
C414   H1011   1.085   1_554 S
C416   H428    1.083   .     S
C416   C417    1.385   .     A
C417   C1003   1.391   .     S
C417   H1015   1.082   .     S
C418   H429    1.074   .     S
C418   C1002   1.391   1_554 S
C418   C977    1.418   1_554 S
Cu419  N432    2.010   .     S
Cu419  O436    1.960   .     S
Cu419  Cu420   2.675   .     S
Cu419  O440    1.945   .     S
Cu419  O434    1.966   .     S
Cu419  O438    1.962   .     S
Cu420  O441    1.960   .     S
Cu420  O439    1.966   .     S
Cu420  N433    2.010   .     S
Cu420  O437    1.945   .     S
Cu420  O435    1.962   .     S
H426   C999    1.085   .     S
H430   C1002   1.082   1_554 S
C442   O443    1.223   .     D
C442   O444    1.398   .     S
O444   H510    1.013   .     S
H445   O574    1.013   1_455 S
C446   O448    1.398   .     S
C446   O447    1.222   .     D
O448   H449    1.013   .     S
C450   O452    1.398   .     S
C450   O451    1.223   .     D
O452   H453    1.014   .     S
C456   O499    1.288   .     A
C456   O500    1.288   .     A
C456   C472    1.441   .     S
C457   C458    1.420   .     A
C457   C1044   1.428   .     S
C457   C1068   1.418   .     S
C458   C465    1.421   .     A
C458   C462    1.410   .     A
C459   C463    1.403   .     A
C459   C1042   1.428   1_554 S
C459   C1045   1.419   1_554 S
C460   C461    1.393   .     A
C460   C1044   1.419   .     S
C460   C1064   1.401   .     S
C461   C462    1.383   .     A
C461   F519    1.359   .     S
C462   H496    1.077   .     S
C463   C480    1.401   .     A
C463   H492    1.074   .     S
C464   C479    1.396   .     A
C464   C480    1.417   .     A
C464   C507    1.480   .     S
C465   C467    1.474   .     S
C465   C481    1.401   .     A
C466   F520    1.361   .     S
C466   C472    1.394   .     A
C466   C78     1.389   1_565 S
C467   O502    1.293   .     A
C467   O501    1.298   .     A
C468   C511    1.478   .     S
C468   C469    1.420   .     A
C469   C470    1.418   .     A
C469   C477    1.458   .     S
C470   C515    1.485   .     S
C471   H486    1.085   .     S
C471   C472    1.393   .     A
C471   C80     1.392   1_565 S
C473   H487    1.082   .     S
C473   N498    1.367   .     A
C473   C539    1.416   .     S
C474   N497    1.366   .     A
C474   H488    1.082   .     S
C475   N497    1.367   .     A
C475   H489    1.080   .     S
C476   H490    1.082   .     S
C476   N498    1.366   .     A
C476   C540    1.415   .     S
C477   O503    1.294   .     A
C477   O504    1.287   .     A
C478   O506    1.293   .     A
C478   C480    1.477   .     S
C478   O505    1.300   .     A
C479   C1045   1.401   1_554 S
C479   H1076   1.085   1_554 S
C481   H493    1.083   .     S
C481   C482    1.385   .     A
C482   C1068   1.391   .     S
C482   H1080   1.082   .     S
C483   H494    1.074   .     S
C483   C1067   1.391   1_554 S
C483   C1042   1.418   1_554 S
Cu484  N497    2.010   .     S
Cu484  O501    1.960   .     S
Cu484  Cu485   2.675   .     S
Cu484  O505    1.945   .     S
Cu484  O499    1.966   .     S
Cu484  O503    1.962   .     S
Cu485  O506    1.960   .     S
Cu485  O504    1.966   .     S
Cu485  N498    2.010   .     S
Cu485  O502    1.945   .     S
Cu485  O500    1.962   .     S
H491   C1064   1.085   .     S
H495   C1067   1.082   1_554 S
C507   O508    1.223   .     D
C507   O509    1.398   .     S
O509   H575    1.013   .     S
C511   O513    1.398   .     S
C511   O512    1.222   .     D
O513   H514    1.013   .     S
C515   O517    1.398   .     S
C515   O516    1.223   .     D
O517   H518    1.014   .     S
C521   O564    1.288   .     A
C521   O565    1.288   .     A
C521   C537    1.441   .     S
C522   C523    1.420   .     A
C522   C1109   1.428   .     S
C522   C1133   1.418   .     S
C523   C530    1.421   .     A
C523   C527    1.410   .     A
C524   C528    1.403   .     A
C524   C1107   1.428   1_554 S
C524   C1110   1.419   1_554 S
C525   C526    1.393   .     A
C525   C1109   1.419   .     S
C525   C1129   1.401   .     S
C526   C527    1.383   .     A
C526   F584    1.359   .     S
C527   H561    1.077   .     S
C528   C545    1.401   .     A
C528   H557    1.074   .     S
C529   C544    1.396   .     A
C529   C545    1.417   .     A
C529   C572    1.480   .     S
C530   C532    1.474   .     S
C530   C546    1.401   .     A
C531   F585    1.361   .     S
C531   C537    1.394   .     A
C531   C143    1.389   1_565 S
C532   O567    1.293   .     A
C532   O566    1.298   .     A
C533   C576    1.478   .     S
C533   C534    1.420   .     A
C534   C535    1.418   .     A
C534   C542    1.458   .     S
C535   C580    1.485   .     S
C536   H551    1.085   .     S
C536   C537    1.393   .     A
C536   C145    1.392   1_565 S
C538   H552    1.082   .     S
C538   N563    1.367   .     A
C538   C409    1.416   1_655 S
C539   N562    1.366   .     A
C539   H553    1.082   .     S
C540   N562    1.367   .     A
C540   H554    1.080   .     S
C541   H555    1.082   .     S
C541   N563    1.366   .     A
C541   C410    1.415   1_655 S
C542   O568    1.294   .     A
C542   O569    1.287   .     A
C543   O571    1.293   .     A
C543   C545    1.477   .     S
C543   O570    1.300   .     A
C544   C1110   1.401   1_554 S
C544   H1141   1.085   1_554 S
C546   H558    1.083   .     S
C546   C547    1.385   .     A
C547   C1133   1.391   .     S
C547   H1145   1.082   .     S
C548   H559    1.074   .     S
C548   C1132   1.391   1_554 S
C548   C1107   1.418   1_554 S
Cu549  N562    2.010   .     S
Cu549  O566    1.960   .     S
Cu549  Cu550   2.675   .     S
Cu549  O570    1.945   .     S
Cu549  O564    1.966   .     S
Cu549  O568    1.962   .     S
Cu550  O571    1.960   .     S
Cu550  O569    1.966   .     S
Cu550  N563    2.010   .     S
Cu550  O567    1.945   .     S
Cu550  O565    1.962   .     S
H556   C1129   1.085   .     S
H560   C1132   1.082   1_554 S
C572   O573    1.223   .     D
C572   O574    1.398   .     S
O574   H445    1.013   1_655 S
C576   O578    1.398   .     S
C576   O577    1.222   .     D
O578   H579    1.013   .     S
C580   O582    1.398   .     S
C580   O581    1.223   .     D
O582   H583    1.014   .     S
C586   O629    1.288   .     A
C586   O630    1.288   .     A
C586   C602    1.441   .     S
C587   C588    1.420   .     A
C587   C4      1.428   1_556 S
C587   C28     1.418   1_556 S
C588   C595    1.421   .     A
C588   C592    1.410   .     A
C589   C593    1.403   .     A
C590   C591    1.393   .     A
C590   C4      1.419   1_556 S
C590   C24     1.401   1_556 S
C591   C592    1.383   .     A
C591   F649    1.359   .     S
C592   H626    1.077   .     S
C593   C610    1.401   .     A
C593   H622    1.074   .     S
C594   C609    1.396   .     A
C594   C610    1.417   .     A
C594   C637    1.480   .     S
C595   C597    1.474   .     S
C595   C611    1.401   .     A
C596   F650    1.361   .     S
C596   C602    1.394   .     A
C596   C793    1.389   .     S
C597   O632    1.293   .     A
C597   O631    1.298   .     A
C598   C641    1.478   .     S
C598   C599    1.420   .     A
C598   C986    1.389   1_545 S
C599   C600    1.418   .     A
C599   C607    1.458   .     S
C600   C645    1.485   .     S
C600   C991    1.392   1_545 S
C601   H616    1.085   .     S
C601   C602    1.393   .     A
C601   C795    1.392   .     S
C603   H617    1.082   .     S
C603   N628    1.367   .     A
C603   C669    1.416   .     S
C604   N627    1.366   .     A
C604   H618    1.082   .     S
C604   C733    1.416   1_455 S
C605   N627    1.367   .     A
C605   H619    1.080   .     S
C605   C736    1.415   1_455 S
C606   H620    1.082   .     S
C606   N628    1.366   .     A
C606   C670    1.415   .     S
C607   O633    1.294   .     A
C607   O634    1.287   .     A
C608   O636    1.293   .     A
C608   C610    1.477   .     S
C608   O635    1.300   .     A
C611   H623    1.083   .     S
C611   C612    1.385   .     A
C612   C28     1.391   1_556 S
C612   H40     1.082   1_556 S
C613   H624    1.074   .     S
Cu614  N627    2.010   .     S
Cu614  O631    1.960   .     S
Cu614  Cu615   2.675   .     S
Cu614  O635    1.945   .     S
Cu614  O629    1.966   .     S
Cu614  O633    1.962   .     S
Cu615  O636    1.960   .     S
Cu615  O634    1.966   .     S
Cu615  N628    2.010   .     S
Cu615  O632    1.945   .     S
Cu615  O630    1.962   .     S
H621   C24     1.085   1_556 S
C637   O638    1.223   .     D
C637   O639    1.398   .     S
O639   H705    1.013   .     S
H640   O769    1.013   1_455 S
C641   O643    1.398   .     S
C641   O642    1.222   .     D
O643   H644    1.013   .     S
C645   O647    1.398   .     S
C645   O646    1.223   .     D
O647   H648    1.014   .     S
C651   O694    1.288   .     A
C651   O695    1.288   .     A
C651   C667    1.441   .     S
C652   C653    1.420   .     A
C652   C69     1.428   1_556 S
C652   C93     1.418   1_556 S
C653   C660    1.421   .     A
C653   C657    1.410   .     A
C654   C658    1.403   .     A
C655   C656    1.393   .     A
C655   C69     1.419   1_556 S
C655   C89     1.401   1_556 S
C656   C657    1.383   .     A
C656   F714    1.359   .     S
C657   H691    1.077   .     S
C658   C675    1.401   .     A
C658   H687    1.074   .     S
C659   C674    1.396   .     A
C659   C675    1.417   .     A
C659   C702    1.480   .     S
C660   C662    1.474   .     S
C660   C676    1.401   .     A
C661   F715    1.361   .     S
C661   C667    1.394   .     A
C661   C858    1.389   .     S
C662   O697    1.293   .     A
C662   O696    1.298   .     A
C663   C706    1.478   .     S
C663   C664    1.420   .     A
C663   C1051   1.389   1_545 S
C664   C665    1.418   .     A
C664   C672    1.458   .     S
C665   C710    1.485   .     S
C665   C1056   1.392   1_545 S
C666   H681    1.085   .     S
C666   C667    1.393   .     A
C666   C860    1.392   .     S
C668   H682    1.082   .     S
C668   N693    1.367   .     A
C668   C734    1.416   .     S
C669   N692    1.366   .     A
C669   H683    1.082   .     S
C670   N692    1.367   .     A
C670   H684    1.080   .     S
C671   H685    1.082   .     S
C671   N693    1.366   .     A
C671   C735    1.415   .     S
C672   O698    1.294   .     A
C672   O699    1.287   .     A
C673   O701    1.293   .     A
C673   C675    1.477   .     S
C673   O700    1.300   .     A
C676   H688    1.083   .     S
C676   C677    1.385   .     A
C677   C93     1.391   1_556 S
C677   H105    1.082   1_556 S
C678   H689    1.074   .     S
Cu679  N692    2.010   .     S
Cu679  O696    1.960   .     S
Cu679  Cu680   2.675   .     S
Cu679  O700    1.945   .     S
Cu679  O694    1.966   .     S
Cu679  O698    1.962   .     S
Cu680  O701    1.960   .     S
Cu680  O699    1.966   .     S
Cu680  N693    2.010   .     S
Cu680  O697    1.945   .     S
Cu680  O695    1.962   .     S
H686   C89     1.085   1_556 S
C702   O703    1.223   .     D
C702   O704    1.398   .     S
O704   H770    1.013   .     S
C706   O708    1.398   .     S
C706   O707    1.222   .     D
O708   H709    1.013   .     S
C710   O712    1.398   .     S
C710   O711    1.223   .     D
O712   H713    1.014   .     S
C716   O759    1.288   .     A
C716   O760    1.288   .     A
C716   C732    1.441   .     S
C717   C718    1.420   .     A
C717   C134    1.428   1_556 S
C717   C158    1.418   1_556 S
C718   C725    1.421   .     A
C718   C722    1.410   .     A
C719   C723    1.403   .     A
C720   C721    1.393   .     A
C720   C134    1.419   1_556 S
C720   C154    1.401   1_556 S
C721   C722    1.383   .     A
C721   F779    1.359   .     S
C722   H756    1.077   .     S
C723   C740    1.401   .     A
C723   H752    1.074   .     S
C724   C739    1.396   .     A
C724   C740    1.417   .     A
C724   C767    1.480   .     S
C725   C727    1.474   .     S
C725   C741    1.401   .     A
C726   F780    1.361   .     S
C726   C732    1.394   .     A
C726   C923    1.389   .     S
C727   O762    1.293   .     A
C727   O761    1.298   .     A
C728   C771    1.478   .     S
C728   C729    1.420   .     A
C728   C1116   1.389   1_545 S
C729   C730    1.418   .     A
C729   C737    1.458   .     S
C730   C775    1.485   .     S
C730   C1121   1.392   1_545 S
C731   H746    1.085   .     S
C731   C732    1.393   .     A
C731   C925    1.392   .     S
C733   H747    1.082   .     S
C733   N758    1.367   .     A
C733   C604    1.416   1_655 S
C734   N757    1.366   .     A
C734   H748    1.082   .     S
C735   N757    1.367   .     A
C735   H749    1.080   .     S
C736   H750    1.082   .     S
C736   N758    1.366   .     A
C736   C605    1.415   1_655 S
C737   O763    1.294   .     A
C737   O764    1.287   .     A
C738   O766    1.293   .     A
C738   C740    1.477   .     S
C738   O765    1.300   .     A
C741   H753    1.083   .     S
C741   C742    1.385   .     A
C742   C158    1.391   1_556 S
C742   H170    1.082   1_556 S
C743   H754    1.074   .     S
Cu744  N757    2.010   .     S
Cu744  O761    1.960   .     S
Cu744  Cu745   2.675   .     S
Cu744  O765    1.945   .     S
Cu744  O759    1.966   .     S
Cu744  O763    1.962   .     S
Cu745  O766    1.960   .     S
Cu745  O764    1.966   .     S
Cu745  N758    2.010   .     S
Cu745  O762    1.945   .     S
Cu745  O760    1.962   .     S
H751   C154    1.085   1_556 S
C767   O768    1.223   .     D
C767   O769    1.398   .     S
O769   H640    1.013   1_655 S
C771   O773    1.398   .     S
C771   O772    1.222   .     D
O773   H774    1.013   .     S
C775   O777    1.398   .     S
C775   O776    1.223   .     D
O777   H778    1.014   .     S
C781   O824    1.288   .     A
C781   O825    1.288   .     A
C781   C797    1.441   .     S
C782   C783    1.420   .     A
C782   C199    1.428   1_556 S
C782   C223    1.418   1_556 S
C783   C790    1.421   .     A
C783   C787    1.410   .     A
C784   C788    1.403   .     A
C785   C786    1.393   .     A
C785   C199    1.419   1_556 S
C785   C219    1.401   1_556 S
C786   C787    1.383   .     A
C786   F844    1.359   .     S
C787   H821    1.077   .     S
C788   C805    1.401   .     A
C788   H817    1.074   .     S
C789   C804    1.396   .     A
C789   C805    1.417   .     A
C789   C832    1.480   .     S
C790   C792    1.474   .     S
C790   C806    1.401   .     A
C791   F845    1.361   .     S
C791   C797    1.394   .     A
C791   C988    1.389   .     S
C792   O827    1.293   .     A
C792   O826    1.298   .     A
C793   C836    1.478   .     S
C793   C794    1.420   .     A
C794   C795    1.418   .     A
C794   C802    1.458   .     S
C795   C840    1.485   .     S
C796   H811    1.085   .     S
C796   C797    1.393   .     A
C796   C990    1.392   .     S
C798   H812    1.082   .     S
C798   N823    1.367   .     A
C798   C864    1.416   .     S
C799   N822    1.366   .     A
C799   H813    1.082   .     S
C799   C928    1.416   1_455 S
C800   N822    1.367   .     A
C800   H814    1.080   .     S
C800   C931    1.415   1_455 S
C801   H815    1.082   .     S
C801   N823    1.366   .     A
C801   C865    1.415   .     S
C802   O828    1.294   .     A
C802   O829    1.287   .     A
C803   O831    1.293   .     A
C803   C805    1.477   .     S
C803   O830    1.300   .     A
C806   H818    1.083   .     S
C806   C807    1.385   .     A
C807   C223    1.391   1_556 S
C807   H235    1.082   1_556 S
C808   H819    1.074   .     S
Cu809  N822    2.010   .     S
Cu809  O826    1.960   .     S
Cu809  Cu810   2.675   .     S
Cu809  O830    1.945   .     S
Cu809  O824    1.966   .     S
Cu809  O828    1.962   .     S
Cu810  O831    1.960   .     S
Cu810  O829    1.966   .     S
Cu810  N823    2.010   .     S
Cu810  O827    1.945   .     S
Cu810  O825    1.962   .     S
H816   C219    1.085   1_556 S
C832   O833    1.223   .     D
C832   O834    1.398   .     S
O834   H900    1.013   .     S
H835   O964    1.013   1_455 S
C836   O838    1.398   .     S
C836   O837    1.222   .     D
O838   H839    1.013   .     S
C840   O842    1.398   .     S
C840   O841    1.223   .     D
O842   H843    1.014   .     S
C846   O889    1.288   .     A
C846   O890    1.288   .     A
C846   C862    1.441   .     S
C847   C848    1.420   .     A
C847   C264    1.428   1_556 S
C847   C288    1.418   1_556 S
C848   C855    1.421   .     A
C848   C852    1.410   .     A
C849   C853    1.403   .     A
C850   C851    1.393   .     A
C850   C264    1.419   1_556 S
C850   C284    1.401   1_556 S
C851   C852    1.383   .     A
C851   F909    1.359   .     S
C852   H886    1.077   .     S
C853   C870    1.401   .     A
C853   H882    1.074   .     S
C854   C869    1.396   .     A
C854   C870    1.417   .     A
C854   C897    1.480   .     S
C855   C857    1.474   .     S
C855   C871    1.401   .     A
C856   F910    1.361   .     S
C856   C862    1.394   .     A
C856   C1053   1.389   .     S
C857   O892    1.293   .     A
C857   O891    1.298   .     A
C858   C901    1.478   .     S
C858   C859    1.420   .     A
C859   C860    1.418   .     A
C859   C867    1.458   .     S
C860   C905    1.485   .     S
C861   H876    1.085   .     S
C861   C862    1.393   .     A
C861   C1055   1.392   .     S
C863   H877    1.082   .     S
C863   N888    1.367   .     A
C863   C929    1.416   .     S
C864   N887    1.366   .     A
C864   H878    1.082   .     S
C865   N887    1.367   .     A
C865   H879    1.080   .     S
C866   H880    1.082   .     S
C866   N888    1.366   .     A
C866   C930    1.415   .     S
C867   O893    1.294   .     A
C867   O894    1.287   .     A
C868   O896    1.293   .     A
C868   C870    1.477   .     S
C868   O895    1.300   .     A
C871   H883    1.083   .     S
C871   C872    1.385   .     A
C872   C288    1.391   1_556 S
C872   H300    1.082   1_556 S
C873   H884    1.074   .     S
Cu874  N887    2.010   .     S
Cu874  O891    1.960   .     S
Cu874  Cu875   2.675   .     S
Cu874  O895    1.945   .     S
Cu874  O889    1.966   .     S
Cu874  O893    1.962   .     S
Cu875  O896    1.960   .     S
Cu875  O894    1.966   .     S
Cu875  N888    2.010   .     S
Cu875  O892    1.945   .     S
Cu875  O890    1.962   .     S
H881   C284    1.085   1_556 S
C897   O898    1.223   .     D
C897   O899    1.398   .     S
O899   H965    1.013   .     S
C901   O903    1.398   .     S
C901   O902    1.222   .     D
O903   H904    1.013   .     S
C905   O907    1.398   .     S
C905   O906    1.223   .     D
O907   H908    1.014   .     S
C911   O954    1.288   .     A
C911   O955    1.288   .     A
C911   C927    1.441   .     S
C912   C913    1.420   .     A
C912   C329    1.428   1_556 S
C912   C353    1.418   1_556 S
C913   C920    1.421   .     A
C913   C917    1.410   .     A
C914   C918    1.403   .     A
C915   C916    1.393   .     A
C915   C329    1.419   1_556 S
C915   C349    1.401   1_556 S
C916   C917    1.383   .     A
C916   F974    1.359   .     S
C917   H951    1.077   .     S
C918   C935    1.401   .     A
C918   H947    1.074   .     S
C919   C934    1.396   .     A
C919   C935    1.417   .     A
C919   C962    1.480   .     S
C920   C922    1.474   .     S
C920   C936    1.401   .     A
C921   F975    1.361   .     S
C921   C927    1.394   .     A
C921   C1118   1.389   .     S
C922   O957    1.293   .     A
C922   O956    1.298   .     A
C923   C966    1.478   .     S
C923   C924    1.420   .     A
C924   C925    1.418   .     A
C924   C932    1.458   .     S
C925   C970    1.485   .     S
C926   H941    1.085   .     S
C926   C927    1.393   .     A
C926   C1120   1.392   .     S
C928   H942    1.082   .     S
C928   N953    1.367   .     A
C928   C799    1.416   1_655 S
C929   N952    1.366   .     A
C929   H943    1.082   .     S
C930   N952    1.367   .     A
C930   H944    1.080   .     S
C931   H945    1.082   .     S
C931   N953    1.366   .     A
C931   C800    1.415   1_655 S
C932   O958    1.294   .     A
C932   O959    1.287   .     A
C933   O961    1.293   .     A
C933   C935    1.477   .     S
C933   O960    1.300   .     A
C936   H948    1.083   .     S
C936   C937    1.385   .     A
C937   C353    1.391   1_556 S
C937   H365    1.082   1_556 S
C938   H949    1.074   .     S
Cu939  N952    2.010   .     S
Cu939  O956    1.960   .     S
Cu939  Cu940   2.675   .     S
Cu939  O960    1.945   .     S
Cu939  O954    1.966   .     S
Cu939  O958    1.962   .     S
Cu940  O961    1.960   .     S
Cu940  O959    1.966   .     S
Cu940  N953    2.010   .     S
Cu940  O957    1.945   .     S
Cu940  O955    1.962   .     S
H946   C349    1.085   1_556 S
C962   O963    1.223   .     D
C962   O964    1.398   .     S
O964   H835    1.013   1_655 S
C966   O968    1.398   .     S
C966   O967    1.222   .     D
O968   H969    1.013   .     S
C970   O972    1.398   .     S
C970   O971    1.223   .     D
O972   H973    1.014   .     S
C976   O1019   1.288   .     A
C976   O1020   1.288   .     A
C976   C992    1.441   .     S
C977   C978    1.420   .     A
C977   C394    1.428   1_556 S
C977   C418    1.418   1_556 S
C978   C985    1.421   .     A
C978   C982    1.410   .     A
C979   C983    1.403   .     A
C980   C981    1.393   .     A
C980   C394    1.419   1_556 S
C980   C414    1.401   1_556 S
C981   C982    1.383   .     A
C981   F1039   1.359   .     S
C982   H1016   1.077   .     S
C983   C1000   1.401   .     A
C983   H1012   1.074   .     S
C984   C999    1.396   .     A
C984   C1000   1.417   .     A
C984   C1027   1.480   .     S
C985   C987    1.474   .     S
C985   C1001   1.401   .     A
C986   F1040   1.361   .     S
C986   C992    1.394   .     A
C986   C598    1.389   1_565 S
C987   O1022   1.293   .     A
C987   O1021   1.298   .     A
C988   C1031   1.478   .     S
C988   C989    1.420   .     A
C989   C990    1.418   .     A
C989   C997    1.458   .     S
C990   C1035   1.485   .     S
C991   H1006   1.085   .     S
C991   C992    1.393   .     A
C991   C600    1.392   1_565 S
C993   H1007   1.082   .     S
C993   N1018   1.367   .     A
C993   C1059   1.416   .     S
C994   N1017   1.366   .     A
C994   H1008   1.082   .     S
C994   C1123   1.416   1_455 S
C995   N1017   1.367   .     A
C995   H1009   1.080   .     S
C995   C1126   1.415   1_455 S
C996   H1010   1.082   .     S
C996   N1018   1.366   .     A
C996   C1060   1.415   .     S
C997   O1023   1.294   .     A
C997   O1024   1.287   .     A
C998   O1026   1.293   .     A
C998   C1000   1.477   .     S
C998   O1025   1.300   .     A
C1001  H1013   1.083   .     S
C1001  C1002   1.385   .     A
C1002  C418    1.391   1_556 S
C1002  H430    1.082   1_556 S
C1003  H1014   1.074   .     S
Cu1004 N1017   2.010   .     S
Cu1004 O1021   1.960   .     S
Cu1004 Cu1005  2.675   .     S
Cu1004 O1025   1.945   .     S
Cu1004 O1019   1.966   .     S
Cu1004 O1023   1.962   .     S
Cu1005 O1026   1.960   .     S
Cu1005 O1024   1.966   .     S
Cu1005 N1018   2.010   .     S
Cu1005 O1022   1.945   .     S
Cu1005 O1020   1.962   .     S
H1011  C414    1.085   1_556 S
C1027  O1028   1.223   .     D
C1027  O1029   1.398   .     S
O1029  H1095   1.013   .     S
H1030  O1159   1.013   1_455 S
C1031  O1033   1.398   .     S
C1031  O1032   1.222   .     D
O1033  H1034   1.013   .     S
C1035  O1037   1.398   .     S
C1035  O1036   1.223   .     D
O1037  H1038   1.014   .     S
C1041  O1084   1.288   .     A
C1041  O1085   1.288   .     A
C1041  C1057   1.441   .     S
C1042  C1043   1.420   .     A
C1042  C459    1.428   1_556 S
C1042  C483    1.418   1_556 S
C1043  C1050   1.421   .     A
C1043  C1047   1.410   .     A
C1044  C1048   1.403   .     A
C1045  C1046   1.393   .     A
C1045  C459    1.419   1_556 S
C1045  C479    1.401   1_556 S
C1046  C1047   1.383   .     A
C1046  F1104   1.359   .     S
C1047  H1081   1.077   .     S
C1048  C1065   1.401   .     A
C1048  H1077   1.074   .     S
C1049  C1064   1.396   .     A
C1049  C1065   1.417   .     A
C1049  C1092   1.480   .     S
C1050  C1052   1.474   .     S
C1050  C1066   1.401   .     A
C1051  F1105   1.361   .     S
C1051  C1057   1.394   .     A
C1051  C663    1.389   1_565 S
C1052  O1087   1.293   .     A
C1052  O1086   1.298   .     A
C1053  C1096   1.478   .     S
C1053  C1054   1.420   .     A
C1054  C1055   1.418   .     A
C1054  C1062   1.458   .     S
C1055  C1100   1.485   .     S
C1056  H1071   1.085   .     S
C1056  C1057   1.393   .     A
C1056  C665    1.392   1_565 S
C1058  H1072   1.082   .     S
C1058  N1083   1.367   .     A
C1058  C1124   1.416   .     S
C1059  N1082   1.366   .     A
C1059  H1073   1.082   .     S
C1060  N1082   1.367   .     A
C1060  H1074   1.080   .     S
C1061  H1075   1.082   .     S
C1061  N1083   1.366   .     A
C1061  C1125   1.415   .     S
C1062  O1088   1.294   .     A
C1062  O1089   1.287   .     A
C1063  O1091   1.293   .     A
C1063  C1065   1.477   .     S
C1063  O1090   1.300   .     A
C1066  H1078   1.083   .     S
C1066  C1067   1.385   .     A
C1067  C483    1.391   1_556 S
C1067  H495    1.082   1_556 S
C1068  H1079   1.074   .     S
Cu1069 N1082   2.010   .     S
Cu1069 O1086   1.960   .     S
Cu1069 Cu1070  2.675   .     S
Cu1069 O1090   1.945   .     S
Cu1069 O1084   1.966   .     S
Cu1069 O1088   1.962   .     S
Cu1070 O1091   1.960   .     S
Cu1070 O1089   1.966   .     S
Cu1070 N1083   2.010   .     S
Cu1070 O1087   1.945   .     S
Cu1070 O1085   1.962   .     S
H1076  C479    1.085   1_556 S
C1092  O1093   1.223   .     D
C1092  O1094   1.398   .     S
O1094  H1160   1.013   .     S
C1096  O1098   1.398   .     S
C1096  O1097   1.222   .     D
O1098  H1099   1.013   .     S
C1100  O1102   1.398   .     S
C1100  O1101   1.223   .     D
O1102  H1103   1.014   .     S
C1106  O1149   1.288   .     A
C1106  O1150   1.288   .     A
C1106  C1122   1.441   .     S
C1107  C1108   1.420   .     A
C1107  C524    1.428   1_556 S
C1107  C548    1.418   1_556 S
C1108  C1115   1.421   .     A
C1108  C1112   1.410   .     A
C1109  C1113   1.403   .     A
C1110  C1111   1.393   .     A
C1110  C524    1.419   1_556 S
C1110  C544    1.401   1_556 S
C1111  C1112   1.383   .     A
C1111  F1169   1.359   .     S
C1112  H1146   1.077   .     S
C1113  C1130   1.401   .     A
C1113  H1142   1.074   .     S
C1114  C1129   1.396   .     A
C1114  C1130   1.417   .     A
C1114  C1157   1.480   .     S
C1115  C1117   1.474   .     S
C1115  C1131   1.401   .     A
C1116  F1170   1.361   .     S
C1116  C1122   1.394   .     A
C1116  C728    1.389   1_565 S
C1117  O1152   1.293   .     A
C1117  O1151   1.298   .     A
C1118  C1161   1.478   .     S
C1118  C1119   1.420   .     A
C1119  C1120   1.418   .     A
C1119  C1127   1.458   .     S
C1120  C1165   1.485   .     S
C1121  H1136   1.085   .     S
C1121  C1122   1.393   .     A
C1121  C730    1.392   1_565 S
C1123  H1137   1.082   .     S
C1123  N1148   1.367   .     A
C1123  C994    1.416   1_655 S
C1124  N1147   1.366   .     A
C1124  H1138   1.082   .     S
C1125  N1147   1.367   .     A
C1125  H1139   1.080   .     S
C1126  H1140   1.082   .     S
C1126  N1148   1.366   .     A
C1126  C995    1.415   1_655 S
C1127  O1153   1.294   .     A
C1127  O1154   1.287   .     A
C1128  O1156   1.293   .     A
C1128  C1130   1.477   .     S
C1128  O1155   1.300   .     A
C1131  H1143   1.083   .     S
C1131  C1132   1.385   .     A
C1132  C548    1.391   1_556 S
C1132  H560    1.082   1_556 S
C1133  H1144   1.074   .     S
Cu1134 N1147   2.010   .     S
Cu1134 O1151   1.960   .     S
Cu1134 Cu1135  2.675   .     S
Cu1134 O1155   1.945   .     S
Cu1134 O1149   1.966   .     S
Cu1134 O1153   1.962   .     S
Cu1135 O1156   1.960   .     S
Cu1135 O1154   1.966   .     S
Cu1135 N1148   2.010   .     S
Cu1135 O1152   1.945   .     S
Cu1135 O1150   1.962   .     S
H1141  C544    1.085   1_556 S
C1157  O1158   1.223   .     D
C1157  O1159   1.398   .     S
O1159  H1030   1.013   1_655 S
C1161  O1163   1.398   .     S
C1161  O1162   1.222   .     D
O1163  H1164   1.013   .     S
C1165  O1167   1.398   .     S
C1165  O1166   1.223   .     D
O1167  H1168   1.014   .     S
