data_str_m3_o10_o16_pcu_sym.7
_audit_creation_date              2020-01-03
_audit_creation_method            'Materials Studio'
_symmetry_space_group_name_H-M    'P1'
_symmetry_Int_Tables_number       1
_symmetry_cell_setting            triclinic
loop_
_symmetry_equiv_pos_as_xyz
  x,y,z
_cell_length_a                    23.7187
_cell_length_b                    25.5735
_cell_length_c                    24.8500
_cell_angle_alpha                 94.1910
_cell_angle_beta                  103.0172
_cell_angle_gamma                 92.8343
loop_
_atom_site_label
_atom_site_type_symbol
_atom_site_fract_x
_atom_site_fract_y
_atom_site_fract_z
_atom_site_U_iso_or_equiv
_atom_site_adp_type
_atom_site_occupancy
C1     C     0.01543   0.26492   0.25245   0.00000  Uiso   1.00
C2     C     0.06219   0.20320   0.41071   0.00000  Uiso   1.00
C3     C     0.02616   0.31936   0.26827   0.00000  Uiso   1.00
C4     C     0.03802   0.17907   0.35356   0.00000  Uiso   1.00
C5     C     0.31350   0.01433   0.25243   0.00000  Uiso   1.00
C6     C     0.32025   0.06900   0.25429   0.00000  Uiso   1.00
C7     C     0.29688   0.16399   0.14561   0.00000  Uiso   1.00
C8     C     0.28001   0.14285   0.49281   0.00000  Uiso   1.00
C9     C     0.27633   0.16628   0.08673   0.00000  Uiso   1.00
C10    C     0.02543   0.22475   0.44116   0.00000  Uiso   1.00
C11    C     0.04558   0.24003   0.49694   0.00000  Uiso   1.00
C12    C     0.14237   0.21097   0.49372   0.00000  Uiso   1.00
C13    C     0.10187   0.23036   0.02543   0.00000  Uiso   1.00
C14    C     0.12222   0.20607   0.43511   0.00000  Uiso   1.00
C15    C     0.19958   0.19286   0.01365   0.00000  Uiso   1.00
C16    C     0.23012   0.17002   0.47521   0.00000  Uiso   1.00
C17    C     0.21272   0.17786   0.41981   0.00000  Uiso   1.00
C18    C     0.16276   0.20232   0.40203   0.00000  Uiso   1.00
C19    C     0.22799   0.19481   0.06900   0.00000  Uiso   1.00
C20    C     0.30232   0.13977   0.04883   0.00000  Uiso   1.00
H21    H     0.00671   0.11777   0.06248   0.00000  Uiso   1.00
H22    H     0.08953   0.02669   0.16677   0.00000  Uiso   1.00
H23    H     0.10862   0.15961   0.10595   0.00000  Uiso   1.00
H24    H     0.10321   0.32496   0.41254   0.00000  Uiso   1.00
H25    H     0.27225   0.33035   0.22714   0.00000  Uiso   1.00
H26    H     0.17699   0.21602   0.28079   0.00000  Uiso   1.00
H27    H     0.23812   0.16614   0.39046   0.00000  Uiso   1.00
H28    H     0.30185   0.12445   0.46322   0.00000  Uiso   1.00
H29    H     0.21586   0.21991   0.09951   0.00000  Uiso   1.00
H30    H     0.31426   0.23038   0.42173   0.00000  Uiso   1.00
H31    H     0.01478   0.25660   0.01837   0.00000  Uiso   1.00
H32    H     0.15440   0.21538   0.36114   0.00000  Uiso   1.00
N33    N     0.14493   0.15223   0.23542   0.00000  Uiso   1.00
N34    N     0.18840   0.18110   0.26457   0.00000  Uiso   1.00
O35    O     0.29769   0.24629   0.25357   0.00000  Uiso   1.00
O36    O     0.17261   0.05459   0.25148   0.00000  Uiso   1.00
O37    O     0.08776   0.06535   0.16784   0.00000  Uiso   1.00
O38    O     0.15924   0.28738   0.11893   0.00000  Uiso   1.00
O39    O     0.05897   0.25887   0.11512   0.00000  Uiso   1.00
O40    O     0.13353   0.18865   0.12949   0.00000  Uiso   1.00
O41    O     0.13778   0.30928   0.31803   0.00000  Uiso   1.00
O42    O     0.10285   0.06264   0.33429   0.00000  Uiso   1.00
O43    O     0.06708   0.31988   0.38301   0.00000  Uiso   1.00
O44    O     0.05742   0.23704   0.24423   0.00000  Uiso   1.00
O45    O     0.31490   0.17358   0.33380   0.00000  Uiso   1.00
O46    O     0.07463   0.16433   0.32446   0.00000  Uiso   1.00
O47    O     0.27592   0.09629   0.25576   0.00000  Uiso   1.00
O48    O     0.03565   0.08704   0.24642   0.00000  Uiso   1.00
O49    O     0.25870   0.16901   0.17554   0.00000  Uiso   1.00
O50    O     0.01843   0.15976   0.16620   0.00000  Uiso   1.00
O51    O     0.19285   0.08970   0.16782   0.00000  Uiso   1.00
S52    S     0.15255   0.08995   0.20629   0.00000  Uiso   1.00
S53    S     0.11343   0.24316   0.09869   0.00000  Uiso   1.00
S54    S     0.08608   0.00482   0.32563   0.00000  Uiso   1.00
Zn55   Zn    0.27119   0.17284   0.25623   0.00000  Uiso   1.00
Zn56   Zn    0.06214   0.16049   0.24376   0.00000  Uiso   1.00
C57    C     0.34876   0.26492   0.25245   0.00000  Uiso   1.00
C58    C     0.39553   0.20320   0.41071   0.00000  Uiso   1.00
C59    C     0.35949   0.31936   0.26827   0.00000  Uiso   1.00
C60    C     0.37135   0.17907   0.35356   0.00000  Uiso   1.00
C61    C     0.64683   0.01433   0.25243   0.00000  Uiso   1.00
C62    C     0.65359   0.06900   0.25429   0.00000  Uiso   1.00
C63    C     0.63021   0.16399   0.14561   0.00000  Uiso   1.00
C64    C     0.61334   0.14285   0.49281   0.00000  Uiso   1.00
C65    C     0.60966   0.16628   0.08673   0.00000  Uiso   1.00
C66    C     0.35877   0.22475   0.44116   0.00000  Uiso   1.00
C67    C     0.37891   0.24003   0.49694   0.00000  Uiso   1.00
C68    C     0.47570   0.21097   0.49372   0.00000  Uiso   1.00
C69    C     0.43520   0.23036   0.02543   0.00000  Uiso   1.00
C70    C     0.45555   0.20607   0.43511   0.00000  Uiso   1.00
C71    C     0.53291   0.19286   0.01365   0.00000  Uiso   1.00
C72    C     0.56345   0.17002   0.47521   0.00000  Uiso   1.00
C73    C     0.54605   0.17786   0.41981   0.00000  Uiso   1.00
C74    C     0.49609   0.20232   0.40203   0.00000  Uiso   1.00
C75    C     0.56133   0.19481   0.06900   0.00000  Uiso   1.00
C76    C     0.63565   0.13977   0.04883   0.00000  Uiso   1.00
H77    H     0.34004   0.11777   0.06248   0.00000  Uiso   1.00
H78    H     0.42286   0.02669   0.16677   0.00000  Uiso   1.00
H79    H     0.44195   0.15961   0.10595   0.00000  Uiso   1.00
H80    H     0.43654   0.32496   0.41254   0.00000  Uiso   1.00
H81    H     0.60559   0.33035   0.22714   0.00000  Uiso   1.00
H82    H     0.51032   0.21602   0.28079   0.00000  Uiso   1.00
H83    H     0.57146   0.16614   0.39046   0.00000  Uiso   1.00
H84    H     0.63518   0.12445   0.46322   0.00000  Uiso   1.00
H85    H     0.54920   0.21991   0.09951   0.00000  Uiso   1.00
H86    H     0.64759   0.23038   0.42173   0.00000  Uiso   1.00
H87    H     0.34811   0.25660   0.01837   0.00000  Uiso   1.00
H88    H     0.48774   0.21538   0.36114   0.00000  Uiso   1.00
N89    N     0.47827   0.15223   0.23542   0.00000  Uiso   1.00
N90    N     0.52173   0.18110   0.26457   0.00000  Uiso   1.00
O91    O     0.63102   0.24629   0.25357   0.00000  Uiso   1.00
O92    O     0.50595   0.05459   0.25148   0.00000  Uiso   1.00
O93    O     0.42109   0.06535   0.16784   0.00000  Uiso   1.00
O94    O     0.49257   0.28738   0.11893   0.00000  Uiso   1.00
O95    O     0.39231   0.25887   0.11512   0.00000  Uiso   1.00
O96    O     0.46687   0.18865   0.12949   0.00000  Uiso   1.00
O97    O     0.47111   0.30928   0.31803   0.00000  Uiso   1.00
O98    O     0.43618   0.06264   0.33429   0.00000  Uiso   1.00
O99    O     0.40041   0.31988   0.38301   0.00000  Uiso   1.00
O100   O     0.39075   0.23704   0.24423   0.00000  Uiso   1.00
O101   O     0.64823   0.17358   0.33380   0.00000  Uiso   1.00
O102   O     0.40796   0.16433   0.32446   0.00000  Uiso   1.00
O103   O     0.60925   0.09629   0.25576   0.00000  Uiso   1.00
O104   O     0.36898   0.08704   0.24642   0.00000  Uiso   1.00
O105   O     0.59204   0.16901   0.17554   0.00000  Uiso   1.00
O106   O     0.35177   0.15976   0.16620   0.00000  Uiso   1.00
O107   O     0.52619   0.08970   0.16782   0.00000  Uiso   1.00
S108   S     0.48588   0.08995   0.20629   0.00000  Uiso   1.00
S109   S     0.44676   0.24316   0.09869   0.00000  Uiso   1.00
S110   S     0.41941   0.00482   0.32563   0.00000  Uiso   1.00
Zn111  Zn    0.60453   0.17284   0.25623   0.00000  Uiso   1.00
Zn112  Zn    0.39547   0.16049   0.24376   0.00000  Uiso   1.00
C113   C     0.68210   0.26492   0.25245   0.00000  Uiso   1.00
C114   C     0.72886   0.20320   0.41071   0.00000  Uiso   1.00
C115   C     0.69283   0.31936   0.26827   0.00000  Uiso   1.00
C116   C     0.70468   0.17907   0.35356   0.00000  Uiso   1.00
C117   C     0.98016   0.01433   0.25243   0.00000  Uiso   1.00
C118   C     0.98692   0.06900   0.25429   0.00000  Uiso   1.00
C119   C     0.96355   0.16399   0.14561   0.00000  Uiso   1.00
C120   C     0.94667   0.14285   0.49281   0.00000  Uiso   1.00
C121   C     0.94300   0.16628   0.08673   0.00000  Uiso   1.00
C122   C     0.69210   0.22475   0.44116   0.00000  Uiso   1.00
C123   C     0.71224   0.24003   0.49694   0.00000  Uiso   1.00
C124   C     0.80903   0.21097   0.49372   0.00000  Uiso   1.00
C125   C     0.76854   0.23036   0.02543   0.00000  Uiso   1.00
C126   C     0.78889   0.20607   0.43511   0.00000  Uiso   1.00
C127   C     0.86624   0.19286   0.01365   0.00000  Uiso   1.00
C128   C     0.89678   0.17002   0.47521   0.00000  Uiso   1.00
C129   C     0.87939   0.17786   0.41981   0.00000  Uiso   1.00
C130   C     0.82942   0.20232   0.40203   0.00000  Uiso   1.00
C131   C     0.89466   0.19481   0.06900   0.00000  Uiso   1.00
C132   C     0.96899   0.13977   0.04883   0.00000  Uiso   1.00
H133   H     0.67338   0.11777   0.06248   0.00000  Uiso   1.00
H134   H     0.75619   0.02669   0.16677   0.00000  Uiso   1.00
H135   H     0.77528   0.15961   0.10595   0.00000  Uiso   1.00
H136   H     0.76987   0.32496   0.41254   0.00000  Uiso   1.00
H137   H     0.93892   0.33035   0.22714   0.00000  Uiso   1.00
H138   H     0.84366   0.21602   0.28079   0.00000  Uiso   1.00
H139   H     0.90479   0.16614   0.39046   0.00000  Uiso   1.00
H140   H     0.96852   0.12445   0.46322   0.00000  Uiso   1.00
H141   H     0.88253   0.21991   0.09951   0.00000  Uiso   1.00
H142   H     0.98093   0.23038   0.42173   0.00000  Uiso   1.00
H143   H     0.68145   0.25660   0.01837   0.00000  Uiso   1.00
H144   H     0.82107   0.21538   0.36114   0.00000  Uiso   1.00
N145   N     0.81160   0.15223   0.23542   0.00000  Uiso   1.00
N146   N     0.85507   0.18110   0.26457   0.00000  Uiso   1.00
O147   O     0.96435   0.24629   0.25357   0.00000  Uiso   1.00
O148   O     0.83928   0.05459   0.25148   0.00000  Uiso   1.00
O149   O     0.75442   0.06535   0.16784   0.00000  Uiso   1.00
O150   O     0.82590   0.28738   0.11893   0.00000  Uiso   1.00
O151   O     0.72564   0.25887   0.11512   0.00000  Uiso   1.00
O152   O     0.80020   0.18865   0.12949   0.00000  Uiso   1.00
O153   O     0.80444   0.30928   0.31803   0.00000  Uiso   1.00
O154   O     0.76952   0.06264   0.33429   0.00000  Uiso   1.00
O155   O     0.73374   0.31988   0.38301   0.00000  Uiso   1.00
O156   O     0.72408   0.23704   0.24423   0.00000  Uiso   1.00
O157   O     0.98157   0.17358   0.33380   0.00000  Uiso   1.00
O158   O     0.74130   0.16433   0.32446   0.00000  Uiso   1.00
O159   O     0.94258   0.09629   0.25576   0.00000  Uiso   1.00
O160   O     0.70231   0.08704   0.24642   0.00000  Uiso   1.00
O161   O     0.92537   0.16901   0.17554   0.00000  Uiso   1.00
O162   O     0.68510   0.15976   0.16620   0.00000  Uiso   1.00
O163   O     0.85952   0.08970   0.16782   0.00000  Uiso   1.00
S164   S     0.81922   0.08995   0.20629   0.00000  Uiso   1.00
S165   S     0.78009   0.24316   0.09869   0.00000  Uiso   1.00
S166   S     0.75274   0.00482   0.32563   0.00000  Uiso   1.00
Zn167  Zn    0.93786   0.17284   0.25623   0.00000  Uiso   1.00
Zn168  Zn    0.72881   0.16049   0.24376   0.00000  Uiso   1.00
C169   C     0.01543   0.59825   0.25245   0.00000  Uiso   1.00
C170   C     0.06219   0.53653   0.41071   0.00000  Uiso   1.00
C171   C     0.02616   0.65269   0.26827   0.00000  Uiso   1.00
C172   C     0.03802   0.51241   0.35356   0.00000  Uiso   1.00
C173   C     0.31350   0.34767   0.25243   0.00000  Uiso   1.00
C174   C     0.32025   0.40233   0.25429   0.00000  Uiso   1.00
C175   C     0.29688   0.49732   0.14561   0.00000  Uiso   1.00
C176   C     0.28001   0.47618   0.49281   0.00000  Uiso   1.00
C177   C     0.27633   0.49961   0.08673   0.00000  Uiso   1.00
C178   C     0.02543   0.55809   0.44116   0.00000  Uiso   1.00
C179   C     0.04558   0.57336   0.49694   0.00000  Uiso   1.00
C180   C     0.14237   0.54430   0.49372   0.00000  Uiso   1.00
C181   C     0.10187   0.56369   0.02543   0.00000  Uiso   1.00
C182   C     0.12222   0.53940   0.43511   0.00000  Uiso   1.00
C183   C     0.19958   0.52619   0.01365   0.00000  Uiso   1.00
C184   C     0.23012   0.50336   0.47521   0.00000  Uiso   1.00
C185   C     0.21272   0.51119   0.41981   0.00000  Uiso   1.00
C186   C     0.16276   0.53565   0.40203   0.00000  Uiso   1.00
C187   C     0.22799   0.52814   0.06900   0.00000  Uiso   1.00
C188   C     0.30232   0.47311   0.04883   0.00000  Uiso   1.00
H189   H     0.00671   0.45111   0.06248   0.00000  Uiso   1.00
H190   H     0.08953   0.36002   0.16677   0.00000  Uiso   1.00
H191   H     0.10862   0.49294   0.10595   0.00000  Uiso   1.00
H192   H     0.10321   0.65829   0.41254   0.00000  Uiso   1.00
H193   H     0.27225   0.66369   0.22714   0.00000  Uiso   1.00
H194   H     0.17699   0.54935   0.28079   0.00000  Uiso   1.00
H195   H     0.23812   0.49947   0.39046   0.00000  Uiso   1.00
H196   H     0.30185   0.45779   0.46322   0.00000  Uiso   1.00
H197   H     0.21586   0.55325   0.09951   0.00000  Uiso   1.00
H198   H     0.31426   0.56371   0.42173   0.00000  Uiso   1.00
H199   H     0.01478   0.58993   0.01837   0.00000  Uiso   1.00
H200   H     0.15440   0.54871   0.36114   0.00000  Uiso   1.00
N201   N     0.14493   0.48556   0.23542   0.00000  Uiso   1.00
N202   N     0.18840   0.51444   0.26457   0.00000  Uiso   1.00
O203   O     0.29769   0.57963   0.25357   0.00000  Uiso   1.00
O204   O     0.17261   0.38793   0.25148   0.00000  Uiso   1.00
O205   O     0.08776   0.39868   0.16784   0.00000  Uiso   1.00
O206   O     0.15924   0.62071   0.11893   0.00000  Uiso   1.00
O207   O     0.05897   0.59221   0.11512   0.00000  Uiso   1.00
O208   O     0.13353   0.52198   0.12949   0.00000  Uiso   1.00
O209   O     0.13778   0.64262   0.31803   0.00000  Uiso   1.00
O210   O     0.10285   0.39598   0.33429   0.00000  Uiso   1.00
O211   O     0.06708   0.65322   0.38301   0.00000  Uiso   1.00
O212   O     0.05742   0.57038   0.24423   0.00000  Uiso   1.00
O213   O     0.31490   0.50691   0.33380   0.00000  Uiso   1.00
O214   O     0.07463   0.49766   0.32446   0.00000  Uiso   1.00
O215   O     0.27592   0.42962   0.25576   0.00000  Uiso   1.00
O216   O     0.03565   0.42037   0.24642   0.00000  Uiso   1.00
O217   O     0.25870   0.50234   0.17554   0.00000  Uiso   1.00
O218   O     0.01843   0.49309   0.16620   0.00000  Uiso   1.00
O219   O     0.19285   0.42303   0.16782   0.00000  Uiso   1.00
S220   S     0.15255   0.42329   0.20629   0.00000  Uiso   1.00
S221   S     0.11343   0.57649   0.09869   0.00000  Uiso   1.00
S222   S     0.08608   0.33816   0.32563   0.00000  Uiso   1.00
Zn223  Zn    0.27119   0.50618   0.25623   0.00000  Uiso   1.00
Zn224  Zn    0.06214   0.49382   0.24376   0.00000  Uiso   1.00
C225   C     0.34876   0.59825   0.25245   0.00000  Uiso   1.00
C226   C     0.39553   0.53653   0.41071   0.00000  Uiso   1.00
C227   C     0.35949   0.65269   0.26827   0.00000  Uiso   1.00
C228   C     0.37135   0.51241   0.35356   0.00000  Uiso   1.00
C229   C     0.64683   0.34767   0.25243   0.00000  Uiso   1.00
C230   C     0.65359   0.40233   0.25429   0.00000  Uiso   1.00
C231   C     0.63021   0.49732   0.14561   0.00000  Uiso   1.00
C232   C     0.61334   0.47618   0.49281   0.00000  Uiso   1.00
C233   C     0.60966   0.49961   0.08673   0.00000  Uiso   1.00
C234   C     0.35877   0.55809   0.44116   0.00000  Uiso   1.00
C235   C     0.37891   0.57336   0.49694   0.00000  Uiso   1.00
C236   C     0.47570   0.54430   0.49372   0.00000  Uiso   1.00
C237   C     0.43520   0.56369   0.02543   0.00000  Uiso   1.00
C238   C     0.45555   0.53940   0.43511   0.00000  Uiso   1.00
C239   C     0.53291   0.52619   0.01365   0.00000  Uiso   1.00
C240   C     0.56345   0.50336   0.47521   0.00000  Uiso   1.00
C241   C     0.54605   0.51119   0.41981   0.00000  Uiso   1.00
C242   C     0.49609   0.53565   0.40203   0.00000  Uiso   1.00
C243   C     0.56133   0.52814   0.06900   0.00000  Uiso   1.00
C244   C     0.63565   0.47311   0.04883   0.00000  Uiso   1.00
H245   H     0.34004   0.45111   0.06248   0.00000  Uiso   1.00
H246   H     0.42286   0.36002   0.16677   0.00000  Uiso   1.00
H247   H     0.44195   0.49294   0.10595   0.00000  Uiso   1.00
H248   H     0.43654   0.65829   0.41254   0.00000  Uiso   1.00
H249   H     0.60559   0.66369   0.22714   0.00000  Uiso   1.00
H250   H     0.51032   0.54935   0.28079   0.00000  Uiso   1.00
H251   H     0.57146   0.49947   0.39046   0.00000  Uiso   1.00
H252   H     0.63518   0.45779   0.46322   0.00000  Uiso   1.00
H253   H     0.54920   0.55325   0.09951   0.00000  Uiso   1.00
H254   H     0.64759   0.56371   0.42173   0.00000  Uiso   1.00
H255   H     0.34811   0.58993   0.01837   0.00000  Uiso   1.00
H256   H     0.48774   0.54871   0.36114   0.00000  Uiso   1.00
N257   N     0.47827   0.48556   0.23542   0.00000  Uiso   1.00
N258   N     0.52173   0.51444   0.26457   0.00000  Uiso   1.00
O259   O     0.63102   0.57963   0.25357   0.00000  Uiso   1.00
O260   O     0.50595   0.38793   0.25148   0.00000  Uiso   1.00
O261   O     0.42109   0.39868   0.16784   0.00000  Uiso   1.00
O262   O     0.49257   0.62071   0.11893   0.00000  Uiso   1.00
O263   O     0.39231   0.59221   0.11512   0.00000  Uiso   1.00
O264   O     0.46687   0.52198   0.12949   0.00000  Uiso   1.00
O265   O     0.47111   0.64262   0.31803   0.00000  Uiso   1.00
O266   O     0.43618   0.39598   0.33429   0.00000  Uiso   1.00
O267   O     0.40041   0.65322   0.38301   0.00000  Uiso   1.00
O268   O     0.39075   0.57038   0.24423   0.00000  Uiso   1.00
O269   O     0.64823   0.50691   0.33380   0.00000  Uiso   1.00
O270   O     0.40796   0.49766   0.32446   0.00000  Uiso   1.00
O271   O     0.60925   0.42962   0.25576   0.00000  Uiso   1.00
O272   O     0.36898   0.42037   0.24642   0.00000  Uiso   1.00
O273   O     0.59204   0.50234   0.17554   0.00000  Uiso   1.00
O274   O     0.35177   0.49309   0.16620   0.00000  Uiso   1.00
O275   O     0.52619   0.42303   0.16782   0.00000  Uiso   1.00
S276   S     0.48588   0.42329   0.20629   0.00000  Uiso   1.00
S277   S     0.44676   0.57649   0.09869   0.00000  Uiso   1.00
S278   S     0.41941   0.33816   0.32563   0.00000  Uiso   1.00
Zn279  Zn    0.60453   0.50618   0.25623   0.00000  Uiso   1.00
Zn280  Zn    0.39547   0.49382   0.24376   0.00000  Uiso   1.00
C281   C     0.68210   0.59825   0.25245   0.00000  Uiso   1.00
C282   C     0.72886   0.53653   0.41071   0.00000  Uiso   1.00
C283   C     0.69283   0.65269   0.26827   0.00000  Uiso   1.00
C284   C     0.70468   0.51241   0.35356   0.00000  Uiso   1.00
C285   C     0.98016   0.34767   0.25243   0.00000  Uiso   1.00
C286   C     0.98692   0.40233   0.25429   0.00000  Uiso   1.00
C287   C     0.96355   0.49732   0.14561   0.00000  Uiso   1.00
C288   C     0.94667   0.47618   0.49281   0.00000  Uiso   1.00
C289   C     0.94300   0.49961   0.08673   0.00000  Uiso   1.00
C290   C     0.69210   0.55809   0.44116   0.00000  Uiso   1.00
C291   C     0.71224   0.57336   0.49694   0.00000  Uiso   1.00
C292   C     0.80903   0.54430   0.49372   0.00000  Uiso   1.00
C293   C     0.76854   0.56369   0.02543   0.00000  Uiso   1.00
C294   C     0.78889   0.53940   0.43511   0.00000  Uiso   1.00
C295   C     0.86624   0.52619   0.01365   0.00000  Uiso   1.00
C296   C     0.89678   0.50336   0.47521   0.00000  Uiso   1.00
C297   C     0.87939   0.51119   0.41981   0.00000  Uiso   1.00
C298   C     0.82942   0.53565   0.40203   0.00000  Uiso   1.00
C299   C     0.89466   0.52814   0.06900   0.00000  Uiso   1.00
C300   C     0.96899   0.47311   0.04883   0.00000  Uiso   1.00
H301   H     0.67338   0.45111   0.06248   0.00000  Uiso   1.00
H302   H     0.75619   0.36002   0.16677   0.00000  Uiso   1.00
H303   H     0.77528   0.49294   0.10595   0.00000  Uiso   1.00
H304   H     0.76987   0.65829   0.41254   0.00000  Uiso   1.00
H305   H     0.93892   0.66369   0.22714   0.00000  Uiso   1.00
H306   H     0.84366   0.54935   0.28079   0.00000  Uiso   1.00
H307   H     0.90479   0.49947   0.39046   0.00000  Uiso   1.00
H308   H     0.96852   0.45779   0.46322   0.00000  Uiso   1.00
H309   H     0.88253   0.55325   0.09951   0.00000  Uiso   1.00
H310   H     0.98093   0.56371   0.42173   0.00000  Uiso   1.00
H311   H     0.68145   0.58993   0.01837   0.00000  Uiso   1.00
H312   H     0.82107   0.54871   0.36114   0.00000  Uiso   1.00
N313   N     0.81160   0.48556   0.23542   0.00000  Uiso   1.00
N314   N     0.85507   0.51444   0.26457   0.00000  Uiso   1.00
O315   O     0.96435   0.57963   0.25357   0.00000  Uiso   1.00
O316   O     0.83928   0.38793   0.25148   0.00000  Uiso   1.00
O317   O     0.75442   0.39868   0.16784   0.00000  Uiso   1.00
O318   O     0.82590   0.62071   0.11893   0.00000  Uiso   1.00
O319   O     0.72564   0.59221   0.11512   0.00000  Uiso   1.00
O320   O     0.80020   0.52198   0.12949   0.00000  Uiso   1.00
O321   O     0.80444   0.64262   0.31803   0.00000  Uiso   1.00
O322   O     0.76952   0.39598   0.33429   0.00000  Uiso   1.00
O323   O     0.73374   0.65322   0.38301   0.00000  Uiso   1.00
O324   O     0.72408   0.57038   0.24423   0.00000  Uiso   1.00
O325   O     0.98157   0.50691   0.33380   0.00000  Uiso   1.00
O326   O     0.74130   0.49766   0.32446   0.00000  Uiso   1.00
O327   O     0.94258   0.42962   0.25576   0.00000  Uiso   1.00
O328   O     0.70231   0.42037   0.24642   0.00000  Uiso   1.00
O329   O     0.92537   0.50234   0.17554   0.00000  Uiso   1.00
O330   O     0.68510   0.49309   0.16620   0.00000  Uiso   1.00
O331   O     0.85952   0.42303   0.16782   0.00000  Uiso   1.00
S332   S     0.81922   0.42329   0.20629   0.00000  Uiso   1.00
S333   S     0.78009   0.57649   0.09869   0.00000  Uiso   1.00
S334   S     0.75274   0.33816   0.32563   0.00000  Uiso   1.00
Zn335  Zn    0.93786   0.50618   0.25623   0.00000  Uiso   1.00
Zn336  Zn    0.72881   0.49382   0.24376   0.00000  Uiso   1.00
C337   C     0.01543   0.93159   0.25245   0.00000  Uiso   1.00
C338   C     0.06219   0.86987   0.41071   0.00000  Uiso   1.00
C339   C     0.02616   0.98603   0.26827   0.00000  Uiso   1.00
C340   C     0.03802   0.84574   0.35356   0.00000  Uiso   1.00
C341   C     0.31350   0.68100   0.25243   0.00000  Uiso   1.00
C342   C     0.32025   0.73566   0.25429   0.00000  Uiso   1.00
C343   C     0.29688   0.83066   0.14561   0.00000  Uiso   1.00
C344   C     0.28001   0.80952   0.49281   0.00000  Uiso   1.00
C345   C     0.27633   0.83295   0.08673   0.00000  Uiso   1.00
C346   C     0.02543   0.89142   0.44116   0.00000  Uiso   1.00
C347   C     0.04558   0.90669   0.49694   0.00000  Uiso   1.00
C348   C     0.14237   0.87764   0.49372   0.00000  Uiso   1.00
C349   C     0.10187   0.89702   0.02543   0.00000  Uiso   1.00
C350   C     0.12222   0.87273   0.43511   0.00000  Uiso   1.00
C351   C     0.19958   0.85952   0.01365   0.00000  Uiso   1.00
C352   C     0.23012   0.83669   0.47521   0.00000  Uiso   1.00
C353   C     0.21272   0.84453   0.41981   0.00000  Uiso   1.00
C354   C     0.16276   0.86899   0.40203   0.00000  Uiso   1.00
C355   C     0.22799   0.86147   0.06900   0.00000  Uiso   1.00
C356   C     0.30232   0.80644   0.04883   0.00000  Uiso   1.00
H357   H     0.00671   0.78444   0.06248   0.00000  Uiso   1.00
H358   H     0.08953   0.69336   0.16677   0.00000  Uiso   1.00
H359   H     0.10862   0.82628   0.10595   0.00000  Uiso   1.00
H360   H     0.10321   0.99162   0.41254   0.00000  Uiso   1.00
H361   H     0.27225   0.99702   0.22714   0.00000  Uiso   1.00
H362   H     0.17699   0.88269   0.28079   0.00000  Uiso   1.00
H363   H     0.23812   0.83281   0.39046   0.00000  Uiso   1.00
H364   H     0.30185   0.79112   0.46322   0.00000  Uiso   1.00
H365   H     0.21586   0.88658   0.09951   0.00000  Uiso   1.00
H366   H     0.31426   0.89704   0.42173   0.00000  Uiso   1.00
H367   H     0.01478   0.92327   0.01837   0.00000  Uiso   1.00
H368   H     0.15440   0.88205   0.36114   0.00000  Uiso   1.00
N369   N     0.14493   0.81890   0.23542   0.00000  Uiso   1.00
N370   N     0.18840   0.84777   0.26457   0.00000  Uiso   1.00
O371   O     0.29769   0.91296   0.25357   0.00000  Uiso   1.00
O372   O     0.17261   0.72126   0.25148   0.00000  Uiso   1.00
O373   O     0.08776   0.73201   0.16784   0.00000  Uiso   1.00
O374   O     0.15924   0.95404   0.11893   0.00000  Uiso   1.00
O375   O     0.05897   0.92554   0.11512   0.00000  Uiso   1.00
O376   O     0.13353   0.85532   0.12949   0.00000  Uiso   1.00
O377   O     0.13778   0.97595   0.31803   0.00000  Uiso   1.00
O378   O     0.10285   0.72931   0.33429   0.00000  Uiso   1.00
O379   O     0.06708   0.98655   0.38301   0.00000  Uiso   1.00
O380   O     0.05742   0.90371   0.24423   0.00000  Uiso   1.00
O381   O     0.31490   0.84024   0.33380   0.00000  Uiso   1.00
O382   O     0.07463   0.83099   0.32446   0.00000  Uiso   1.00
O383   O     0.27592   0.76296   0.25576   0.00000  Uiso   1.00
O384   O     0.03565   0.75371   0.24642   0.00000  Uiso   1.00
O385   O     0.25870   0.83567   0.17554   0.00000  Uiso   1.00
O386   O     0.01843   0.82642   0.16620   0.00000  Uiso   1.00
O387   O     0.19285   0.75636   0.16782   0.00000  Uiso   1.00
S388   S     0.15255   0.75662   0.20629   0.00000  Uiso   1.00
S389   S     0.11343   0.90982   0.09869   0.00000  Uiso   1.00
S390   S     0.08608   0.67149   0.32563   0.00000  Uiso   1.00
Zn391  Zn    0.27119   0.83951   0.25623   0.00000  Uiso   1.00
Zn392  Zn    0.06214   0.82716   0.24376   0.00000  Uiso   1.00
C393   C     0.34876   0.93159   0.25245   0.00000  Uiso   1.00
C394   C     0.39553   0.86987   0.41071   0.00000  Uiso   1.00
C395   C     0.35949   0.98603   0.26827   0.00000  Uiso   1.00
C396   C     0.37135   0.84574   0.35356   0.00000  Uiso   1.00
C397   C     0.64683   0.68100   0.25243   0.00000  Uiso   1.00
C398   C     0.65359   0.73566   0.25429   0.00000  Uiso   1.00
C399   C     0.63021   0.83066   0.14561   0.00000  Uiso   1.00
C400   C     0.61334   0.80952   0.49281   0.00000  Uiso   1.00
C401   C     0.60966   0.83295   0.08673   0.00000  Uiso   1.00
C402   C     0.35877   0.89142   0.44116   0.00000  Uiso   1.00
C403   C     0.37891   0.90669   0.49694   0.00000  Uiso   1.00
C404   C     0.47570   0.87764   0.49372   0.00000  Uiso   1.00
C405   C     0.43520   0.89702   0.02543   0.00000  Uiso   1.00
C406   C     0.45555   0.87273   0.43511   0.00000  Uiso   1.00
C407   C     0.53291   0.85952   0.01365   0.00000  Uiso   1.00
C408   C     0.56345   0.83669   0.47521   0.00000  Uiso   1.00
C409   C     0.54605   0.84453   0.41981   0.00000  Uiso   1.00
C410   C     0.49609   0.86899   0.40203   0.00000  Uiso   1.00
C411   C     0.56133   0.86147   0.06900   0.00000  Uiso   1.00
C412   C     0.63565   0.80644   0.04883   0.00000  Uiso   1.00
H413   H     0.34004   0.78444   0.06248   0.00000  Uiso   1.00
H414   H     0.42286   0.69336   0.16677   0.00000  Uiso   1.00
H415   H     0.44195   0.82628   0.10595   0.00000  Uiso   1.00
H416   H     0.43654   0.99162   0.41254   0.00000  Uiso   1.00
H417   H     0.60559   0.99702   0.22714   0.00000  Uiso   1.00
H418   H     0.51032   0.88269   0.28079   0.00000  Uiso   1.00
H419   H     0.57146   0.83281   0.39046   0.00000  Uiso   1.00
H420   H     0.63518   0.79112   0.46322   0.00000  Uiso   1.00
H421   H     0.54920   0.88658   0.09951   0.00000  Uiso   1.00
H422   H     0.64759   0.89704   0.42173   0.00000  Uiso   1.00
H423   H     0.34811   0.92327   0.01837   0.00000  Uiso   1.00
H424   H     0.48774   0.88205   0.36114   0.00000  Uiso   1.00
N425   N     0.47827   0.81890   0.23542   0.00000  Uiso   1.00
N426   N     0.52173   0.84777   0.26457   0.00000  Uiso   1.00
O427   O     0.63102   0.91296   0.25357   0.00000  Uiso   1.00
O428   O     0.50595   0.72126   0.25148   0.00000  Uiso   1.00
O429   O     0.42109   0.73201   0.16784   0.00000  Uiso   1.00
O430   O     0.49257   0.95404   0.11893   0.00000  Uiso   1.00
O431   O     0.39231   0.92554   0.11512   0.00000  Uiso   1.00
O432   O     0.46687   0.85532   0.12949   0.00000  Uiso   1.00
O433   O     0.47111   0.97595   0.31803   0.00000  Uiso   1.00
O434   O     0.43618   0.72931   0.33429   0.00000  Uiso   1.00
O435   O     0.40041   0.98655   0.38301   0.00000  Uiso   1.00
O436   O     0.39075   0.90371   0.24423   0.00000  Uiso   1.00
O437   O     0.64823   0.84024   0.33380   0.00000  Uiso   1.00
O438   O     0.40796   0.83099   0.32446   0.00000  Uiso   1.00
O439   O     0.60925   0.76296   0.25576   0.00000  Uiso   1.00
O440   O     0.36898   0.75371   0.24642   0.00000  Uiso   1.00
O441   O     0.59204   0.83567   0.17554   0.00000  Uiso   1.00
O442   O     0.35177   0.82642   0.16620   0.00000  Uiso   1.00
O443   O     0.52619   0.75636   0.16782   0.00000  Uiso   1.00
S444   S     0.48588   0.75662   0.20629   0.00000  Uiso   1.00
S445   S     0.44676   0.90982   0.09869   0.00000  Uiso   1.00
S446   S     0.41941   0.67149   0.32563   0.00000  Uiso   1.00
Zn447  Zn    0.60453   0.83951   0.25623   0.00000  Uiso   1.00
Zn448  Zn    0.39547   0.82716   0.24376   0.00000  Uiso   1.00
C449   C     0.68210   0.93159   0.25245   0.00000  Uiso   1.00
C450   C     0.72886   0.86987   0.41071   0.00000  Uiso   1.00
C451   C     0.69283   0.98603   0.26827   0.00000  Uiso   1.00
C452   C     0.70468   0.84574   0.35356   0.00000  Uiso   1.00
C453   C     0.98016   0.68100   0.25243   0.00000  Uiso   1.00
C454   C     0.98692   0.73566   0.25429   0.00000  Uiso   1.00
C455   C     0.96355   0.83066   0.14561   0.00000  Uiso   1.00
C456   C     0.94667   0.80952   0.49281   0.00000  Uiso   1.00
C457   C     0.94300   0.83295   0.08673   0.00000  Uiso   1.00
C458   C     0.69210   0.89142   0.44116   0.00000  Uiso   1.00
C459   C     0.71224   0.90669   0.49694   0.00000  Uiso   1.00
C460   C     0.80903   0.87764   0.49372   0.00000  Uiso   1.00
C461   C     0.76854   0.89702   0.02543   0.00000  Uiso   1.00
C462   C     0.78889   0.87273   0.43511   0.00000  Uiso   1.00
C463   C     0.86624   0.85952   0.01365   0.00000  Uiso   1.00
C464   C     0.89678   0.83669   0.47521   0.00000  Uiso   1.00
C465   C     0.87939   0.84453   0.41981   0.00000  Uiso   1.00
C466   C     0.82942   0.86899   0.40203   0.00000  Uiso   1.00
C467   C     0.89466   0.86147   0.06900   0.00000  Uiso   1.00
C468   C     0.96899   0.80644   0.04883   0.00000  Uiso   1.00
H469   H     0.67338   0.78444   0.06248   0.00000  Uiso   1.00
H470   H     0.75619   0.69336   0.16677   0.00000  Uiso   1.00
H471   H     0.77528   0.82628   0.10595   0.00000  Uiso   1.00
H472   H     0.76987   0.99162   0.41254   0.00000  Uiso   1.00
H473   H     0.93892   0.99702   0.22714   0.00000  Uiso   1.00
H474   H     0.84366   0.88269   0.28079   0.00000  Uiso   1.00
H475   H     0.90479   0.83281   0.39046   0.00000  Uiso   1.00
H476   H     0.96852   0.79112   0.46322   0.00000  Uiso   1.00
H477   H     0.88253   0.88658   0.09951   0.00000  Uiso   1.00
H478   H     0.98093   0.89704   0.42173   0.00000  Uiso   1.00
H479   H     0.68145   0.92327   0.01837   0.00000  Uiso   1.00
H480   H     0.82107   0.88205   0.36114   0.00000  Uiso   1.00
N481   N     0.81160   0.81890   0.23542   0.00000  Uiso   1.00
N482   N     0.85507   0.84777   0.26457   0.00000  Uiso   1.00
O483   O     0.96435   0.91296   0.25357   0.00000  Uiso   1.00
O484   O     0.83928   0.72126   0.25148   0.00000  Uiso   1.00
O485   O     0.75442   0.73201   0.16784   0.00000  Uiso   1.00
O486   O     0.82590   0.95404   0.11893   0.00000  Uiso   1.00
O487   O     0.72564   0.92554   0.11512   0.00000  Uiso   1.00
O488   O     0.80020   0.85532   0.12949   0.00000  Uiso   1.00
O489   O     0.80444   0.97595   0.31803   0.00000  Uiso   1.00
O490   O     0.76952   0.72931   0.33429   0.00000  Uiso   1.00
O491   O     0.73374   0.98655   0.38301   0.00000  Uiso   1.00
O492   O     0.72408   0.90371   0.24423   0.00000  Uiso   1.00
O493   O     0.98157   0.84024   0.33380   0.00000  Uiso   1.00
O494   O     0.74130   0.83099   0.32446   0.00000  Uiso   1.00
O495   O     0.94258   0.76296   0.25576   0.00000  Uiso   1.00
O496   O     0.70231   0.75371   0.24642   0.00000  Uiso   1.00
O497   O     0.92537   0.83567   0.17554   0.00000  Uiso   1.00
O498   O     0.68510   0.82642   0.16620   0.00000  Uiso   1.00
O499   O     0.85952   0.75636   0.16782   0.00000  Uiso   1.00
S500   S     0.81922   0.75662   0.20629   0.00000  Uiso   1.00
S501   S     0.78009   0.90982   0.09869   0.00000  Uiso   1.00
S502   S     0.75274   0.67149   0.32563   0.00000  Uiso   1.00
Zn503  Zn    0.93786   0.83951   0.25623   0.00000  Uiso   1.00
Zn504  Zn    0.72881   0.82716   0.24376   0.00000  Uiso   1.00
C505   C     0.01543   0.26492   0.75245   0.00000  Uiso   1.00
C506   C     0.06219   0.20320   0.91071   0.00000  Uiso   1.00
C507   C     0.02616   0.31936   0.76827   0.00000  Uiso   1.00
C508   C     0.03802   0.17907   0.85356   0.00000  Uiso   1.00
C509   C     0.31350   0.01433   0.75243   0.00000  Uiso   1.00
C510   C     0.32025   0.06900   0.75429   0.00000  Uiso   1.00
C511   C     0.29688   0.16399   0.64561   0.00000  Uiso   1.00
C512   C     0.28001   0.14285   0.99281   0.00000  Uiso   1.00
C513   C     0.27633   0.16628   0.58673   0.00000  Uiso   1.00
C514   C     0.02543   0.22475   0.94116   0.00000  Uiso   1.00
C515   C     0.04558   0.24003   0.99694   0.00000  Uiso   1.00
C516   C     0.14237   0.21097   0.99372   0.00000  Uiso   1.00
C517   C     0.10187   0.23036   0.52543   0.00000  Uiso   1.00
C518   C     0.12222   0.20607   0.93511   0.00000  Uiso   1.00
C519   C     0.19958   0.19286   0.51365   0.00000  Uiso   1.00
C520   C     0.23012   0.17002   0.97521   0.00000  Uiso   1.00
C521   C     0.21272   0.17786   0.91981   0.00000  Uiso   1.00
C522   C     0.16276   0.20232   0.90203   0.00000  Uiso   1.00
C523   C     0.22799   0.19481   0.56900   0.00000  Uiso   1.00
C524   C     0.30232   0.13977   0.54883   0.00000  Uiso   1.00
H525   H     0.00671   0.11777   0.56248   0.00000  Uiso   1.00
H526   H     0.08953   0.02669   0.66677   0.00000  Uiso   1.00
H527   H     0.10862   0.15961   0.60595   0.00000  Uiso   1.00
H528   H     0.10321   0.32496   0.91254   0.00000  Uiso   1.00
H529   H     0.27225   0.33035   0.72714   0.00000  Uiso   1.00
H530   H     0.17699   0.21602   0.78079   0.00000  Uiso   1.00
H531   H     0.23812   0.16614   0.89046   0.00000  Uiso   1.00
H532   H     0.30185   0.12445   0.96322   0.00000  Uiso   1.00
H533   H     0.21586   0.21991   0.59951   0.00000  Uiso   1.00
H534   H     0.31426   0.23038   0.92173   0.00000  Uiso   1.00
H535   H     0.01478   0.25660   0.51837   0.00000  Uiso   1.00
H536   H     0.15440   0.21538   0.86114   0.00000  Uiso   1.00
N537   N     0.14493   0.15223   0.73542   0.00000  Uiso   1.00
N538   N     0.18840   0.18110   0.76457   0.00000  Uiso   1.00
O539   O     0.29769   0.24629   0.75357   0.00000  Uiso   1.00
O540   O     0.17261   0.05459   0.75148   0.00000  Uiso   1.00
O541   O     0.08776   0.06535   0.66784   0.00000  Uiso   1.00
O542   O     0.15924   0.28738   0.61893   0.00000  Uiso   1.00
O543   O     0.05897   0.25887   0.61512   0.00000  Uiso   1.00
O544   O     0.13353   0.18865   0.62949   0.00000  Uiso   1.00
O545   O     0.13778   0.30928   0.81803   0.00000  Uiso   1.00
O546   O     0.10285   0.06264   0.83429   0.00000  Uiso   1.00
O547   O     0.06708   0.31988   0.88301   0.00000  Uiso   1.00
O548   O     0.05742   0.23704   0.74423   0.00000  Uiso   1.00
O549   O     0.31490   0.17358   0.83380   0.00000  Uiso   1.00
O550   O     0.07463   0.16433   0.82446   0.00000  Uiso   1.00
O551   O     0.27592   0.09629   0.75576   0.00000  Uiso   1.00
O552   O     0.03565   0.08704   0.74642   0.00000  Uiso   1.00
O553   O     0.25870   0.16901   0.67554   0.00000  Uiso   1.00
O554   O     0.01843   0.15976   0.66620   0.00000  Uiso   1.00
O555   O     0.19285   0.08970   0.66782   0.00000  Uiso   1.00
S556   S     0.15255   0.08995   0.70629   0.00000  Uiso   1.00
S557   S     0.11343   0.24316   0.59869   0.00000  Uiso   1.00
S558   S     0.08608   0.00482   0.82563   0.00000  Uiso   1.00
Zn559  Zn    0.27119   0.17284   0.75623   0.00000  Uiso   1.00
Zn560  Zn    0.06214   0.16049   0.74376   0.00000  Uiso   1.00
C561   C     0.34876   0.26492   0.75245   0.00000  Uiso   1.00
C562   C     0.39553   0.20320   0.91071   0.00000  Uiso   1.00
C563   C     0.35949   0.31936   0.76827   0.00000  Uiso   1.00
C564   C     0.37135   0.17907   0.85356   0.00000  Uiso   1.00
C565   C     0.64683   0.01433   0.75243   0.00000  Uiso   1.00
C566   C     0.65359   0.06900   0.75429   0.00000  Uiso   1.00
C567   C     0.63021   0.16399   0.64561   0.00000  Uiso   1.00
C568   C     0.61334   0.14285   0.99281   0.00000  Uiso   1.00
C569   C     0.60966   0.16628   0.58673   0.00000  Uiso   1.00
C570   C     0.35877   0.22475   0.94116   0.00000  Uiso   1.00
C571   C     0.37891   0.24003   0.99694   0.00000  Uiso   1.00
C572   C     0.47570   0.21097   0.99372   0.00000  Uiso   1.00
C573   C     0.43520   0.23036   0.52543   0.00000  Uiso   1.00
C574   C     0.45555   0.20607   0.93511   0.00000  Uiso   1.00
C575   C     0.53291   0.19286   0.51365   0.00000  Uiso   1.00
C576   C     0.56345   0.17002   0.97521   0.00000  Uiso   1.00
C577   C     0.54605   0.17786   0.91981   0.00000  Uiso   1.00
C578   C     0.49609   0.20232   0.90203   0.00000  Uiso   1.00
C579   C     0.56133   0.19481   0.56900   0.00000  Uiso   1.00
C580   C     0.63565   0.13977   0.54883   0.00000  Uiso   1.00
H581   H     0.34004   0.11777   0.56248   0.00000  Uiso   1.00
H582   H     0.42286   0.02669   0.66677   0.00000  Uiso   1.00
H583   H     0.44195   0.15961   0.60595   0.00000  Uiso   1.00
H584   H     0.43654   0.32496   0.91254   0.00000  Uiso   1.00
H585   H     0.60559   0.33035   0.72714   0.00000  Uiso   1.00
H586   H     0.51032   0.21602   0.78079   0.00000  Uiso   1.00
H587   H     0.57146   0.16614   0.89046   0.00000  Uiso   1.00
H588   H     0.63518   0.12445   0.96322   0.00000  Uiso   1.00
H589   H     0.54920   0.21991   0.59951   0.00000  Uiso   1.00
H590   H     0.64759   0.23038   0.92173   0.00000  Uiso   1.00
H591   H     0.34811   0.25660   0.51837   0.00000  Uiso   1.00
H592   H     0.48774   0.21538   0.86114   0.00000  Uiso   1.00
N593   N     0.47827   0.15223   0.73542   0.00000  Uiso   1.00
N594   N     0.52173   0.18110   0.76457   0.00000  Uiso   1.00
O595   O     0.63102   0.24629   0.75357   0.00000  Uiso   1.00
O596   O     0.50595   0.05459   0.75148   0.00000  Uiso   1.00
O597   O     0.42109   0.06535   0.66784   0.00000  Uiso   1.00
O598   O     0.49257   0.28738   0.61893   0.00000  Uiso   1.00
O599   O     0.39231   0.25887   0.61512   0.00000  Uiso   1.00
O600   O     0.46687   0.18865   0.62949   0.00000  Uiso   1.00
O601   O     0.47111   0.30928   0.81803   0.00000  Uiso   1.00
O602   O     0.43618   0.06264   0.83429   0.00000  Uiso   1.00
O603   O     0.40041   0.31988   0.88301   0.00000  Uiso   1.00
O604   O     0.39075   0.23704   0.74423   0.00000  Uiso   1.00
O605   O     0.64823   0.17358   0.83380   0.00000  Uiso   1.00
O606   O     0.40796   0.16433   0.82446   0.00000  Uiso   1.00
O607   O     0.60925   0.09629   0.75576   0.00000  Uiso   1.00
O608   O     0.36898   0.08704   0.74642   0.00000  Uiso   1.00
O609   O     0.59204   0.16901   0.67554   0.00000  Uiso   1.00
O610   O     0.35177   0.15976   0.66620   0.00000  Uiso   1.00
O611   O     0.52619   0.08970   0.66782   0.00000  Uiso   1.00
S612   S     0.48588   0.08995   0.70629   0.00000  Uiso   1.00
S613   S     0.44676   0.24316   0.59869   0.00000  Uiso   1.00
S614   S     0.41941   0.00482   0.82563   0.00000  Uiso   1.00
Zn615  Zn    0.60453   0.17284   0.75623   0.00000  Uiso   1.00
Zn616  Zn    0.39547   0.16049   0.74376   0.00000  Uiso   1.00
C617   C     0.68210   0.26492   0.75245   0.00000  Uiso   1.00
C618   C     0.72886   0.20320   0.91071   0.00000  Uiso   1.00
C619   C     0.69283   0.31936   0.76827   0.00000  Uiso   1.00
C620   C     0.70468   0.17907   0.85356   0.00000  Uiso   1.00
C621   C     0.98016   0.01433   0.75243   0.00000  Uiso   1.00
C622   C     0.98692   0.06900   0.75429   0.00000  Uiso   1.00
C623   C     0.96355   0.16399   0.64561   0.00000  Uiso   1.00
C624   C     0.94667   0.14285   0.99281   0.00000  Uiso   1.00
C625   C     0.94300   0.16628   0.58673   0.00000  Uiso   1.00
C626   C     0.69210   0.22475   0.94116   0.00000  Uiso   1.00
C627   C     0.71224   0.24003   0.99694   0.00000  Uiso   1.00
C628   C     0.80903   0.21097   0.99372   0.00000  Uiso   1.00
C629   C     0.76854   0.23036   0.52543   0.00000  Uiso   1.00
C630   C     0.78889   0.20607   0.93511   0.00000  Uiso   1.00
C631   C     0.86624   0.19286   0.51365   0.00000  Uiso   1.00
C632   C     0.89678   0.17002   0.97521   0.00000  Uiso   1.00
C633   C     0.87939   0.17786   0.91981   0.00000  Uiso   1.00
C634   C     0.82942   0.20232   0.90203   0.00000  Uiso   1.00
C635   C     0.89466   0.19481   0.56900   0.00000  Uiso   1.00
C636   C     0.96899   0.13977   0.54883   0.00000  Uiso   1.00
H637   H     0.67338   0.11777   0.56248   0.00000  Uiso   1.00
H638   H     0.75619   0.02669   0.66677   0.00000  Uiso   1.00
H639   H     0.77528   0.15961   0.60595   0.00000  Uiso   1.00
H640   H     0.76987   0.32496   0.91254   0.00000  Uiso   1.00
H641   H     0.93892   0.33035   0.72714   0.00000  Uiso   1.00
H642   H     0.84366   0.21602   0.78079   0.00000  Uiso   1.00
H643   H     0.90479   0.16614   0.89046   0.00000  Uiso   1.00
H644   H     0.96852   0.12445   0.96322   0.00000  Uiso   1.00
H645   H     0.88253   0.21991   0.59951   0.00000  Uiso   1.00
H646   H     0.98093   0.23038   0.92173   0.00000  Uiso   1.00
H647   H     0.68145   0.25660   0.51837   0.00000  Uiso   1.00
H648   H     0.82107   0.21538   0.86114   0.00000  Uiso   1.00
N649   N     0.81160   0.15223   0.73542   0.00000  Uiso   1.00
N650   N     0.85507   0.18110   0.76457   0.00000  Uiso   1.00
O651   O     0.96435   0.24629   0.75357   0.00000  Uiso   1.00
O652   O     0.83928   0.05459   0.75148   0.00000  Uiso   1.00
O653   O     0.75442   0.06535   0.66784   0.00000  Uiso   1.00
O654   O     0.82590   0.28738   0.61893   0.00000  Uiso   1.00
O655   O     0.72564   0.25887   0.61512   0.00000  Uiso   1.00
O656   O     0.80020   0.18865   0.62949   0.00000  Uiso   1.00
O657   O     0.80444   0.30928   0.81803   0.00000  Uiso   1.00
O658   O     0.76952   0.06264   0.83429   0.00000  Uiso   1.00
O659   O     0.73374   0.31988   0.88301   0.00000  Uiso   1.00
O660   O     0.72408   0.23704   0.74423   0.00000  Uiso   1.00
O661   O     0.98157   0.17358   0.83380   0.00000  Uiso   1.00
O662   O     0.74130   0.16433   0.82446   0.00000  Uiso   1.00
O663   O     0.94258   0.09629   0.75576   0.00000  Uiso   1.00
O664   O     0.70231   0.08704   0.74642   0.00000  Uiso   1.00
O665   O     0.92537   0.16901   0.67554   0.00000  Uiso   1.00
O666   O     0.68510   0.15976   0.66620   0.00000  Uiso   1.00
O667   O     0.85952   0.08970   0.66782   0.00000  Uiso   1.00
S668   S     0.81922   0.08995   0.70629   0.00000  Uiso   1.00
S669   S     0.78009   0.24316   0.59869   0.00000  Uiso   1.00
S670   S     0.75274   0.00482   0.82563   0.00000  Uiso   1.00
Zn671  Zn    0.93786   0.17284   0.75623   0.00000  Uiso   1.00
Zn672  Zn    0.72881   0.16049   0.74376   0.00000  Uiso   1.00
C673   C     0.01543   0.59825   0.75245   0.00000  Uiso   1.00
C674   C     0.06219   0.53653   0.91071   0.00000  Uiso   1.00
C675   C     0.02616   0.65269   0.76827   0.00000  Uiso   1.00
C676   C     0.03802   0.51241   0.85356   0.00000  Uiso   1.00
C677   C     0.31350   0.34767   0.75243   0.00000  Uiso   1.00
C678   C     0.32025   0.40233   0.75429   0.00000  Uiso   1.00
C679   C     0.29688   0.49732   0.64561   0.00000  Uiso   1.00
C680   C     0.28001   0.47618   0.99281   0.00000  Uiso   1.00
C681   C     0.27633   0.49961   0.58673   0.00000  Uiso   1.00
C682   C     0.02543   0.55809   0.94116   0.00000  Uiso   1.00
C683   C     0.04558   0.57336   0.99694   0.00000  Uiso   1.00
C684   C     0.14237   0.54430   0.99372   0.00000  Uiso   1.00
C685   C     0.10187   0.56369   0.52543   0.00000  Uiso   1.00
C686   C     0.12222   0.53940   0.93511   0.00000  Uiso   1.00
C687   C     0.19958   0.52619   0.51365   0.00000  Uiso   1.00
C688   C     0.23012   0.50336   0.97521   0.00000  Uiso   1.00
C689   C     0.21272   0.51119   0.91981   0.00000  Uiso   1.00
C690   C     0.16276   0.53565   0.90203   0.00000  Uiso   1.00
C691   C     0.22799   0.52814   0.56900   0.00000  Uiso   1.00
C692   C     0.30232   0.47311   0.54883   0.00000  Uiso   1.00
H693   H     0.00671   0.45111   0.56248   0.00000  Uiso   1.00
H694   H     0.08953   0.36002   0.66677   0.00000  Uiso   1.00
H695   H     0.10862   0.49294   0.60595   0.00000  Uiso   1.00
H696   H     0.10321   0.65829   0.91254   0.00000  Uiso   1.00
H697   H     0.27225   0.66369   0.72714   0.00000  Uiso   1.00
H698   H     0.17699   0.54935   0.78079   0.00000  Uiso   1.00
H699   H     0.23812   0.49947   0.89046   0.00000  Uiso   1.00
H700   H     0.30185   0.45779   0.96322   0.00000  Uiso   1.00
H701   H     0.21586   0.55325   0.59951   0.00000  Uiso   1.00
H702   H     0.31426   0.56371   0.92173   0.00000  Uiso   1.00
H703   H     0.01478   0.58993   0.51837   0.00000  Uiso   1.00
H704   H     0.15440   0.54871   0.86114   0.00000  Uiso   1.00
N705   N     0.14493   0.48556   0.73542   0.00000  Uiso   1.00
N706   N     0.18840   0.51444   0.76457   0.00000  Uiso   1.00
O707   O     0.29769   0.57963   0.75357   0.00000  Uiso   1.00
O708   O     0.17261   0.38793   0.75148   0.00000  Uiso   1.00
O709   O     0.08776   0.39868   0.66784   0.00000  Uiso   1.00
O710   O     0.15924   0.62071   0.61893   0.00000  Uiso   1.00
O711   O     0.05897   0.59221   0.61512   0.00000  Uiso   1.00
O712   O     0.13353   0.52198   0.62949   0.00000  Uiso   1.00
O713   O     0.13778   0.64262   0.81803   0.00000  Uiso   1.00
O714   O     0.10285   0.39598   0.83429   0.00000  Uiso   1.00
O715   O     0.06708   0.65322   0.88301   0.00000  Uiso   1.00
O716   O     0.05742   0.57038   0.74423   0.00000  Uiso   1.00
O717   O     0.31490   0.50691   0.83380   0.00000  Uiso   1.00
O718   O     0.07463   0.49766   0.82446   0.00000  Uiso   1.00
O719   O     0.27592   0.42962   0.75576   0.00000  Uiso   1.00
O720   O     0.03565   0.42037   0.74642   0.00000  Uiso   1.00
O721   O     0.25870   0.50234   0.67554   0.00000  Uiso   1.00
O722   O     0.01843   0.49309   0.66620   0.00000  Uiso   1.00
O723   O     0.19285   0.42303   0.66782   0.00000  Uiso   1.00
S724   S     0.15255   0.42329   0.70629   0.00000  Uiso   1.00
S725   S     0.11343   0.57649   0.59869   0.00000  Uiso   1.00
S726   S     0.08608   0.33816   0.82563   0.00000  Uiso   1.00
Zn727  Zn    0.27119   0.50618   0.75623   0.00000  Uiso   1.00
Zn728  Zn    0.06214   0.49382   0.74376   0.00000  Uiso   1.00
C729   C     0.34876   0.59825   0.75245   0.00000  Uiso   1.00
C730   C     0.39553   0.53653   0.91071   0.00000  Uiso   1.00
C731   C     0.35949   0.65269   0.76827   0.00000  Uiso   1.00
C732   C     0.37135   0.51241   0.85356   0.00000  Uiso   1.00
C733   C     0.64683   0.34767   0.75243   0.00000  Uiso   1.00
C734   C     0.65359   0.40233   0.75429   0.00000  Uiso   1.00
C735   C     0.63021   0.49732   0.64561   0.00000  Uiso   1.00
C736   C     0.61334   0.47618   0.99281   0.00000  Uiso   1.00
C737   C     0.60966   0.49961   0.58673   0.00000  Uiso   1.00
C738   C     0.35877   0.55809   0.94116   0.00000  Uiso   1.00
C739   C     0.37891   0.57336   0.99694   0.00000  Uiso   1.00
C740   C     0.47570   0.54430   0.99372   0.00000  Uiso   1.00
C741   C     0.43520   0.56369   0.52543   0.00000  Uiso   1.00
C742   C     0.45555   0.53940   0.93511   0.00000  Uiso   1.00
C743   C     0.53291   0.52619   0.51365   0.00000  Uiso   1.00
C744   C     0.56345   0.50336   0.97521   0.00000  Uiso   1.00
C745   C     0.54605   0.51119   0.91981   0.00000  Uiso   1.00
C746   C     0.49609   0.53565   0.90203   0.00000  Uiso   1.00
C747   C     0.56133   0.52814   0.56900   0.00000  Uiso   1.00
C748   C     0.63565   0.47311   0.54883   0.00000  Uiso   1.00
H749   H     0.34004   0.45111   0.56248   0.00000  Uiso   1.00
H750   H     0.42286   0.36002   0.66677   0.00000  Uiso   1.00
H751   H     0.44195   0.49294   0.60595   0.00000  Uiso   1.00
H752   H     0.43654   0.65829   0.91254   0.00000  Uiso   1.00
H753   H     0.60559   0.66369   0.72714   0.00000  Uiso   1.00
H754   H     0.51032   0.54935   0.78079   0.00000  Uiso   1.00
H755   H     0.57146   0.49947   0.89046   0.00000  Uiso   1.00
H756   H     0.63518   0.45779   0.96322   0.00000  Uiso   1.00
H757   H     0.54920   0.55325   0.59951   0.00000  Uiso   1.00
H758   H     0.64759   0.56371   0.92173   0.00000  Uiso   1.00
H759   H     0.34811   0.58993   0.51837   0.00000  Uiso   1.00
H760   H     0.48774   0.54871   0.86114   0.00000  Uiso   1.00
N761   N     0.47827   0.48556   0.73542   0.00000  Uiso   1.00
N762   N     0.52173   0.51444   0.76457   0.00000  Uiso   1.00
O763   O     0.63102   0.57963   0.75357   0.00000  Uiso   1.00
O764   O     0.50595   0.38793   0.75148   0.00000  Uiso   1.00
O765   O     0.42109   0.39868   0.66784   0.00000  Uiso   1.00
O766   O     0.49257   0.62071   0.61893   0.00000  Uiso   1.00
O767   O     0.39231   0.59221   0.61512   0.00000  Uiso   1.00
O768   O     0.46687   0.52198   0.62949   0.00000  Uiso   1.00
O769   O     0.47111   0.64262   0.81803   0.00000  Uiso   1.00
O770   O     0.43618   0.39598   0.83429   0.00000  Uiso   1.00
O771   O     0.40041   0.65322   0.88301   0.00000  Uiso   1.00
O772   O     0.39075   0.57038   0.74423   0.00000  Uiso   1.00
O773   O     0.64823   0.50691   0.83380   0.00000  Uiso   1.00
O774   O     0.40796   0.49766   0.82446   0.00000  Uiso   1.00
O775   O     0.60925   0.42962   0.75576   0.00000  Uiso   1.00
O776   O     0.36898   0.42037   0.74642   0.00000  Uiso   1.00
O777   O     0.59204   0.50234   0.67554   0.00000  Uiso   1.00
O778   O     0.35177   0.49309   0.66620   0.00000  Uiso   1.00
O779   O     0.52619   0.42303   0.66782   0.00000  Uiso   1.00
S780   S     0.48588   0.42329   0.70629   0.00000  Uiso   1.00
S781   S     0.44676   0.57649   0.59869   0.00000  Uiso   1.00
S782   S     0.41941   0.33816   0.82563   0.00000  Uiso   1.00
Zn783  Zn    0.60453   0.50618   0.75623   0.00000  Uiso   1.00
Zn784  Zn    0.39547   0.49382   0.74376   0.00000  Uiso   1.00
C785   C     0.68210   0.59825   0.75245   0.00000  Uiso   1.00
C786   C     0.72886   0.53653   0.91071   0.00000  Uiso   1.00
C787   C     0.69283   0.65269   0.76827   0.00000  Uiso   1.00
C788   C     0.70468   0.51241   0.85356   0.00000  Uiso   1.00
C789   C     0.98016   0.34767   0.75243   0.00000  Uiso   1.00
C790   C     0.98692   0.40233   0.75429   0.00000  Uiso   1.00
C791   C     0.96355   0.49732   0.64561   0.00000  Uiso   1.00
C792   C     0.94667   0.47618   0.99281   0.00000  Uiso   1.00
C793   C     0.94300   0.49961   0.58673   0.00000  Uiso   1.00
C794   C     0.69210   0.55809   0.94116   0.00000  Uiso   1.00
C795   C     0.71224   0.57336   0.99694   0.00000  Uiso   1.00
C796   C     0.80903   0.54430   0.99372   0.00000  Uiso   1.00
C797   C     0.76854   0.56369   0.52543   0.00000  Uiso   1.00
C798   C     0.78889   0.53940   0.93511   0.00000  Uiso   1.00
C799   C     0.86624   0.52619   0.51365   0.00000  Uiso   1.00
C800   C     0.89678   0.50336   0.97521   0.00000  Uiso   1.00
C801   C     0.87939   0.51119   0.91981   0.00000  Uiso   1.00
C802   C     0.82942   0.53565   0.90203   0.00000  Uiso   1.00
C803   C     0.89466   0.52814   0.56900   0.00000  Uiso   1.00
C804   C     0.96899   0.47311   0.54883   0.00000  Uiso   1.00
H805   H     0.67338   0.45111   0.56248   0.00000  Uiso   1.00
H806   H     0.75619   0.36002   0.66677   0.00000  Uiso   1.00
H807   H     0.77528   0.49294   0.60595   0.00000  Uiso   1.00
H808   H     0.76987   0.65829   0.91254   0.00000  Uiso   1.00
H809   H     0.93892   0.66369   0.72714   0.00000  Uiso   1.00
H810   H     0.84366   0.54935   0.78079   0.00000  Uiso   1.00
H811   H     0.90479   0.49947   0.89046   0.00000  Uiso   1.00
H812   H     0.96852   0.45779   0.96322   0.00000  Uiso   1.00
H813   H     0.88253   0.55325   0.59951   0.00000  Uiso   1.00
H814   H     0.98093   0.56371   0.92173   0.00000  Uiso   1.00
H815   H     0.68145   0.58993   0.51837   0.00000  Uiso   1.00
H816   H     0.82107   0.54871   0.86114   0.00000  Uiso   1.00
N817   N     0.81160   0.48556   0.73542   0.00000  Uiso   1.00
N818   N     0.85507   0.51444   0.76457   0.00000  Uiso   1.00
O819   O     0.96435   0.57963   0.75357   0.00000  Uiso   1.00
O820   O     0.83928   0.38793   0.75148   0.00000  Uiso   1.00
O821   O     0.75442   0.39868   0.66784   0.00000  Uiso   1.00
O822   O     0.82590   0.62071   0.61893   0.00000  Uiso   1.00
O823   O     0.72564   0.59221   0.61512   0.00000  Uiso   1.00
O824   O     0.80020   0.52198   0.62949   0.00000  Uiso   1.00
O825   O     0.80444   0.64262   0.81803   0.00000  Uiso   1.00
O826   O     0.76952   0.39598   0.83429   0.00000  Uiso   1.00
O827   O     0.73374   0.65322   0.88301   0.00000  Uiso   1.00
O828   O     0.72408   0.57038   0.74423   0.00000  Uiso   1.00
O829   O     0.98157   0.50691   0.83380   0.00000  Uiso   1.00
O830   O     0.74130   0.49766   0.82446   0.00000  Uiso   1.00
O831   O     0.94258   0.42962   0.75576   0.00000  Uiso   1.00
O832   O     0.70231   0.42037   0.74642   0.00000  Uiso   1.00
O833   O     0.92537   0.50234   0.67554   0.00000  Uiso   1.00
O834   O     0.68510   0.49309   0.66620   0.00000  Uiso   1.00
O835   O     0.85952   0.42303   0.66782   0.00000  Uiso   1.00
S836   S     0.81922   0.42329   0.70629   0.00000  Uiso   1.00
S837   S     0.78009   0.57649   0.59869   0.00000  Uiso   1.00
S838   S     0.75274   0.33816   0.82563   0.00000  Uiso   1.00
Zn839  Zn    0.93786   0.50618   0.75623   0.00000  Uiso   1.00
Zn840  Zn    0.72881   0.49382   0.74376   0.00000  Uiso   1.00
C841   C     0.01543   0.93159   0.75245   0.00000  Uiso   1.00
C842   C     0.06219   0.86987   0.91071   0.00000  Uiso   1.00
C843   C     0.02616   0.98603   0.76827   0.00000  Uiso   1.00
C844   C     0.03802   0.84574   0.85356   0.00000  Uiso   1.00
C845   C     0.31350   0.68100   0.75243   0.00000  Uiso   1.00
C846   C     0.32025   0.73566   0.75429   0.00000  Uiso   1.00
C847   C     0.29688   0.83066   0.64561   0.00000  Uiso   1.00
C848   C     0.28001   0.80952   0.99281   0.00000  Uiso   1.00
C849   C     0.27633   0.83295   0.58673   0.00000  Uiso   1.00
C850   C     0.02543   0.89142   0.94116   0.00000  Uiso   1.00
C851   C     0.04558   0.90669   0.99694   0.00000  Uiso   1.00
C852   C     0.14237   0.87764   0.99372   0.00000  Uiso   1.00
C853   C     0.10187   0.89702   0.52543   0.00000  Uiso   1.00
C854   C     0.12222   0.87273   0.93511   0.00000  Uiso   1.00
C855   C     0.19958   0.85952   0.51365   0.00000  Uiso   1.00
C856   C     0.23012   0.83669   0.97521   0.00000  Uiso   1.00
C857   C     0.21272   0.84453   0.91981   0.00000  Uiso   1.00
C858   C     0.16276   0.86899   0.90203   0.00000  Uiso   1.00
C859   C     0.22799   0.86147   0.56900   0.00000  Uiso   1.00
C860   C     0.30232   0.80644   0.54883   0.00000  Uiso   1.00
H861   H     0.00671   0.78444   0.56248   0.00000  Uiso   1.00
H862   H     0.08953   0.69336   0.66677   0.00000  Uiso   1.00
H863   H     0.10862   0.82628   0.60595   0.00000  Uiso   1.00
H864   H     0.10321   0.99162   0.91254   0.00000  Uiso   1.00
H865   H     0.27225   0.99702   0.72714   0.00000  Uiso   1.00
H866   H     0.17699   0.88269   0.78079   0.00000  Uiso   1.00
H867   H     0.23812   0.83281   0.89046   0.00000  Uiso   1.00
H868   H     0.30185   0.79112   0.96322   0.00000  Uiso   1.00
H869   H     0.21586   0.88658   0.59951   0.00000  Uiso   1.00
H870   H     0.31426   0.89704   0.92173   0.00000  Uiso   1.00
H871   H     0.01478   0.92327   0.51837   0.00000  Uiso   1.00
H872   H     0.15440   0.88205   0.86114   0.00000  Uiso   1.00
N873   N     0.14493   0.81890   0.73542   0.00000  Uiso   1.00
N874   N     0.18840   0.84777   0.76457   0.00000  Uiso   1.00
O875   O     0.29769   0.91296   0.75357   0.00000  Uiso   1.00
O876   O     0.17261   0.72126   0.75148   0.00000  Uiso   1.00
O877   O     0.08776   0.73201   0.66784   0.00000  Uiso   1.00
O878   O     0.15924   0.95404   0.61893   0.00000  Uiso   1.00
O879   O     0.05897   0.92554   0.61512   0.00000  Uiso   1.00
O880   O     0.13353   0.85532   0.62949   0.00000  Uiso   1.00
O881   O     0.13778   0.97595   0.81803   0.00000  Uiso   1.00
O882   O     0.10285   0.72931   0.83429   0.00000  Uiso   1.00
O883   O     0.06708   0.98655   0.88301   0.00000  Uiso   1.00
O884   O     0.05742   0.90371   0.74423   0.00000  Uiso   1.00
O885   O     0.31490   0.84024   0.83380   0.00000  Uiso   1.00
O886   O     0.07463   0.83099   0.82446   0.00000  Uiso   1.00
O887   O     0.27592   0.76296   0.75576   0.00000  Uiso   1.00
O888   O     0.03565   0.75371   0.74642   0.00000  Uiso   1.00
O889   O     0.25870   0.83567   0.67554   0.00000  Uiso   1.00
O890   O     0.01843   0.82642   0.66620   0.00000  Uiso   1.00
O891   O     0.19285   0.75636   0.66782   0.00000  Uiso   1.00
S892   S     0.15255   0.75662   0.70629   0.00000  Uiso   1.00
S893   S     0.11343   0.90982   0.59869   0.00000  Uiso   1.00
S894   S     0.08608   0.67149   0.82563   0.00000  Uiso   1.00
Zn895  Zn    0.27119   0.83951   0.75623   0.00000  Uiso   1.00
Zn896  Zn    0.06214   0.82716   0.74376   0.00000  Uiso   1.00
C897   C     0.34876   0.93159   0.75245   0.00000  Uiso   1.00
C898   C     0.39553   0.86987   0.91071   0.00000  Uiso   1.00
C899   C     0.35949   0.98603   0.76827   0.00000  Uiso   1.00
C900   C     0.37135   0.84574   0.85356   0.00000  Uiso   1.00
C901   C     0.64683   0.68100   0.75243   0.00000  Uiso   1.00
C902   C     0.65359   0.73566   0.75429   0.00000  Uiso   1.00
C903   C     0.63021   0.83066   0.64561   0.00000  Uiso   1.00
C904   C     0.61334   0.80952   0.99281   0.00000  Uiso   1.00
C905   C     0.60966   0.83295   0.58673   0.00000  Uiso   1.00
C906   C     0.35877   0.89142   0.94116   0.00000  Uiso   1.00
C907   C     0.37891   0.90669   0.99694   0.00000  Uiso   1.00
C908   C     0.47570   0.87764   0.99372   0.00000  Uiso   1.00
C909   C     0.43520   0.89702   0.52543   0.00000  Uiso   1.00
C910   C     0.45555   0.87273   0.93511   0.00000  Uiso   1.00
C911   C     0.53291   0.85952   0.51365   0.00000  Uiso   1.00
C912   C     0.56345   0.83669   0.97521   0.00000  Uiso   1.00
C913   C     0.54605   0.84453   0.91981   0.00000  Uiso   1.00
C914   C     0.49609   0.86899   0.90203   0.00000  Uiso   1.00
C915   C     0.56133   0.86147   0.56900   0.00000  Uiso   1.00
C916   C     0.63565   0.80644   0.54883   0.00000  Uiso   1.00
H917   H     0.34004   0.78444   0.56248   0.00000  Uiso   1.00
H918   H     0.42286   0.69336   0.66677   0.00000  Uiso   1.00
H919   H     0.44195   0.82628   0.60595   0.00000  Uiso   1.00
H920   H     0.43654   0.99162   0.91254   0.00000  Uiso   1.00
H921   H     0.60559   0.99702   0.72714   0.00000  Uiso   1.00
H922   H     0.51032   0.88269   0.78079   0.00000  Uiso   1.00
H923   H     0.57146   0.83281   0.89046   0.00000  Uiso   1.00
H924   H     0.63518   0.79112   0.96322   0.00000  Uiso   1.00
H925   H     0.54920   0.88658   0.59951   0.00000  Uiso   1.00
H926   H     0.64759   0.89704   0.92173   0.00000  Uiso   1.00
H927   H     0.34811   0.92327   0.51837   0.00000  Uiso   1.00
H928   H     0.48774   0.88205   0.86114   0.00000  Uiso   1.00
N929   N     0.47827   0.81890   0.73542   0.00000  Uiso   1.00
N930   N     0.52173   0.84777   0.76457   0.00000  Uiso   1.00
O931   O     0.63102   0.91296   0.75357   0.00000  Uiso   1.00
O932   O     0.50595   0.72126   0.75148   0.00000  Uiso   1.00
O933   O     0.42109   0.73201   0.66784   0.00000  Uiso   1.00
O934   O     0.49257   0.95404   0.61893   0.00000  Uiso   1.00
O935   O     0.39231   0.92554   0.61512   0.00000  Uiso   1.00
O936   O     0.46687   0.85532   0.62949   0.00000  Uiso   1.00
O937   O     0.47111   0.97595   0.81803   0.00000  Uiso   1.00
O938   O     0.43618   0.72931   0.83429   0.00000  Uiso   1.00
O939   O     0.40041   0.98655   0.88301   0.00000  Uiso   1.00
O940   O     0.39075   0.90371   0.74423   0.00000  Uiso   1.00
O941   O     0.64823   0.84024   0.83380   0.00000  Uiso   1.00
O942   O     0.40796   0.83099   0.82446   0.00000  Uiso   1.00
O943   O     0.60925   0.76296   0.75576   0.00000  Uiso   1.00
O944   O     0.36898   0.75371   0.74642   0.00000  Uiso   1.00
O945   O     0.59204   0.83567   0.67554   0.00000  Uiso   1.00
O946   O     0.35177   0.82642   0.66620   0.00000  Uiso   1.00
O947   O     0.52619   0.75636   0.66782   0.00000  Uiso   1.00
S948   S     0.48588   0.75662   0.70629   0.00000  Uiso   1.00
S949   S     0.44676   0.90982   0.59869   0.00000  Uiso   1.00
S950   S     0.41941   0.67149   0.82563   0.00000  Uiso   1.00
Zn951  Zn    0.60453   0.83951   0.75623   0.00000  Uiso   1.00
Zn952  Zn    0.39547   0.82716   0.74376   0.00000  Uiso   1.00
C953   C     0.68210   0.93159   0.75245   0.00000  Uiso   1.00
C954   C     0.72886   0.86987   0.91071   0.00000  Uiso   1.00
C955   C     0.69283   0.98603   0.76827   0.00000  Uiso   1.00
C956   C     0.70468   0.84574   0.85356   0.00000  Uiso   1.00
C957   C     0.98016   0.68100   0.75243   0.00000  Uiso   1.00
C958   C     0.98692   0.73566   0.75429   0.00000  Uiso   1.00
C959   C     0.96355   0.83066   0.64561   0.00000  Uiso   1.00
C960   C     0.94667   0.80952   0.99281   0.00000  Uiso   1.00
C961   C     0.94300   0.83295   0.58673   0.00000  Uiso   1.00
C962   C     0.69210   0.89142   0.94116   0.00000  Uiso   1.00
C963   C     0.71224   0.90669   0.99694   0.00000  Uiso   1.00
C964   C     0.80903   0.87764   0.99372   0.00000  Uiso   1.00
C965   C     0.76854   0.89702   0.52543   0.00000  Uiso   1.00
C966   C     0.78889   0.87273   0.93511   0.00000  Uiso   1.00
C967   C     0.86624   0.85952   0.51365   0.00000  Uiso   1.00
C968   C     0.89678   0.83669   0.97521   0.00000  Uiso   1.00
C969   C     0.87939   0.84453   0.91981   0.00000  Uiso   1.00
C970   C     0.82942   0.86899   0.90203   0.00000  Uiso   1.00
C971   C     0.89466   0.86147   0.56900   0.00000  Uiso   1.00
C972   C     0.96899   0.80644   0.54883   0.00000  Uiso   1.00
H973   H     0.67338   0.78444   0.56248   0.00000  Uiso   1.00
H974   H     0.75619   0.69336   0.66677   0.00000  Uiso   1.00
H975   H     0.77528   0.82628   0.60595   0.00000  Uiso   1.00
H976   H     0.76987   0.99162   0.91254   0.00000  Uiso   1.00
H977   H     0.93892   0.99702   0.72714   0.00000  Uiso   1.00
H978   H     0.84366   0.88269   0.78079   0.00000  Uiso   1.00
H979   H     0.90479   0.83281   0.89046   0.00000  Uiso   1.00
H980   H     0.96852   0.79112   0.96322   0.00000  Uiso   1.00
H981   H     0.88253   0.88658   0.59951   0.00000  Uiso   1.00
H982   H     0.98093   0.89704   0.92173   0.00000  Uiso   1.00
H983   H     0.68145   0.92327   0.51837   0.00000  Uiso   1.00
H984   H     0.82107   0.88205   0.86114   0.00000  Uiso   1.00
N985   N     0.81160   0.81890   0.73542   0.00000  Uiso   1.00
N986   N     0.85507   0.84777   0.76457   0.00000  Uiso   1.00
O987   O     0.96435   0.91296   0.75357   0.00000  Uiso   1.00
O988   O     0.83928   0.72126   0.75148   0.00000  Uiso   1.00
O989   O     0.75442   0.73201   0.66784   0.00000  Uiso   1.00
O990   O     0.82590   0.95404   0.61893   0.00000  Uiso   1.00
O991   O     0.72564   0.92554   0.61512   0.00000  Uiso   1.00
O992   O     0.80020   0.85532   0.62949   0.00000  Uiso   1.00
O993   O     0.80444   0.97595   0.81803   0.00000  Uiso   1.00
O994   O     0.76952   0.72931   0.83429   0.00000  Uiso   1.00
O995   O     0.73374   0.98655   0.88301   0.00000  Uiso   1.00
O996   O     0.72408   0.90371   0.74423   0.00000  Uiso   1.00
O997   O     0.98157   0.84024   0.83380   0.00000  Uiso   1.00
O998   O     0.74130   0.83099   0.82446   0.00000  Uiso   1.00
O999   O     0.94258   0.76296   0.75576   0.00000  Uiso   1.00
O1000  O     0.70231   0.75371   0.74642   0.00000  Uiso   1.00
O1001  O     0.92537   0.83567   0.67554   0.00000  Uiso   1.00
O1002  O     0.68510   0.82642   0.66620   0.00000  Uiso   1.00
O1003  O     0.85952   0.75636   0.66782   0.00000  Uiso   1.00
S1004  S     0.81922   0.75662   0.70629   0.00000  Uiso   1.00
S1005  S     0.78009   0.90982   0.59869   0.00000  Uiso   1.00
S1006  S     0.75274   0.67149   0.82563   0.00000  Uiso   1.00
Zn1007 Zn    0.93786   0.83951   0.75623   0.00000  Uiso   1.00
Zn1008 Zn    0.72881   0.82716   0.74376   0.00000  Uiso   1.00
loop_
_geom_bond_atom_site_label_1
_geom_bond_atom_site_label_2
_geom_bond_distance
_geom_bond_site_symmetry_2
_ccdc_geom_bond_type
C1     O44     1.297   .     A
C1     C3      1.413   .     S
C1     O147    1.287   1_455 S
C2     C4      1.482   .     S
C2     C14     1.412   .     A
C2     C10     1.386   .     A
C3     C285    1.340   1_455 S
C3     S222    1.789   .     S
C4     O46     1.302   .     A
C4     O157    1.315   1_455 S
C5     C6      1.395   .     S
C5     C395    1.340   1_545 S
C5     H361    1.090   1_545 S
C6     O47     1.296   .     A
C6     O104    1.284   .     S
C7     O49     1.300   .     A
C7     C9      1.441   .     S
C7     O106    1.300   .     S
C8     C16     1.402   .     A
C8     H28     1.084   .     S
C8     C524    1.383   .     S
C9     C20     1.391   .     A
C9     C19     1.394   .     A
C10    C11     1.381   .     A
C10    H142    1.079   1_455 S
C11    C517    1.406   .     S
C11    H535    1.082   .     S
C12    C14     1.421   .     A
C12    C517    1.456   .     S
C12    C519    1.447   .     S
C13    S53     1.782   .     S
C13    C515    1.406   1_554 S
C13    C516    1.456   1_554 S
C14    C18     1.401   .     A
C15    C19     1.385   .     A
C15    C516    1.447   1_554 S
C15    C520    1.432   1_554 S
C16    C17     1.378   .     A
C16    C519    1.432   .     S
C17    C18     1.367   .     A
C17    H27     1.081   .     S
C18    H32     1.072   .     S
C19    H29     1.056   .     S
C20    C512    1.383   1_554 S
C20    H77     1.083   .     S
H21    C132    1.083   1_455 S
H22    O37     0.990   .     S
H23    O40     0.990   .     S
H24    O43     0.991   .     S
H25    C173    1.090   .     S
H26    N34     1.026   .     S
H30    C66     1.079   .     S
H31    C515    1.082   1_554 S
N33    Zn56    2.040   .     S
N33    N34     1.282   .     D
N33    S52     1.736   .     S
N34    Zn55    2.040   .     S
O35    Zn55    1.962   .     S
O35    C57     1.287   .     S
O36    S52     1.502   .     D
O37    S52     1.681   .     S
O38    S53     1.504   .     D
O39    S53     1.504   .     D
O40    S53     1.677   .     S
O41    S222    1.503   .     S
O42    S54     1.499   .     D
O43    S222    1.680   .     S
O44    Zn56    1.966   .     S
O45    Zn55    1.971   .     S
O45    C60     1.315   .     S
O46    Zn56    1.954   .     S
O47    Zn55    1.966   .     S
O48    Zn56    1.962   .     S
O48    C118    1.284   1_455 S
O49    Zn55    1.954   .     S
O50    Zn56    1.971   .     S
O50    C119    1.300   1_455 S
O51    S52     1.496   .     D
S54    C339    1.789   1_545 S
S54    O377    1.503   1_545 S
S54    O379    1.680   1_545 S
C57    O100    1.297   .     A
C57    C59     1.413   .     S
C58    C60     1.482   .     S
C58    C70     1.412   .     A
C58    C66     1.386   .     A
C59    C173    1.340   .     S
C59    S278    1.789   .     S
C60    O102    1.302   .     A
C61    C62     1.395   .     S
C61    C451    1.340   1_545 S
C61    H417    1.090   1_545 S
C62    O103    1.296   .     A
C62    O160    1.284   .     S
C63    O105    1.300   .     A
C63    C65     1.441   .     S
C63    O162    1.300   .     S
C64    C72     1.402   .     A
C64    H84     1.084   .     S
C64    C580    1.383   .     S
C65    C76     1.391   .     A
C65    C75     1.394   .     A
C66    C67     1.381   .     A
C67    C573    1.406   .     S
C67    H591    1.082   .     S
C68    C70     1.421   .     A
C68    C573    1.456   .     S
C68    C575    1.447   .     S
C69    S109    1.782   .     S
C69    C571    1.406   1_554 S
C69    C572    1.456   1_554 S
C70    C74     1.401   .     A
C71    C75     1.385   .     A
C71    C572    1.447   1_554 S
C71    C576    1.432   1_554 S
C72    C73     1.378   .     A
C72    C575    1.432   .     S
C73    C74     1.367   .     A
C73    H83     1.081   .     S
C74    H88     1.072   .     S
C75    H85     1.056   .     S
C76    C568    1.383   1_554 S
C76    H133    1.083   .     S
H78    O93     0.990   .     S
H79    O96     0.990   .     S
H80    O99     0.991   .     S
H81    C229    1.090   .     S
H82    N90     1.026   .     S
H86    C122    1.079   .     S
H87    C571    1.082   1_554 S
N89    Zn112   2.040   .     S
N89    N90     1.282   .     D
N89    S108    1.736   .     S
N90    Zn111   2.040   .     S
O91    Zn111   1.962   .     S
O91    C113    1.287   .     S
O92    S108    1.502   .     D
O93    S108    1.681   .     S
O94    S109    1.504   .     D
O95    S109    1.504   .     D
O96    S109    1.677   .     S
O97    S278    1.503   .     S
O98    S110    1.499   .     D
O99    S278    1.680   .     S
O100   Zn112   1.966   .     S
O101   Zn111   1.971   .     S
O101   C116    1.315   .     S
O102   Zn112   1.954   .     S
O103   Zn111   1.966   .     S
O104   Zn112   1.962   .     S
O105   Zn111   1.954   .     S
O106   Zn112   1.971   .     S
O107   S108    1.496   .     D
S110   C395    1.789   1_545 S
S110   O433    1.503   1_545 S
S110   O435    1.680   1_545 S
C113   O156    1.297   .     A
C113   C115    1.413   .     S
C114   C116    1.482   .     S
C114   C126    1.412   .     A
C114   C122    1.386   .     A
C115   C229    1.340   .     S
C115   S334    1.789   .     S
C116   O158    1.302   .     A
C117   C118    1.395   .     S
C117   C339    1.340   1_645 S
C117   H473    1.090   1_545 S
C118   O159    1.296   .     A
C118   O48     1.284   1_655 S
C119   O161    1.300   .     A
C119   C121    1.441   .     S
C119   O50     1.300   1_655 S
C120   C128    1.402   .     A
C120   H140    1.084   .     S
C120   C636    1.383   .     S
C121   C132    1.391   .     A
C121   C131    1.394   .     A
C122   C123    1.381   .     A
C123   C629    1.406   .     S
C123   H647    1.082   .     S
C124   C126    1.421   .     A
C124   C629    1.456   .     S
C124   C631    1.447   .     S
C125   S165    1.782   .     S
C125   C627    1.406   1_554 S
C125   C628    1.456   1_554 S
C126   C130    1.401   .     A
C127   C131    1.385   .     A
C127   C628    1.447   1_554 S
C127   C632    1.432   1_554 S
C128   C129    1.378   .     A
C128   C631    1.432   .     S
C129   C130    1.367   .     A
C129   H139    1.081   .     S
C130   H144    1.072   .     S
C131   H141    1.056   .     S
C132   C624    1.383   1_554 S
C132   H21     1.083   1_655 S
H134   O149    0.990   .     S
H135   O152    0.990   .     S
H136   O155    0.991   .     S
H137   C285    1.090   .     S
H138   N146    1.026   .     S
H142   C10     1.079   1_655 S
H143   C627    1.082   1_554 S
N145   Zn168   2.040   .     S
N145   N146    1.282   .     D
N145   S164    1.736   .     S
N146   Zn167   2.040   .     S
O147   Zn167   1.962   .     S
O147   C1      1.287   1_655 S
O148   S164    1.502   .     D
O149   S164    1.681   .     S
O150   S165    1.504   .     D
O151   S165    1.504   .     D
O152   S165    1.677   .     S
O153   S334    1.503   .     S
O154   S166    1.499   .     D
O155   S334    1.680   .     S
O156   Zn168   1.966   .     S
O157   Zn167   1.971   .     S
O157   C4      1.315   1_655 S
O158   Zn168   1.954   .     S
O159   Zn167   1.966   .     S
O160   Zn168   1.962   .     S
O161   Zn167   1.954   .     S
O162   Zn168   1.971   .     S
O163   S164    1.496   .     D
S166   C451    1.789   1_545 S
S166   O489    1.503   1_545 S
S166   O491    1.680   1_545 S
C169   O212    1.297   .     A
C169   C171    1.413   .     S
C169   O315    1.287   1_455 S
C170   C172    1.482   .     S
C170   C182    1.412   .     A
C170   C178    1.386   .     A
C171   C453    1.340   1_455 S
C171   S390    1.789   .     S
C172   O214    1.302   .     A
C172   O325    1.315   1_455 S
C173   C174    1.395   .     S
C174   O215    1.296   .     A
C174   O272    1.284   .     S
C175   O217    1.300   .     A
C175   C177    1.441   .     S
C175   O274    1.300   .     S
C176   C184    1.402   .     A
C176   H196    1.084   .     S
C176   C692    1.383   .     S
C177   C188    1.391   .     A
C177   C187    1.394   .     A
C178   C179    1.381   .     A
C178   H310    1.079   1_455 S
C179   C685    1.406   .     S
C179   H703    1.082   .     S
C180   C182    1.421   .     A
C180   C685    1.456   .     S
C180   C687    1.447   .     S
C181   S221    1.782   .     S
C181   C683    1.406   1_554 S
C181   C684    1.456   1_554 S
C182   C186    1.401   .     A
C183   C187    1.385   .     A
C183   C684    1.447   1_554 S
C183   C688    1.432   1_554 S
C184   C185    1.378   .     A
C184   C687    1.432   .     S
C185   C186    1.367   .     A
C185   H195    1.081   .     S
C186   H200    1.072   .     S
C187   H197    1.056   .     S
C188   C680    1.383   1_554 S
C188   H245    1.083   .     S
H189   C300    1.083   1_455 S
H190   O205    0.990   .     S
H191   O208    0.990   .     S
H192   O211    0.991   .     S
H193   C341    1.090   .     S
H194   N202    1.026   .     S
H198   C234    1.079   .     S
H199   C683    1.082   1_554 S
N201   Zn224   2.040   .     S
N201   N202    1.282   .     D
N201   S220    1.736   .     S
N202   Zn223   2.040   .     S
O203   Zn223   1.962   .     S
O203   C225    1.287   .     S
O204   S220    1.502   .     D
O205   S220    1.681   .     S
O206   S221    1.504   .     D
O207   S221    1.504   .     D
O208   S221    1.677   .     S
O209   S390    1.503   .     S
O210   S222    1.499   .     D
O211   S390    1.680   .     S
O212   Zn224   1.966   .     S
O213   Zn223   1.971   .     S
O213   C228    1.315   .     S
O214   Zn224   1.954   .     S
O215   Zn223   1.966   .     S
O216   Zn224   1.962   .     S
O216   C286    1.284   1_455 S
O217   Zn223   1.954   .     S
O218   Zn224   1.971   .     S
O218   C287    1.300   1_455 S
O219   S220    1.496   .     D
C225   O268    1.297   .     A
C225   C227    1.413   .     S
C226   C228    1.482   .     S
C226   C238    1.412   .     A
C226   C234    1.386   .     A
C227   C341    1.340   .     S
C227   S446    1.789   .     S
C228   O270    1.302   .     A
C229   C230    1.395   .     S
C230   O271    1.296   .     A
C230   O328    1.284   .     S
C231   O273    1.300   .     A
C231   C233    1.441   .     S
C231   O330    1.300   .     S
C232   C240    1.402   .     A
C232   H252    1.084   .     S
C232   C748    1.383   .     S
C233   C244    1.391   .     A
C233   C243    1.394   .     A
C234   C235    1.381   .     A
C235   C741    1.406   .     S
C235   H759    1.082   .     S
C236   C238    1.421   .     A
C236   C741    1.456   .     S
C236   C743    1.447   .     S
C237   S277    1.782   .     S
C237   C739    1.406   1_554 S
C237   C740    1.456   1_554 S
C238   C242    1.401   .     A
C239   C243    1.385   .     A
C239   C740    1.447   1_554 S
C239   C744    1.432   1_554 S
C240   C241    1.378   .     A
C240   C743    1.432   .     S
C241   C242    1.367   .     A
C241   H251    1.081   .     S
C242   H256    1.072   .     S
C243   H253    1.056   .     S
C244   C736    1.383   1_554 S
C244   H301    1.083   .     S
H246   O261    0.990   .     S
H247   O264    0.990   .     S
H248   O267    0.991   .     S
H249   C397    1.090   .     S
H250   N258    1.026   .     S
H254   C290    1.079   .     S
H255   C739    1.082   1_554 S
N257   Zn280   2.040   .     S
N257   N258    1.282   .     D
N257   S276    1.736   .     S
N258   Zn279   2.040   .     S
O259   Zn279   1.962   .     S
O259   C281    1.287   .     S
O260   S276    1.502   .     D
O261   S276    1.681   .     S
O262   S277    1.504   .     D
O263   S277    1.504   .     D
O264   S277    1.677   .     S
O265   S446    1.503   .     S
O266   S278    1.499   .     D
O267   S446    1.680   .     S
O268   Zn280   1.966   .     S
O269   Zn279   1.971   .     S
O269   C284    1.315   .     S
O270   Zn280   1.954   .     S
O271   Zn279   1.966   .     S
O272   Zn280   1.962   .     S
O273   Zn279   1.954   .     S
O274   Zn280   1.971   .     S
O275   S276    1.496   .     D
C281   O324    1.297   .     A
C281   C283    1.413   .     S
C282   C284    1.482   .     S
C282   C294    1.412   .     A
C282   C290    1.386   .     A
C283   C397    1.340   .     S
C283   S502    1.789   .     S
C284   O326    1.302   .     A
C285   C286    1.395   .     S
C285   C3      1.340   1_655 S
C286   O327    1.296   .     A
C286   O216    1.284   1_655 S
C287   O329    1.300   .     A
C287   C289    1.441   .     S
C287   O218    1.300   1_655 S
C288   C296    1.402   .     A
C288   H308    1.084   .     S
C288   C804    1.383   .     S
C289   C300    1.391   .     A
C289   C299    1.394   .     A
C290   C291    1.381   .     A
C291   C797    1.406   .     S
C291   H815    1.082   .     S
C292   C294    1.421   .     A
C292   C797    1.456   .     S
C292   C799    1.447   .     S
C293   S333    1.782   .     S
C293   C795    1.406   1_554 S
C293   C796    1.456   1_554 S
C294   C298    1.401   .     A
C295   C299    1.385   .     A
C295   C796    1.447   1_554 S
C295   C800    1.432   1_554 S
C296   C297    1.378   .     A
C296   C799    1.432   .     S
C297   C298    1.367   .     A
C297   H307    1.081   .     S
C298   H312    1.072   .     S
C299   H309    1.056   .     S
C300   C792    1.383   1_554 S
C300   H189    1.083   1_655 S
H302   O317    0.990   .     S
H303   O320    0.990   .     S
H304   O323    0.991   .     S
H305   C453    1.090   .     S
H306   N314    1.026   .     S
H310   C178    1.079   1_655 S
H311   C795    1.082   1_554 S
N313   Zn336   2.040   .     S
N313   N314    1.282   .     D
N313   S332    1.736   .     S
N314   Zn335   2.040   .     S
O315   Zn335   1.962   .     S
O315   C169    1.287   1_655 S
O316   S332    1.502   .     D
O317   S332    1.681   .     S
O318   S333    1.504   .     D
O319   S333    1.504   .     D
O320   S333    1.677   .     S
O321   S502    1.503   .     S
O322   S334    1.499   .     D
O323   S502    1.680   .     S
O324   Zn336   1.966   .     S
O325   Zn335   1.971   .     S
O325   C172    1.315   1_655 S
O326   Zn336   1.954   .     S
O327   Zn335   1.966   .     S
O328   Zn336   1.962   .     S
O329   Zn335   1.954   .     S
O330   Zn336   1.971   .     S
O331   S332    1.496   .     D
C337   O380    1.297   .     A
C337   C339    1.413   .     S
C337   O483    1.287   1_455 S
C338   C340    1.482   .     S
C338   C350    1.412   .     A
C338   C346    1.386   .     A
C339   C117    1.340   1_465 S
C339   S54     1.789   1_565 S
C340   O382    1.302   .     A
C340   O493    1.315   1_455 S
C341   C342    1.395   .     S
C342   O383    1.296   .     A
C342   O440    1.284   .     S
C343   O385    1.300   .     A
C343   C345    1.441   .     S
C343   O442    1.300   .     S
C344   C352    1.402   .     A
C344   H364    1.084   .     S
C344   C860    1.383   .     S
C345   C356    1.391   .     A
C345   C355    1.394   .     A
C346   C347    1.381   .     A
C346   H478    1.079   1_455 S
C347   C853    1.406   .     S
C347   H871    1.082   .     S
C348   C350    1.421   .     A
C348   C853    1.456   .     S
C348   C855    1.447   .     S
C349   S389    1.782   .     S
C349   C851    1.406   1_554 S
C349   C852    1.456   1_554 S
C350   C354    1.401   .     A
C351   C355    1.385   .     A
C351   C852    1.447   1_554 S
C351   C856    1.432   1_554 S
C352   C353    1.378   .     A
C352   C855    1.432   .     S
C353   C354    1.367   .     A
C353   H363    1.081   .     S
C354   H368    1.072   .     S
C355   H365    1.056   .     S
C356   C848    1.383   1_554 S
C356   H413    1.083   .     S
H357   C468    1.083   1_455 S
H358   O373    0.990   .     S
H359   O376    0.990   .     S
H360   O379    0.991   .     S
H361   C5      1.090   1_565 S
H362   N370    1.026   .     S
H366   C402    1.079   .     S
H367   C851    1.082   1_554 S
N369   Zn392   2.040   .     S
N369   N370    1.282   .     D
N369   S388    1.736   .     S
N370   Zn391   2.040   .     S
O371   Zn391   1.962   .     S
O371   C393    1.287   .     S
O372   S388    1.502   .     D
O373   S388    1.681   .     S
O374   S389    1.504   .     D
O375   S389    1.504   .     D
O376   S389    1.677   .     S
O377   S54     1.503   1_565 S
O378   S390    1.499   .     D
O379   S54     1.680   1_565 S
O380   Zn392   1.966   .     S
O381   Zn391   1.971   .     S
O381   C396    1.315   .     S
O382   Zn392   1.954   .     S
O383   Zn391   1.966   .     S
O384   Zn392   1.962   .     S
O384   C454    1.284   1_455 S
O385   Zn391   1.954   .     S
O386   Zn392   1.971   .     S
O386   C455    1.300   1_455 S
O387   S388    1.496   .     D
C393   O436    1.297   .     A
C393   C395    1.413   .     S
C394   C396    1.482   .     S
C394   C406    1.412   .     A
C394   C402    1.386   .     A
C395   C5      1.340   1_565 S
C395   S110    1.789   1_565 S
C396   O438    1.302   .     A
C397   C398    1.395   .     S
C398   O439    1.296   .     A
C398   O496    1.284   .     S
C399   O441    1.300   .     A
C399   C401    1.441   .     S
C399   O498    1.300   .     S
C400   C408    1.402   .     A
C400   H420    1.084   .     S
C400   C916    1.383   .     S
C401   C412    1.391   .     A
C401   C411    1.394   .     A
C402   C403    1.381   .     A
C403   C909    1.406   .     S
C403   H927    1.082   .     S
C404   C406    1.421   .     A
C404   C909    1.456   .     S
C404   C911    1.447   .     S
C405   S445    1.782   .     S
C405   C907    1.406   1_554 S
C405   C908    1.456   1_554 S
C406   C410    1.401   .     A
C407   C411    1.385   .     A
C407   C908    1.447   1_554 S
C407   C912    1.432   1_554 S
C408   C409    1.378   .     A
C408   C911    1.432   .     S
C409   C410    1.367   .     A
C409   H419    1.081   .     S
C410   H424    1.072   .     S
C411   H421    1.056   .     S
C412   C904    1.383   1_554 S
C412   H469    1.083   .     S
H414   O429    0.990   .     S
H415   O432    0.990   .     S
H416   O435    0.991   .     S
H417   C61     1.090   1_565 S
H418   N426    1.026   .     S
H422   C458    1.079   .     S
H423   C907    1.082   1_554 S
N425   Zn448   2.040   .     S
N425   N426    1.282   .     D
N425   S444    1.736   .     S
N426   Zn447   2.040   .     S
O427   Zn447   1.962   .     S
O427   C449    1.287   .     S
O428   S444    1.502   .     D
O429   S444    1.681   .     S
O430   S445    1.504   .     D
O431   S445    1.504   .     D
O432   S445    1.677   .     S
O433   S110    1.503   1_565 S
O434   S446    1.499   .     D
O435   S110    1.680   1_565 S
O436   Zn448   1.966   .     S
O437   Zn447   1.971   .     S
O437   C452    1.315   .     S
O438   Zn448   1.954   .     S
O439   Zn447   1.966   .     S
O440   Zn448   1.962   .     S
O441   Zn447   1.954   .     S
O442   Zn448   1.971   .     S
O443   S444    1.496   .     D
C449   O492    1.297   .     A
C449   C451    1.413   .     S
C450   C452    1.482   .     S
C450   C462    1.412   .     A
C450   C458    1.386   .     A
C451   C61     1.340   1_565 S
C451   S166    1.789   1_565 S
C452   O494    1.302   .     A
C453   C454    1.395   .     S
C453   C171    1.340   1_655 S
C454   O495    1.296   .     A
C454   O384    1.284   1_655 S
C455   O497    1.300   .     A
C455   C457    1.441   .     S
C455   O386    1.300   1_655 S
C456   C464    1.402   .     A
C456   H476    1.084   .     S
C456   C972    1.383   .     S
C457   C468    1.391   .     A
C457   C467    1.394   .     A
C458   C459    1.381   .     A
C459   C965    1.406   .     S
C459   H983    1.082   .     S
C460   C462    1.421   .     A
C460   C965    1.456   .     S
C460   C967    1.447   .     S
C461   S501    1.782   .     S
C461   C963    1.406   1_554 S
C461   C964    1.456   1_554 S
C462   C466    1.401   .     A
C463   C467    1.385   .     A
C463   C964    1.447   1_554 S
C463   C968    1.432   1_554 S
C464   C465    1.378   .     A
C464   C967    1.432   .     S
C465   C466    1.367   .     A
C465   H475    1.081   .     S
C466   H480    1.072   .     S
C467   H477    1.056   .     S
C468   C960    1.383   1_554 S
C468   H357    1.083   1_655 S
H470   O485    0.990   .     S
H471   O488    0.990   .     S
H472   O491    0.991   .     S
H473   C117    1.090   1_565 S
H474   N482    1.026   .     S
H478   C346    1.079   1_655 S
H479   C963    1.082   1_554 S
N481   Zn504   2.040   .     S
N481   N482    1.282   .     D
N481   S500    1.736   .     S
N482   Zn503   2.040   .     S
O483   Zn503   1.962   .     S
O483   C337    1.287   1_655 S
O484   S500    1.502   .     D
O485   S500    1.681   .     S
O486   S501    1.504   .     D
O487   S501    1.504   .     D
O488   S501    1.677   .     S
O489   S166    1.503   1_565 S
O490   S502    1.499   .     D
O491   S166    1.680   1_565 S
O492   Zn504   1.966   .     S
O493   Zn503   1.971   .     S
O493   C340    1.315   1_655 S
O494   Zn504   1.954   .     S
O495   Zn503   1.966   .     S
O496   Zn504   1.962   .     S
O497   Zn503   1.954   .     S
O498   Zn504   1.971   .     S
O499   S500    1.496   .     D
C505   O548    1.297   .     A
C505   C507    1.413   .     S
C505   O651    1.287   1_455 S
C506   C508    1.482   .     S
C506   C518    1.412   .     A
C506   C514    1.386   .     A
C507   C789    1.340   1_455 S
C507   S726    1.789   .     S
C508   O550    1.302   .     A
C508   O661    1.315   1_455 S
C509   C510    1.395   .     S
C509   C899    1.340   1_545 S
C509   H865    1.090   1_545 S
C510   O551    1.296   .     A
C510   O608    1.284   .     S
C511   O553    1.300   .     A
C511   C513    1.441   .     S
C511   O610    1.300   .     S
C512   C520    1.402   .     A
C512   H532    1.084   .     S
C512   C20     1.383   1_556 S
C513   C524    1.391   .     A
C513   C523    1.394   .     A
C514   C515    1.381   .     A
C514   H646    1.079   1_455 S
C515   C13     1.406   1_556 S
C515   H31     1.082   1_556 S
C516   C518    1.421   .     A
C516   C13     1.456   1_556 S
C516   C15     1.447   1_556 S
C517   S557    1.782   .     S
C518   C522    1.401   .     A
C519   C523    1.385   .     A
C520   C521    1.378   .     A
C520   C15     1.432   1_556 S
C521   C522    1.367   .     A
C521   H531    1.081   .     S
C522   H536    1.072   .     S
C523   H533    1.056   .     S
C524   H581    1.083   .     S
H525   C636    1.083   1_455 S
H526   O541    0.990   .     S
H527   O544    0.990   .     S
H528   O547    0.991   .     S
H529   C677    1.090   .     S
H530   N538    1.026   .     S
H534   C570    1.079   .     S
N537   Zn560   2.040   .     S
N537   N538    1.282   .     D
N537   S556    1.736   .     S
N538   Zn559   2.040   .     S
O539   Zn559   1.962   .     S
O539   C561    1.287   .     S
O540   S556    1.502   .     D
O541   S556    1.681   .     S
O542   S557    1.504   .     D
O543   S557    1.504   .     D
O544   S557    1.677   .     S
O545   S726    1.503   .     S
O546   S558    1.499   .     D
O547   S726    1.680   .     S
O548   Zn560   1.966   .     S
O549   Zn559   1.971   .     S
O549   C564    1.315   .     S
O550   Zn560   1.954   .     S
O551   Zn559   1.966   .     S
O552   Zn560   1.962   .     S
O552   C622    1.284   1_455 S
O553   Zn559   1.954   .     S
O554   Zn560   1.971   .     S
O554   C623    1.300   1_455 S
O555   S556    1.496   .     D
S558   C843    1.789   1_545 S
S558   O881    1.503   1_545 S
S558   O883    1.680   1_545 S
C561   O604    1.297   .     A
C561   C563    1.413   .     S
C562   C564    1.482   .     S
C562   C574    1.412   .     A
C562   C570    1.386   .     A
C563   C677    1.340   .     S
C563   S782    1.789   .     S
C564   O606    1.302   .     A
C565   C566    1.395   .     S
C565   C955    1.340   1_545 S
C565   H921    1.090   1_545 S
C566   O607    1.296   .     A
C566   O664    1.284   .     S
C567   O609    1.300   .     A
C567   C569    1.441   .     S
C567   O666    1.300   .     S
C568   C576    1.402   .     A
C568   H588    1.084   .     S
C568   C76     1.383   1_556 S
C569   C580    1.391   .     A
C569   C579    1.394   .     A
C570   C571    1.381   .     A
C571   C69     1.406   1_556 S
C571   H87     1.082   1_556 S
C572   C574    1.421   .     A
C572   C69     1.456   1_556 S
C572   C71     1.447   1_556 S
C573   S613    1.782   .     S
C574   C578    1.401   .     A
C575   C579    1.385   .     A
C576   C577    1.378   .     A
C576   C71     1.432   1_556 S
C577   C578    1.367   .     A
C577   H587    1.081   .     S
C578   H592    1.072   .     S
C579   H589    1.056   .     S
C580   H637    1.083   .     S
H582   O597    0.990   .     S
H583   O600    0.990   .     S
H584   O603    0.991   .     S
H585   C733    1.090   .     S
H586   N594    1.026   .     S
H590   C626    1.079   .     S
N593   Zn616   2.040   .     S
N593   N594    1.282   .     D
N593   S612    1.736   .     S
N594   Zn615   2.040   .     S
O595   Zn615   1.962   .     S
O595   C617    1.287   .     S
O596   S612    1.502   .     D
O597   S612    1.681   .     S
O598   S613    1.504   .     D
O599   S613    1.504   .     D
O600   S613    1.677   .     S
O601   S782    1.503   .     S
O602   S614    1.499   .     D
O603   S782    1.680   .     S
O604   Zn616   1.966   .     S
O605   Zn615   1.971   .     S
O605   C620    1.315   .     S
O606   Zn616   1.954   .     S
O607   Zn615   1.966   .     S
O608   Zn616   1.962   .     S
O609   Zn615   1.954   .     S
O610   Zn616   1.971   .     S
O611   S612    1.496   .     D
S614   C899    1.789   1_545 S
S614   O937    1.503   1_545 S
S614   O939    1.680   1_545 S
C617   O660    1.297   .     A
C617   C619    1.413   .     S
C618   C620    1.482   .     S
C618   C630    1.412   .     A
C618   C626    1.386   .     A
C619   C733    1.340   .     S
C619   S838    1.789   .     S
C620   O662    1.302   .     A
C621   C622    1.395   .     S
C621   C843    1.340   1_645 S
C621   H977    1.090   1_545 S
C622   O663    1.296   .     A
C622   O552    1.284   1_655 S
C623   O665    1.300   .     A
C623   C625    1.441   .     S
C623   O554    1.300   1_655 S
C624   C632    1.402   .     A
C624   H644    1.084   .     S
C624   C132    1.383   1_556 S
C625   C636    1.391   .     A
C625   C635    1.394   .     A
C626   C627    1.381   .     A
C627   C125    1.406   1_556 S
C627   H143    1.082   1_556 S
C628   C630    1.421   .     A
C628   C125    1.456   1_556 S
C628   C127    1.447   1_556 S
C629   S669    1.782   .     S
C630   C634    1.401   .     A
C631   C635    1.385   .     A
C632   C633    1.378   .     A
C632   C127    1.432   1_556 S
C633   C634    1.367   .     A
C633   H643    1.081   .     S
C634   H648    1.072   .     S
C635   H645    1.056   .     S
C636   H525    1.083   1_655 S
H638   O653    0.990   .     S
H639   O656    0.990   .     S
H640   O659    0.991   .     S
H641   C789    1.090   .     S
H642   N650    1.026   .     S
H646   C514    1.079   1_655 S
N649   Zn672   2.040   .     S
N649   N650    1.282   .     D
N649   S668    1.736   .     S
N650   Zn671   2.040   .     S
O651   Zn671   1.962   .     S
O651   C505    1.287   1_655 S
O652   S668    1.502   .     D
O653   S668    1.681   .     S
O654   S669    1.504   .     D
O655   S669    1.504   .     D
O656   S669    1.677   .     S
O657   S838    1.503   .     S
O658   S670    1.499   .     D
O659   S838    1.680   .     S
O660   Zn672   1.966   .     S
O661   Zn671   1.971   .     S
O661   C508    1.315   1_655 S
O662   Zn672   1.954   .     S
O663   Zn671   1.966   .     S
O664   Zn672   1.962   .     S
O665   Zn671   1.954   .     S
O666   Zn672   1.971   .     S
O667   S668    1.496   .     D
S670   C955    1.789   1_545 S
S670   O993    1.503   1_545 S
S670   O995    1.680   1_545 S
C673   O716    1.297   .     A
C673   C675    1.413   .     S
C673   O819    1.287   1_455 S
C674   C676    1.482   .     S
C674   C686    1.412   .     A
C674   C682    1.386   .     A
C675   C957    1.340   1_455 S
C675   S894    1.789   .     S
C676   O718    1.302   .     A
C676   O829    1.315   1_455 S
C677   C678    1.395   .     S
C678   O719    1.296   .     A
C678   O776    1.284   .     S
C679   O721    1.300   .     A
C679   C681    1.441   .     S
C679   O778    1.300   .     S
C680   C688    1.402   .     A
C680   H700    1.084   .     S
C680   C188    1.383   1_556 S
C681   C692    1.391   .     A
C681   C691    1.394   .     A
C682   C683    1.381   .     A
C682   H814    1.079   1_455 S
C683   C181    1.406   1_556 S
C683   H199    1.082   1_556 S
C684   C686    1.421   .     A
C684   C181    1.456   1_556 S
C684   C183    1.447   1_556 S
C685   S725    1.782   .     S
C686   C690    1.401   .     A
C687   C691    1.385   .     A
C688   C689    1.378   .     A
C688   C183    1.432   1_556 S
C689   C690    1.367   .     A
C689   H699    1.081   .     S
C690   H704    1.072   .     S
C691   H701    1.056   .     S
C692   H749    1.083   .     S
H693   C804    1.083   1_455 S
H694   O709    0.990   .     S
H695   O712    0.990   .     S
H696   O715    0.991   .     S
H697   C845    1.090   .     S
H698   N706    1.026   .     S
H702   C738    1.079   .     S
N705   Zn728   2.040   .     S
N705   N706    1.282   .     D
N705   S724    1.736   .     S
N706   Zn727   2.040   .     S
O707   Zn727   1.962   .     S
O707   C729    1.287   .     S
O708   S724    1.502   .     D
O709   S724    1.681   .     S
O710   S725    1.504   .     D
O711   S725    1.504   .     D
O712   S725    1.677   .     S
O713   S894    1.503   .     S
O714   S726    1.499   .     D
O715   S894    1.680   .     S
O716   Zn728   1.966   .     S
O717   Zn727   1.971   .     S
O717   C732    1.315   .     S
O718   Zn728   1.954   .     S
O719   Zn727   1.966   .     S
O720   Zn728   1.962   .     S
O720   C790    1.284   1_455 S
O721   Zn727   1.954   .     S
O722   Zn728   1.971   .     S
O722   C791    1.300   1_455 S
O723   S724    1.496   .     D
C729   O772    1.297   .     A
C729   C731    1.413   .     S
C730   C732    1.482   .     S
C730   C742    1.412   .     A
C730   C738    1.386   .     A
C731   C845    1.340   .     S
C731   S950    1.789   .     S
C732   O774    1.302   .     A
C733   C734    1.395   .     S
C734   O775    1.296   .     A
C734   O832    1.284   .     S
C735   O777    1.300   .     A
C735   C737    1.441   .     S
C735   O834    1.300   .     S
C736   C744    1.402   .     A
C736   H756    1.084   .     S
C736   C244    1.383   1_556 S
C737   C748    1.391   .     A
C737   C747    1.394   .     A
C738   C739    1.381   .     A
C739   C237    1.406   1_556 S
C739   H255    1.082   1_556 S
C740   C742    1.421   .     A
C740   C237    1.456   1_556 S
C740   C239    1.447   1_556 S
C741   S781    1.782   .     S
C742   C746    1.401   .     A
C743   C747    1.385   .     A
C744   C745    1.378   .     A
C744   C239    1.432   1_556 S
C745   C746    1.367   .     A
C745   H755    1.081   .     S
C746   H760    1.072   .     S
C747   H757    1.056   .     S
C748   H805    1.083   .     S
H750   O765    0.990   .     S
H751   O768    0.990   .     S
H752   O771    0.991   .     S
H753   C901    1.090   .     S
H754   N762    1.026   .     S
H758   C794    1.079   .     S
N761   Zn784   2.040   .     S
N761   N762    1.282   .     D
N761   S780    1.736   .     S
N762   Zn783   2.040   .     S
O763   Zn783   1.962   .     S
O763   C785    1.287   .     S
O764   S780    1.502   .     D
O765   S780    1.681   .     S
O766   S781    1.504   .     D
O767   S781    1.504   .     D
O768   S781    1.677   .     S
O769   S950    1.503   .     S
O770   S782    1.499   .     D
O771   S950    1.680   .     S
O772   Zn784   1.966   .     S
O773   Zn783   1.971   .     S
O773   C788    1.315   .     S
O774   Zn784   1.954   .     S
O775   Zn783   1.966   .     S
O776   Zn784   1.962   .     S
O777   Zn783   1.954   .     S
O778   Zn784   1.971   .     S
O779   S780    1.496   .     D
C785   O828    1.297   .     A
C785   C787    1.413   .     S
C786   C788    1.482   .     S
C786   C798    1.412   .     A
C786   C794    1.386   .     A
C787   C901    1.340   .     S
C787   S1006   1.789   .     S
C788   O830    1.302   .     A
C789   C790    1.395   .     S
C789   C507    1.340   1_655 S
C790   O831    1.296   .     A
C790   O720    1.284   1_655 S
C791   O833    1.300   .     A
C791   C793    1.441   .     S
C791   O722    1.300   1_655 S
C792   C800    1.402   .     A
C792   H812    1.084   .     S
C792   C300    1.383   1_556 S
C793   C804    1.391   .     A
C793   C803    1.394   .     A
C794   C795    1.381   .     A
C795   C293    1.406   1_556 S
C795   H311    1.082   1_556 S
C796   C798    1.421   .     A
C796   C293    1.456   1_556 S
C796   C295    1.447   1_556 S
C797   S837    1.782   .     S
C798   C802    1.401   .     A
C799   C803    1.385   .     A
C800   C801    1.378   .     A
C800   C295    1.432   1_556 S
C801   C802    1.367   .     A
C801   H811    1.081   .     S
C802   H816    1.072   .     S
C803   H813    1.056   .     S
C804   H693    1.083   1_655 S
H806   O821    0.990   .     S
H807   O824    0.990   .     S
H808   O827    0.991   .     S
H809   C957    1.090   .     S
H810   N818    1.026   .     S
H814   C682    1.079   1_655 S
N817   Zn840   2.040   .     S
N817   N818    1.282   .     D
N817   S836    1.736   .     S
N818   Zn839   2.040   .     S
O819   Zn839   1.962   .     S
O819   C673    1.287   1_655 S
O820   S836    1.502   .     D
O821   S836    1.681   .     S
O822   S837    1.504   .     D
O823   S837    1.504   .     D
O824   S837    1.677   .     S
O825   S1006   1.503   .     S
O826   S838    1.499   .     D
O827   S1006   1.680   .     S
O828   Zn840   1.966   .     S
O829   Zn839   1.971   .     S
O829   C676    1.315   1_655 S
O830   Zn840   1.954   .     S
O831   Zn839   1.966   .     S
O832   Zn840   1.962   .     S
O833   Zn839   1.954   .     S
O834   Zn840   1.971   .     S
O835   S836    1.496   .     D
C841   O884    1.297   .     A
C841   C843    1.413   .     S
C841   O987    1.287   1_455 S
C842   C844    1.482   .     S
C842   C854    1.412   .     A
C842   C850    1.386   .     A
C843   C621    1.340   1_465 S
C843   S558    1.789   1_565 S
C844   O886    1.302   .     A
C844   O997    1.315   1_455 S
C845   C846    1.395   .     S
C846   O887    1.296   .     A
C846   O944    1.284   .     S
C847   O889    1.300   .     A
C847   C849    1.441   .     S
C847   O946    1.300   .     S
C848   C856    1.402   .     A
C848   H868    1.084   .     S
C848   C356    1.383   1_556 S
C849   C860    1.391   .     A
C849   C859    1.394   .     A
C850   C851    1.381   .     A
C850   H982    1.079   1_455 S
C851   C349    1.406   1_556 S
C851   H367    1.082   1_556 S
C852   C854    1.421   .     A
C852   C349    1.456   1_556 S
C852   C351    1.447   1_556 S
C853   S893    1.782   .     S
C854   C858    1.401   .     A
C855   C859    1.385   .     A
C856   C857    1.378   .     A
C856   C351    1.432   1_556 S
C857   C858    1.367   .     A
C857   H867    1.081   .     S
C858   H872    1.072   .     S
C859   H869    1.056   .     S
C860   H917    1.083   .     S
H861   C972    1.083   1_455 S
H862   O877    0.990   .     S
H863   O880    0.990   .     S
H864   O883    0.991   .     S
H865   C509    1.090   1_565 S
H866   N874    1.026   .     S
H870   C906    1.079   .     S
N873   Zn896   2.040   .     S
N873   N874    1.282   .     D
N873   S892    1.736   .     S
N874   Zn895   2.040   .     S
O875   Zn895   1.962   .     S
O875   C897    1.287   .     S
O876   S892    1.502   .     D
O877   S892    1.681   .     S
O878   S893    1.504   .     D
O879   S893    1.504   .     D
O880   S893    1.677   .     S
O881   S558    1.503   1_565 S
O882   S894    1.499   .     D
O883   S558    1.680   1_565 S
O884   Zn896   1.966   .     S
O885   Zn895   1.971   .     S
O885   C900    1.315   .     S
O886   Zn896   1.954   .     S
O887   Zn895   1.966   .     S
O888   Zn896   1.962   .     S
O888   C958    1.284   1_455 S
O889   Zn895   1.954   .     S
O890   Zn896   1.971   .     S
O890   C959    1.300   1_455 S
O891   S892    1.496   .     D
C897   O940    1.297   .     A
C897   C899    1.413   .     S
C898   C900    1.482   .     S
C898   C910    1.412   .     A
C898   C906    1.386   .     A
C899   C509    1.340   1_565 S
C899   S614    1.789   1_565 S
C900   O942    1.302   .     A
C901   C902    1.395   .     S
C902   O943    1.296   .     A
C902   O1000   1.284   .     S
C903   O945    1.300   .     A
C903   C905    1.441   .     S
C903   O1002   1.300   .     S
C904   C912    1.402   .     A
C904   H924    1.084   .     S
C904   C412    1.383   1_556 S
C905   C916    1.391   .     A
C905   C915    1.394   .     A
C906   C907    1.381   .     A
C907   C405    1.406   1_556 S
C907   H423    1.082   1_556 S
C908   C910    1.421   .     A
C908   C405    1.456   1_556 S
C908   C407    1.447   1_556 S
C909   S949    1.782   .     S
C910   C914    1.401   .     A
C911   C915    1.385   .     A
C912   C913    1.378   .     A
C912   C407    1.432   1_556 S
C913   C914    1.367   .     A
C913   H923    1.081   .     S
C914   H928    1.072   .     S
C915   H925    1.056   .     S
C916   H973    1.083   .     S
H918   O933    0.990   .     S
H919   O936    0.990   .     S
H920   O939    0.991   .     S
H921   C565    1.090   1_565 S
H922   N930    1.026   .     S
H926   C962    1.079   .     S
N929   Zn952   2.040   .     S
N929   N930    1.282   .     D
N929   S948    1.736   .     S
N930   Zn951   2.040   .     S
O931   Zn951   1.962   .     S
O931   C953    1.287   .     S
O932   S948    1.502   .     D
O933   S948    1.681   .     S
O934   S949    1.504   .     D
O935   S949    1.504   .     D
O936   S949    1.677   .     S
O937   S614    1.503   1_565 S
O938   S950    1.499   .     D
O939   S614    1.680   1_565 S
O940   Zn952   1.966   .     S
O941   Zn951   1.971   .     S
O941   C956    1.315   .     S
O942   Zn952   1.954   .     S
O943   Zn951   1.966   .     S
O944   Zn952   1.962   .     S
O945   Zn951   1.954   .     S
O946   Zn952   1.971   .     S
O947   S948    1.496   .     D
C953   O996    1.297   .     A
C953   C955    1.413   .     S
C954   C956    1.482   .     S
C954   C966    1.412   .     A
C954   C962    1.386   .     A
C955   C565    1.340   1_565 S
C955   S670    1.789   1_565 S
C956   O998    1.302   .     A
C957   C958    1.395   .     S
C957   C675    1.340   1_655 S
C958   O999    1.296   .     A
C958   O888    1.284   1_655 S
C959   O1001   1.300   .     A
C959   C961    1.441   .     S
C959   O890    1.300   1_655 S
C960   C968    1.402   .     A
C960   H980    1.084   .     S
C960   C468    1.383   1_556 S
C961   C972    1.391   .     A
C961   C971    1.394   .     A
C962   C963    1.381   .     A
C963   C461    1.406   1_556 S
C963   H479    1.082   1_556 S
C964   C966    1.421   .     A
C964   C461    1.456   1_556 S
C964   C463    1.447   1_556 S
C965   S1005   1.782   .     S
C966   C970    1.401   .     A
C967   C971    1.385   .     A
C968   C969    1.378   .     A
C968   C463    1.432   1_556 S
C969   C970    1.367   .     A
C969   H979    1.081   .     S
C970   H984    1.072   .     S
C971   H981    1.056   .     S
C972   H861    1.083   1_655 S
H974   O989    0.990   .     S
H975   O992    0.990   .     S
H976   O995    0.991   .     S
H977   C621    1.090   1_565 S
H978   N986    1.026   .     S
H982   C850    1.079   1_655 S
N985   Zn1008  2.040   .     S
N985   N986    1.282   .     D
N985   S1004   1.736   .     S
N986   Zn1007  2.040   .     S
O987   Zn1007  1.962   .     S
O987   C841    1.287   1_655 S
O988   S1004   1.502   .     D
O989   S1004   1.681   .     S
O990   S1005   1.504   .     D
O991   S1005   1.504   .     D
O992   S1005   1.677   .     S
O993   S670    1.503   1_565 S
O994   S1006   1.499   .     D
O995   S670    1.680   1_565 S
O996   Zn1008  1.966   .     S
O997   Zn1007  1.971   .     S
O997   C844    1.315   1_655 S
O998   Zn1008  1.954   .     S
O999   Zn1007  1.966   .     S
O1000  Zn1008  1.962   .     S
O1001  Zn1007  1.954   .     S
O1002  Zn1008  1.971   .     S
O1003  S1004   1.496   .     D
