data_str_m2_o1_o18_pcu_sym.133
_audit_creation_date              2020-01-03
_audit_creation_method            'Materials Studio'
_symmetry_space_group_name_H-M    'P1'
_symmetry_Int_Tables_number       1
_symmetry_cell_setting            triclinic
loop_
_symmetry_equiv_pos_as_xyz
  x,y,z
_cell_length_a                    28.5408
_cell_length_b                    32.5940
_cell_length_c                    30.9920
_cell_angle_alpha                 89.9661
_cell_angle_beta                  74.5186
_cell_angle_gamma                 89.4070
loop_
_atom_site_label
_atom_site_type_symbol
_atom_site_fract_x
_atom_site_fract_y
_atom_site_fract_z
_atom_site_U_iso_or_equiv
_atom_site_adp_type
_atom_site_occupancy
C1     C     0.00028   0.08736   0.25012   0.00000  Uiso   1.00
C2     C     0.33306   0.24597   0.24987   0.00000  Uiso   1.00
C3     C     0.19524   0.17291   0.04743   0.00000  Uiso   1.00
C4     C     0.14165   0.14147   0.45534   0.00000  Uiso   1.00
C5     C     0.24377   0.17778   0.02483   0.00000  Uiso   1.00
C6     C     0.09327   0.13587   0.47810   0.00000  Uiso   1.00
C7     C     0.29503   0.02227   0.24100   0.00000  Uiso   1.00
C8     C     0.03832   0.31106   0.25895   0.00000  Uiso   1.00
C9     C     0.29319   0.31303   0.24175   0.00000  Uiso   1.00
C10    C     0.04016   0.02031   0.25821   0.00000  Uiso   1.00
C11    C     0.33242   0.29059   0.24997   0.00000  Uiso   1.00
C12    C     0.00092   0.04274   0.24999   0.00000  Uiso   1.00
C13    C     0.18224   0.18910   0.28083   0.00000  Uiso   1.00
C14    C     0.15109   0.14425   0.21917   0.00000  Uiso   1.00
C15    C     0.13264   0.18914   0.28079   0.00000  Uiso   1.00
C16    C     0.20069   0.14420   0.21920   0.00000  Uiso   1.00
C17    C     0.30609   0.16683   0.33608   0.00000  Uiso   1.00
C18    C     0.02724   0.16606   0.16395   0.00000  Uiso   1.00
C19    C     0.29114   0.16760   0.38520   0.00000  Uiso   1.00
C20    C     0.04244   0.16176   0.11510   0.00000  Uiso   1.00
C21    C     0.30830   0.17968   0.45631   0.00000  Uiso   1.00
C22    C     0.02763   0.13904   0.04582   0.00000  Uiso   1.00
C23    C     0.32428   0.17642   0.40991   0.00000  Uiso   1.00
C24    C     0.01053   0.14734   0.09141   0.00000  Uiso   1.00
C25    C     0.24233   0.16079   0.40735   0.00000  Uiso   1.00
C26    C     0.09111   0.16868   0.09271   0.00000  Uiso   1.00
C27    C     0.22545   0.16276   0.45426   0.00000  Uiso   1.00
C28    C     0.10979   0.15898   0.04713   0.00000  Uiso   1.00
C29    C     0.25924   0.17331   0.47858   0.00000  Uiso   1.00
C30    C     0.07683   0.14474   0.02354   0.00000  Uiso   1.00
C31    C     0.17583   0.15586   0.47745   0.00000  Uiso   1.00
C32    C     0.16006   0.16298   0.02448   0.00000  Uiso   1.00
Cu33   Cu    0.04689   0.16667   0.25000   0.00000  Uiso   1.00
Cu34   Cu    0.28645   0.16666   0.25000   0.00000  Uiso   1.00
H35    H     0.26933   0.18562   0.04378   0.00000  Uiso   1.00
H36    H     0.06848   0.12453   0.45986   0.00000  Uiso   1.00
H37    H     0.11358   0.18181   0.11187   0.00000  Uiso   1.00
H38    H     0.21792   0.15518   0.38698   0.00000  Uiso   1.00
H39    H     0.30612   0.14152   0.10827   0.00000  Uiso   1.00
H40    H     0.02885   0.18193   0.39336   0.00000  Uiso   1.00
H41    H     0.00087   0.18780   0.47476   0.00000  Uiso   1.00
H42    H     0.00256   0.12737   0.02809   0.00000  Uiso   1.00
H43    H     0.18689   0.17626   0.08323   0.00000  Uiso   1.00
H44    H     0.15119   0.13298   0.42050   0.00000  Uiso   1.00
H45    H     0.26563   0.03926   0.23296   0.00000  Uiso   1.00
H46    H     0.06773   0.29408   0.26698   0.00000  Uiso   1.00
H47    H     0.19352   0.20710   0.30551   0.00000  Uiso   1.00
H48    H     0.13982   0.12625   0.19447   0.00000  Uiso   1.00
H49    H     0.10658   0.20720   0.30540   0.00000  Uiso   1.00
H50    H     0.22676   0.12614   0.19459   0.00000  Uiso   1.00
N51    N     0.11736   0.16668   0.24999   0.00000  Uiso   1.00
N52    N     0.21597   0.16666   0.25001   0.00000  Uiso   1.00
O53    O     0.03958   0.10655   0.25000   0.00000  Uiso   1.00
O54    O     0.29375   0.22678   0.25000   0.00000  Uiso   1.00
O55    O     0.29372   0.10654   0.25001   0.00000  Uiso   1.00
O56    O     0.03961   0.22679   0.24999   0.00000  Uiso   1.00
O57    O     0.01852   0.16668   0.31491   0.00000  Uiso   1.00
O58    O     0.31481   0.16666   0.18509   0.00000  Uiso   1.00
O59    O     0.27267   0.16667   0.31492   0.00000  Uiso   1.00
O60    O     0.06067   0.16667   0.18508   0.00000  Uiso   1.00
O61    O     0.25509   0.29351   0.23073   0.00000  Uiso   1.00
C62    C     0.21306   0.29729   0.26695   0.00000  Uiso   1.00
H63    H     0.20043   0.32972   0.27239   0.00000  Uiso   1.00
H64    H     0.18343   0.27959   0.25899   0.00000  Uiso   1.00
H65    H     0.21926   0.28435   0.29826   0.00000  Uiso   1.00
O66    O     0.07828   0.03982   0.26920   0.00000  Uiso   1.00
C67    C     0.12027   0.03608   0.23295   0.00000  Uiso   1.00
H68    H     0.14991   0.05377   0.24089   0.00000  Uiso   1.00
H69    H     0.13291   0.00365   0.22745   0.00000  Uiso   1.00
H70    H     0.11403   0.04906   0.20167   0.00000  Uiso   1.00
C71    C     0.33361   0.08736   0.25012   0.00000  Uiso   1.00
C72    C     0.66639   0.24597   0.24987   0.00000  Uiso   1.00
C73    C     0.52857   0.17291   0.04743   0.00000  Uiso   1.00
C74    C     0.47498   0.14147   0.45534   0.00000  Uiso   1.00
C75    C     0.57711   0.17778   0.02483   0.00000  Uiso   1.00
C76    C     0.42661   0.13587   0.47810   0.00000  Uiso   1.00
C77    C     0.62836   0.02227   0.24100   0.00000  Uiso   1.00
C78    C     0.37166   0.31106   0.25895   0.00000  Uiso   1.00
C79    C     0.62653   0.31303   0.24175   0.00000  Uiso   1.00
C80    C     0.37349   0.02031   0.25821   0.00000  Uiso   1.00
C81    C     0.66576   0.29059   0.24997   0.00000  Uiso   1.00
C82    C     0.33426   0.04274   0.24999   0.00000  Uiso   1.00
C83    C     0.51557   0.18910   0.28083   0.00000  Uiso   1.00
C84    C     0.48443   0.14425   0.21917   0.00000  Uiso   1.00
C85    C     0.46597   0.18914   0.28079   0.00000  Uiso   1.00
C86    C     0.53403   0.14420   0.21920   0.00000  Uiso   1.00
C87    C     0.63943   0.16683   0.33608   0.00000  Uiso   1.00
C88    C     0.36058   0.16606   0.16395   0.00000  Uiso   1.00
C89    C     0.62448   0.16760   0.38520   0.00000  Uiso   1.00
C90    C     0.37578   0.16176   0.11510   0.00000  Uiso   1.00
C91    C     0.64163   0.17968   0.45631   0.00000  Uiso   1.00
C92    C     0.36096   0.13904   0.04582   0.00000  Uiso   1.00
C93    C     0.65762   0.17642   0.40991   0.00000  Uiso   1.00
C94    C     0.34387   0.14734   0.09141   0.00000  Uiso   1.00
C95    C     0.57567   0.16079   0.40735   0.00000  Uiso   1.00
C96    C     0.42444   0.16868   0.09271   0.00000  Uiso   1.00
C97    C     0.55878   0.16276   0.45426   0.00000  Uiso   1.00
C98    C     0.44312   0.15898   0.04713   0.00000  Uiso   1.00
C99    C     0.59257   0.17331   0.47858   0.00000  Uiso   1.00
C100   C     0.41016   0.14474   0.02354   0.00000  Uiso   1.00
C101   C     0.50916   0.15586   0.47745   0.00000  Uiso   1.00
C102   C     0.49339   0.16298   0.02448   0.00000  Uiso   1.00
Cu103  Cu    0.38022   0.16667   0.25000   0.00000  Uiso   1.00
Cu104  Cu    0.61978   0.16666   0.25000   0.00000  Uiso   1.00
H105   H     0.60266   0.18562   0.04378   0.00000  Uiso   1.00
H106   H     0.40181   0.12453   0.45986   0.00000  Uiso   1.00
H107   H     0.44692   0.18181   0.11187   0.00000  Uiso   1.00
H108   H     0.55126   0.15518   0.38698   0.00000  Uiso   1.00
H109   H     0.63945   0.14152   0.10827   0.00000  Uiso   1.00
H110   H     0.36219   0.18193   0.39336   0.00000  Uiso   1.00
H111   H     0.33420   0.18780   0.47476   0.00000  Uiso   1.00
H112   H     0.33589   0.12737   0.02809   0.00000  Uiso   1.00
H113   H     0.52023   0.17626   0.08323   0.00000  Uiso   1.00
H114   H     0.48453   0.13298   0.42050   0.00000  Uiso   1.00
H115   H     0.59896   0.03926   0.23296   0.00000  Uiso   1.00
H116   H     0.40106   0.29408   0.26698   0.00000  Uiso   1.00
H117   H     0.52685   0.20710   0.30551   0.00000  Uiso   1.00
H118   H     0.47315   0.12625   0.19447   0.00000  Uiso   1.00
H119   H     0.43991   0.20720   0.30540   0.00000  Uiso   1.00
H120   H     0.56009   0.12614   0.19459   0.00000  Uiso   1.00
N121   N     0.45069   0.16668   0.24999   0.00000  Uiso   1.00
N122   N     0.54931   0.16666   0.25001   0.00000  Uiso   1.00
O123   O     0.37291   0.10655   0.25000   0.00000  Uiso   1.00
O124   O     0.62709   0.22678   0.25000   0.00000  Uiso   1.00
O125   O     0.62706   0.10654   0.25001   0.00000  Uiso   1.00
O126   O     0.37294   0.22679   0.24999   0.00000  Uiso   1.00
O127   O     0.35186   0.16668   0.31491   0.00000  Uiso   1.00
O128   O     0.64814   0.16666   0.18509   0.00000  Uiso   1.00
O129   O     0.60600   0.16667   0.31492   0.00000  Uiso   1.00
O130   O     0.39400   0.16667   0.18508   0.00000  Uiso   1.00
O131   O     0.58842   0.29351   0.23073   0.00000  Uiso   1.00
C132   C     0.54640   0.29729   0.26695   0.00000  Uiso   1.00
H133   H     0.53376   0.32972   0.27239   0.00000  Uiso   1.00
H134   H     0.51677   0.27959   0.25899   0.00000  Uiso   1.00
H135   H     0.55260   0.28435   0.29826   0.00000  Uiso   1.00
O136   O     0.41161   0.03982   0.26920   0.00000  Uiso   1.00
C137   C     0.45360   0.03608   0.23295   0.00000  Uiso   1.00
H138   H     0.48325   0.05377   0.24089   0.00000  Uiso   1.00
H139   H     0.46625   0.00365   0.22745   0.00000  Uiso   1.00
H140   H     0.44736   0.04906   0.20167   0.00000  Uiso   1.00
C141   C     0.66694   0.08736   0.25012   0.00000  Uiso   1.00
C142   C     0.99973   0.24597   0.24987   0.00000  Uiso   1.00
C143   C     0.86190   0.17291   0.04743   0.00000  Uiso   1.00
C144   C     0.80832   0.14147   0.45534   0.00000  Uiso   1.00
C145   C     0.91044   0.17778   0.02483   0.00000  Uiso   1.00
C146   C     0.75994   0.13587   0.47810   0.00000  Uiso   1.00
C147   C     0.96169   0.02227   0.24100   0.00000  Uiso   1.00
C148   C     0.70499   0.31106   0.25895   0.00000  Uiso   1.00
C149   C     0.95986   0.31303   0.24175   0.00000  Uiso   1.00
C150   C     0.70682   0.02031   0.25821   0.00000  Uiso   1.00
C151   C     0.99909   0.29059   0.24997   0.00000  Uiso   1.00
C152   C     0.66759   0.04274   0.24999   0.00000  Uiso   1.00
C153   C     0.84891   0.18910   0.28083   0.00000  Uiso   1.00
C154   C     0.81776   0.14425   0.21917   0.00000  Uiso   1.00
C155   C     0.79931   0.18914   0.28079   0.00000  Uiso   1.00
C156   C     0.86736   0.14420   0.21920   0.00000  Uiso   1.00
C157   C     0.97276   0.16683   0.33608   0.00000  Uiso   1.00
C158   C     0.69391   0.16606   0.16395   0.00000  Uiso   1.00
C159   C     0.95781   0.16760   0.38520   0.00000  Uiso   1.00
C160   C     0.70911   0.16176   0.11510   0.00000  Uiso   1.00
C161   C     0.97496   0.17968   0.45631   0.00000  Uiso   1.00
C162   C     0.69430   0.13904   0.04582   0.00000  Uiso   1.00
C163   C     0.99095   0.17642   0.40991   0.00000  Uiso   1.00
C164   C     0.67720   0.14734   0.09141   0.00000  Uiso   1.00
C165   C     0.90900   0.16079   0.40735   0.00000  Uiso   1.00
C166   C     0.75777   0.16868   0.09271   0.00000  Uiso   1.00
C167   C     0.89211   0.16276   0.45426   0.00000  Uiso   1.00
C168   C     0.77645   0.15898   0.04713   0.00000  Uiso   1.00
C169   C     0.92590   0.17331   0.47858   0.00000  Uiso   1.00
C170   C     0.74350   0.14474   0.02354   0.00000  Uiso   1.00
C171   C     0.84249   0.15586   0.47745   0.00000  Uiso   1.00
C172   C     0.82673   0.16298   0.02448   0.00000  Uiso   1.00
Cu173  Cu    0.71355   0.16667   0.25000   0.00000  Uiso   1.00
Cu174  Cu    0.95311   0.16666   0.25000   0.00000  Uiso   1.00
H175   H     0.93599   0.18562   0.04378   0.00000  Uiso   1.00
H176   H     0.73514   0.12453   0.45986   0.00000  Uiso   1.00
H177   H     0.78025   0.18181   0.11187   0.00000  Uiso   1.00
H178   H     0.88459   0.15518   0.38698   0.00000  Uiso   1.00
H179   H     0.97278   0.14152   0.10827   0.00000  Uiso   1.00
H180   H     0.69552   0.18193   0.39336   0.00000  Uiso   1.00
H181   H     0.66754   0.18780   0.47476   0.00000  Uiso   1.00
H182   H     0.66922   0.12737   0.02809   0.00000  Uiso   1.00
H183   H     0.85356   0.17626   0.08323   0.00000  Uiso   1.00
H184   H     0.81786   0.13298   0.42050   0.00000  Uiso   1.00
H185   H     0.93230   0.03926   0.23296   0.00000  Uiso   1.00
H186   H     0.73439   0.29408   0.26698   0.00000  Uiso   1.00
H187   H     0.86019   0.20710   0.30551   0.00000  Uiso   1.00
H188   H     0.80649   0.12625   0.19447   0.00000  Uiso   1.00
H189   H     0.77324   0.20720   0.30540   0.00000  Uiso   1.00
H190   H     0.89343   0.12614   0.19459   0.00000  Uiso   1.00
N191   N     0.78403   0.16668   0.24999   0.00000  Uiso   1.00
N192   N     0.88264   0.16666   0.25001   0.00000  Uiso   1.00
O193   O     0.70625   0.10655   0.25000   0.00000  Uiso   1.00
O194   O     0.96042   0.22678   0.25000   0.00000  Uiso   1.00
O195   O     0.96039   0.10654   0.25001   0.00000  Uiso   1.00
O196   O     0.70628   0.22679   0.24999   0.00000  Uiso   1.00
O197   O     0.68519   0.16668   0.31491   0.00000  Uiso   1.00
O198   O     0.98148   0.16666   0.18509   0.00000  Uiso   1.00
O199   O     0.93933   0.16667   0.31492   0.00000  Uiso   1.00
O200   O     0.72733   0.16667   0.18508   0.00000  Uiso   1.00
O201   O     0.92175   0.29351   0.23073   0.00000  Uiso   1.00
C202   C     0.87973   0.29729   0.26695   0.00000  Uiso   1.00
H203   H     0.86709   0.32972   0.27239   0.00000  Uiso   1.00
H204   H     0.85010   0.27959   0.25899   0.00000  Uiso   1.00
H205   H     0.88593   0.28435   0.29826   0.00000  Uiso   1.00
O206   O     0.74494   0.03982   0.26920   0.00000  Uiso   1.00
C207   C     0.78693   0.03608   0.23295   0.00000  Uiso   1.00
H208   H     0.81658   0.05377   0.24089   0.00000  Uiso   1.00
H209   H     0.79958   0.00365   0.22745   0.00000  Uiso   1.00
H210   H     0.78069   0.04906   0.20167   0.00000  Uiso   1.00
C211   C     0.00028   0.42070   0.25012   0.00000  Uiso   1.00
C212   C     0.33306   0.57931   0.24987   0.00000  Uiso   1.00
C213   C     0.19524   0.50625   0.04743   0.00000  Uiso   1.00
C214   C     0.14165   0.47481   0.45534   0.00000  Uiso   1.00
C215   C     0.24377   0.51111   0.02483   0.00000  Uiso   1.00
C216   C     0.09327   0.46920   0.47810   0.00000  Uiso   1.00
C217   C     0.29503   0.35561   0.24100   0.00000  Uiso   1.00
C218   C     0.03832   0.64440   0.25895   0.00000  Uiso   1.00
C219   C     0.29319   0.64636   0.24175   0.00000  Uiso   1.00
C220   C     0.04016   0.35364   0.25821   0.00000  Uiso   1.00
C221   C     0.33242   0.62393   0.24997   0.00000  Uiso   1.00
C222   C     0.00092   0.37607   0.24999   0.00000  Uiso   1.00
C223   C     0.18224   0.52243   0.28083   0.00000  Uiso   1.00
C224   C     0.15109   0.47758   0.21917   0.00000  Uiso   1.00
C225   C     0.13264   0.52247   0.28079   0.00000  Uiso   1.00
C226   C     0.20069   0.47753   0.21920   0.00000  Uiso   1.00
C227   C     0.30609   0.50016   0.33608   0.00000  Uiso   1.00
C228   C     0.02724   0.49940   0.16395   0.00000  Uiso   1.00
C229   C     0.29114   0.50093   0.38520   0.00000  Uiso   1.00
C230   C     0.04244   0.49510   0.11510   0.00000  Uiso   1.00
C231   C     0.30830   0.51301   0.45631   0.00000  Uiso   1.00
C232   C     0.02763   0.47237   0.04582   0.00000  Uiso   1.00
C233   C     0.32428   0.50976   0.40991   0.00000  Uiso   1.00
C234   C     0.01053   0.48068   0.09141   0.00000  Uiso   1.00
C235   C     0.24233   0.49412   0.40735   0.00000  Uiso   1.00
C236   C     0.09111   0.50201   0.09271   0.00000  Uiso   1.00
C237   C     0.22545   0.49609   0.45426   0.00000  Uiso   1.00
C238   C     0.10979   0.49231   0.04713   0.00000  Uiso   1.00
C239   C     0.25924   0.50664   0.47858   0.00000  Uiso   1.00
C240   C     0.07683   0.47807   0.02354   0.00000  Uiso   1.00
C241   C     0.17583   0.48919   0.47745   0.00000  Uiso   1.00
C242   C     0.16006   0.49631   0.02448   0.00000  Uiso   1.00
Cu243  Cu    0.04689   0.50001   0.25000   0.00000  Uiso   1.00
Cu244  Cu    0.28645   0.49999   0.25000   0.00000  Uiso   1.00
H245   H     0.26933   0.51895   0.04378   0.00000  Uiso   1.00
H246   H     0.06848   0.45786   0.45986   0.00000  Uiso   1.00
H247   H     0.11358   0.51514   0.11187   0.00000  Uiso   1.00
H248   H     0.21792   0.48851   0.38698   0.00000  Uiso   1.00
H249   H     0.30612   0.47485   0.10827   0.00000  Uiso   1.00
H250   H     0.02885   0.51527   0.39336   0.00000  Uiso   1.00
H251   H     0.00087   0.52114   0.47476   0.00000  Uiso   1.00
H252   H     0.00256   0.46071   0.02809   0.00000  Uiso   1.00
H253   H     0.18689   0.50959   0.08323   0.00000  Uiso   1.00
H254   H     0.15119   0.46631   0.42050   0.00000  Uiso   1.00
H255   H     0.26563   0.37259   0.23296   0.00000  Uiso   1.00
H256   H     0.06773   0.62741   0.26698   0.00000  Uiso   1.00
H257   H     0.19352   0.54044   0.30551   0.00000  Uiso   1.00
H258   H     0.13982   0.45958   0.19447   0.00000  Uiso   1.00
H259   H     0.10658   0.54054   0.30540   0.00000  Uiso   1.00
H260   H     0.22676   0.45947   0.19459   0.00000  Uiso   1.00
N261   N     0.11736   0.50001   0.24999   0.00000  Uiso   1.00
N262   N     0.21597   0.49999   0.25001   0.00000  Uiso   1.00
O263   O     0.03958   0.43989   0.25000   0.00000  Uiso   1.00
O264   O     0.29375   0.56011   0.25000   0.00000  Uiso   1.00
O265   O     0.29372   0.43988   0.25001   0.00000  Uiso   1.00
O266   O     0.03961   0.56012   0.24999   0.00000  Uiso   1.00
O267   O     0.01852   0.50001   0.31491   0.00000  Uiso   1.00
O268   O     0.31481   0.49999   0.18509   0.00000  Uiso   1.00
O269   O     0.27267   0.50000   0.31492   0.00000  Uiso   1.00
O270   O     0.06067   0.50000   0.18508   0.00000  Uiso   1.00
O271   O     0.25509   0.62685   0.23073   0.00000  Uiso   1.00
C272   C     0.21306   0.63062   0.26695   0.00000  Uiso   1.00
H273   H     0.20043   0.66305   0.27239   0.00000  Uiso   1.00
H274   H     0.18343   0.61292   0.25899   0.00000  Uiso   1.00
H275   H     0.21926   0.61768   0.29826   0.00000  Uiso   1.00
O276   O     0.07828   0.37315   0.26920   0.00000  Uiso   1.00
C277   C     0.12027   0.36941   0.23295   0.00000  Uiso   1.00
H278   H     0.14991   0.38710   0.24089   0.00000  Uiso   1.00
H279   H     0.13291   0.33699   0.22745   0.00000  Uiso   1.00
H280   H     0.11403   0.38239   0.20167   0.00000  Uiso   1.00
C281   C     0.33361   0.42070   0.25012   0.00000  Uiso   1.00
C282   C     0.66639   0.57931   0.24987   0.00000  Uiso   1.00
C283   C     0.52857   0.50625   0.04743   0.00000  Uiso   1.00
C284   C     0.47498   0.47481   0.45534   0.00000  Uiso   1.00
C285   C     0.57711   0.51111   0.02483   0.00000  Uiso   1.00
C286   C     0.42661   0.46920   0.47810   0.00000  Uiso   1.00
C287   C     0.62836   0.35561   0.24100   0.00000  Uiso   1.00
C288   C     0.37166   0.64440   0.25895   0.00000  Uiso   1.00
C289   C     0.62653   0.64636   0.24175   0.00000  Uiso   1.00
C290   C     0.37349   0.35364   0.25821   0.00000  Uiso   1.00
C291   C     0.66576   0.62393   0.24997   0.00000  Uiso   1.00
C292   C     0.33426   0.37607   0.24999   0.00000  Uiso   1.00
C293   C     0.51557   0.52243   0.28083   0.00000  Uiso   1.00
C294   C     0.48443   0.47758   0.21917   0.00000  Uiso   1.00
C295   C     0.46597   0.52247   0.28079   0.00000  Uiso   1.00
C296   C     0.53403   0.47753   0.21920   0.00000  Uiso   1.00
C297   C     0.63943   0.50016   0.33608   0.00000  Uiso   1.00
C298   C     0.36058   0.49940   0.16395   0.00000  Uiso   1.00
C299   C     0.62448   0.50093   0.38520   0.00000  Uiso   1.00
C300   C     0.37578   0.49510   0.11510   0.00000  Uiso   1.00
C301   C     0.64163   0.51301   0.45631   0.00000  Uiso   1.00
C302   C     0.36096   0.47237   0.04582   0.00000  Uiso   1.00
C303   C     0.65762   0.50976   0.40991   0.00000  Uiso   1.00
C304   C     0.34387   0.48068   0.09141   0.00000  Uiso   1.00
C305   C     0.57567   0.49412   0.40735   0.00000  Uiso   1.00
C306   C     0.42444   0.50201   0.09271   0.00000  Uiso   1.00
C307   C     0.55878   0.49609   0.45426   0.00000  Uiso   1.00
C308   C     0.44312   0.49231   0.04713   0.00000  Uiso   1.00
C309   C     0.59257   0.50664   0.47858   0.00000  Uiso   1.00
C310   C     0.41016   0.47807   0.02354   0.00000  Uiso   1.00
C311   C     0.50916   0.48919   0.47745   0.00000  Uiso   1.00
C312   C     0.49339   0.49631   0.02448   0.00000  Uiso   1.00
Cu313  Cu    0.38022   0.50001   0.25000   0.00000  Uiso   1.00
Cu314  Cu    0.61978   0.49999   0.25000   0.00000  Uiso   1.00
H315   H     0.60266   0.51895   0.04378   0.00000  Uiso   1.00
H316   H     0.40181   0.45786   0.45986   0.00000  Uiso   1.00
H317   H     0.44692   0.51514   0.11187   0.00000  Uiso   1.00
H318   H     0.55126   0.48851   0.38698   0.00000  Uiso   1.00
H319   H     0.63945   0.47485   0.10827   0.00000  Uiso   1.00
H320   H     0.36219   0.51527   0.39336   0.00000  Uiso   1.00
H321   H     0.33420   0.52114   0.47476   0.00000  Uiso   1.00
H322   H     0.33589   0.46071   0.02809   0.00000  Uiso   1.00
H323   H     0.52023   0.50959   0.08323   0.00000  Uiso   1.00
H324   H     0.48453   0.46631   0.42050   0.00000  Uiso   1.00
H325   H     0.59896   0.37259   0.23296   0.00000  Uiso   1.00
H326   H     0.40106   0.62741   0.26698   0.00000  Uiso   1.00
H327   H     0.52685   0.54044   0.30551   0.00000  Uiso   1.00
H328   H     0.47315   0.45958   0.19447   0.00000  Uiso   1.00
H329   H     0.43991   0.54054   0.30540   0.00000  Uiso   1.00
H330   H     0.56009   0.45947   0.19459   0.00000  Uiso   1.00
N331   N     0.45069   0.50001   0.24999   0.00000  Uiso   1.00
N332   N     0.54931   0.49999   0.25001   0.00000  Uiso   1.00
O333   O     0.37291   0.43989   0.25000   0.00000  Uiso   1.00
O334   O     0.62709   0.56011   0.25000   0.00000  Uiso   1.00
O335   O     0.62706   0.43988   0.25001   0.00000  Uiso   1.00
O336   O     0.37294   0.56012   0.24999   0.00000  Uiso   1.00
O337   O     0.35186   0.50001   0.31491   0.00000  Uiso   1.00
O338   O     0.64814   0.49999   0.18509   0.00000  Uiso   1.00
O339   O     0.60600   0.50000   0.31492   0.00000  Uiso   1.00
O340   O     0.39400   0.50000   0.18508   0.00000  Uiso   1.00
O341   O     0.58842   0.62685   0.23073   0.00000  Uiso   1.00
C342   C     0.54640   0.63062   0.26695   0.00000  Uiso   1.00
H343   H     0.53376   0.66305   0.27239   0.00000  Uiso   1.00
H344   H     0.51677   0.61292   0.25899   0.00000  Uiso   1.00
H345   H     0.55260   0.61768   0.29826   0.00000  Uiso   1.00
O346   O     0.41161   0.37315   0.26920   0.00000  Uiso   1.00
C347   C     0.45360   0.36941   0.23295   0.00000  Uiso   1.00
H348   H     0.48325   0.38710   0.24089   0.00000  Uiso   1.00
H349   H     0.46625   0.33699   0.22745   0.00000  Uiso   1.00
H350   H     0.44736   0.38239   0.20167   0.00000  Uiso   1.00
C351   C     0.66694   0.42070   0.25012   0.00000  Uiso   1.00
C352   C     0.99973   0.57931   0.24987   0.00000  Uiso   1.00
C353   C     0.86190   0.50625   0.04743   0.00000  Uiso   1.00
C354   C     0.80832   0.47481   0.45534   0.00000  Uiso   1.00
C355   C     0.91044   0.51111   0.02483   0.00000  Uiso   1.00
C356   C     0.75994   0.46920   0.47810   0.00000  Uiso   1.00
C357   C     0.96169   0.35561   0.24100   0.00000  Uiso   1.00
C358   C     0.70499   0.64440   0.25895   0.00000  Uiso   1.00
C359   C     0.95986   0.64636   0.24175   0.00000  Uiso   1.00
C360   C     0.70682   0.35364   0.25821   0.00000  Uiso   1.00
C361   C     0.99909   0.62393   0.24997   0.00000  Uiso   1.00
C362   C     0.66759   0.37607   0.24999   0.00000  Uiso   1.00
C363   C     0.84891   0.52243   0.28083   0.00000  Uiso   1.00
C364   C     0.81776   0.47758   0.21917   0.00000  Uiso   1.00
C365   C     0.79931   0.52247   0.28079   0.00000  Uiso   1.00
C366   C     0.86736   0.47753   0.21920   0.00000  Uiso   1.00
C367   C     0.97276   0.50016   0.33608   0.00000  Uiso   1.00
C368   C     0.69391   0.49940   0.16395   0.00000  Uiso   1.00
C369   C     0.95781   0.50093   0.38520   0.00000  Uiso   1.00
C370   C     0.70911   0.49510   0.11510   0.00000  Uiso   1.00
C371   C     0.97496   0.51301   0.45631   0.00000  Uiso   1.00
C372   C     0.69430   0.47237   0.04582   0.00000  Uiso   1.00
C373   C     0.99095   0.50976   0.40991   0.00000  Uiso   1.00
C374   C     0.67720   0.48068   0.09141   0.00000  Uiso   1.00
C375   C     0.90900   0.49412   0.40735   0.00000  Uiso   1.00
C376   C     0.75777   0.50201   0.09271   0.00000  Uiso   1.00
C377   C     0.89211   0.49609   0.45426   0.00000  Uiso   1.00
C378   C     0.77645   0.49231   0.04713   0.00000  Uiso   1.00
C379   C     0.92590   0.50664   0.47858   0.00000  Uiso   1.00
C380   C     0.74350   0.47807   0.02354   0.00000  Uiso   1.00
C381   C     0.84249   0.48919   0.47745   0.00000  Uiso   1.00
C382   C     0.82673   0.49631   0.02448   0.00000  Uiso   1.00
Cu383  Cu    0.71355   0.50001   0.25000   0.00000  Uiso   1.00
Cu384  Cu    0.95311   0.49999   0.25000   0.00000  Uiso   1.00
H385   H     0.93599   0.51895   0.04378   0.00000  Uiso   1.00
H386   H     0.73514   0.45786   0.45986   0.00000  Uiso   1.00
H387   H     0.78025   0.51514   0.11187   0.00000  Uiso   1.00
H388   H     0.88459   0.48851   0.38698   0.00000  Uiso   1.00
H389   H     0.97278   0.47485   0.10827   0.00000  Uiso   1.00
H390   H     0.69552   0.51527   0.39336   0.00000  Uiso   1.00
H391   H     0.66754   0.52114   0.47476   0.00000  Uiso   1.00
H392   H     0.66922   0.46071   0.02809   0.00000  Uiso   1.00
H393   H     0.85356   0.50959   0.08323   0.00000  Uiso   1.00
H394   H     0.81786   0.46631   0.42050   0.00000  Uiso   1.00
H395   H     0.93230   0.37259   0.23296   0.00000  Uiso   1.00
H396   H     0.73439   0.62741   0.26698   0.00000  Uiso   1.00
H397   H     0.86019   0.54044   0.30551   0.00000  Uiso   1.00
H398   H     0.80649   0.45958   0.19447   0.00000  Uiso   1.00
H399   H     0.77324   0.54054   0.30540   0.00000  Uiso   1.00
H400   H     0.89343   0.45947   0.19459   0.00000  Uiso   1.00
N401   N     0.78403   0.50001   0.24999   0.00000  Uiso   1.00
N402   N     0.88264   0.49999   0.25001   0.00000  Uiso   1.00
O403   O     0.70625   0.43989   0.25000   0.00000  Uiso   1.00
O404   O     0.96042   0.56011   0.25000   0.00000  Uiso   1.00
O405   O     0.96039   0.43988   0.25001   0.00000  Uiso   1.00
O406   O     0.70628   0.56012   0.24999   0.00000  Uiso   1.00
O407   O     0.68519   0.50001   0.31491   0.00000  Uiso   1.00
O408   O     0.98148   0.49999   0.18509   0.00000  Uiso   1.00
O409   O     0.93933   0.50000   0.31492   0.00000  Uiso   1.00
O410   O     0.72733   0.50000   0.18508   0.00000  Uiso   1.00
O411   O     0.92175   0.62685   0.23073   0.00000  Uiso   1.00
C412   C     0.87973   0.63062   0.26695   0.00000  Uiso   1.00
H413   H     0.86709   0.66305   0.27239   0.00000  Uiso   1.00
H414   H     0.85010   0.61292   0.25899   0.00000  Uiso   1.00
H415   H     0.88593   0.61768   0.29826   0.00000  Uiso   1.00
O416   O     0.74494   0.37315   0.26920   0.00000  Uiso   1.00
C417   C     0.78693   0.36941   0.23295   0.00000  Uiso   1.00
H418   H     0.81658   0.38710   0.24089   0.00000  Uiso   1.00
H419   H     0.79958   0.33699   0.22745   0.00000  Uiso   1.00
H420   H     0.78069   0.38239   0.20167   0.00000  Uiso   1.00
C421   C     0.00028   0.75403   0.25012   0.00000  Uiso   1.00
C422   C     0.33306   0.91264   0.24987   0.00000  Uiso   1.00
C423   C     0.19524   0.83958   0.04743   0.00000  Uiso   1.00
C424   C     0.14165   0.80814   0.45534   0.00000  Uiso   1.00
C425   C     0.24377   0.84444   0.02483   0.00000  Uiso   1.00
C426   C     0.09327   0.80253   0.47810   0.00000  Uiso   1.00
C427   C     0.29503   0.68894   0.24100   0.00000  Uiso   1.00
C428   C     0.03832   0.97773   0.25895   0.00000  Uiso   1.00
C429   C     0.29319   0.97969   0.24175   0.00000  Uiso   1.00
C430   C     0.04016   0.68698   0.25821   0.00000  Uiso   1.00
C431   C     0.33242   0.95726   0.24997   0.00000  Uiso   1.00
C432   C     0.00092   0.70941   0.24999   0.00000  Uiso   1.00
C433   C     0.18224   0.85576   0.28083   0.00000  Uiso   1.00
C434   C     0.15109   0.81091   0.21917   0.00000  Uiso   1.00
C435   C     0.13264   0.85581   0.28079   0.00000  Uiso   1.00
C436   C     0.20069   0.81086   0.21920   0.00000  Uiso   1.00
C437   C     0.30609   0.83349   0.33608   0.00000  Uiso   1.00
C438   C     0.02724   0.83273   0.16395   0.00000  Uiso   1.00
C439   C     0.29114   0.83426   0.38520   0.00000  Uiso   1.00
C440   C     0.04244   0.82843   0.11510   0.00000  Uiso   1.00
C441   C     0.30830   0.84634   0.45631   0.00000  Uiso   1.00
C442   C     0.02763   0.80571   0.04582   0.00000  Uiso   1.00
C443   C     0.32428   0.84309   0.40991   0.00000  Uiso   1.00
C444   C     0.01053   0.81401   0.09141   0.00000  Uiso   1.00
C445   C     0.24233   0.82745   0.40735   0.00000  Uiso   1.00
C446   C     0.09111   0.83535   0.09271   0.00000  Uiso   1.00
C447   C     0.22545   0.82943   0.45426   0.00000  Uiso   1.00
C448   C     0.10979   0.82565   0.04713   0.00000  Uiso   1.00
C449   C     0.25924   0.83998   0.47858   0.00000  Uiso   1.00
C450   C     0.07683   0.81140   0.02354   0.00000  Uiso   1.00
C451   C     0.17583   0.82253   0.47745   0.00000  Uiso   1.00
C452   C     0.16006   0.82964   0.02448   0.00000  Uiso   1.00
Cu453  Cu    0.04689   0.83334   0.25000   0.00000  Uiso   1.00
Cu454  Cu    0.28645   0.83333   0.25000   0.00000  Uiso   1.00
H455   H     0.26933   0.85228   0.04378   0.00000  Uiso   1.00
H456   H     0.06848   0.79119   0.45986   0.00000  Uiso   1.00
H457   H     0.11358   0.84847   0.11187   0.00000  Uiso   1.00
H458   H     0.21792   0.82185   0.38698   0.00000  Uiso   1.00
H459   H     0.30612   0.80819   0.10827   0.00000  Uiso   1.00
H460   H     0.02885   0.84860   0.39336   0.00000  Uiso   1.00
H461   H     0.00087   0.85447   0.47476   0.00000  Uiso   1.00
H462   H     0.00256   0.79404   0.02809   0.00000  Uiso   1.00
H463   H     0.18689   0.84292   0.08323   0.00000  Uiso   1.00
H464   H     0.15119   0.79964   0.42050   0.00000  Uiso   1.00
H465   H     0.26563   0.70593   0.23296   0.00000  Uiso   1.00
H466   H     0.06773   0.96075   0.26698   0.00000  Uiso   1.00
H467   H     0.19352   0.87377   0.30551   0.00000  Uiso   1.00
H468   H     0.13982   0.79292   0.19447   0.00000  Uiso   1.00
H469   H     0.10658   0.87387   0.30540   0.00000  Uiso   1.00
H470   H     0.22676   0.79280   0.19459   0.00000  Uiso   1.00
N471   N     0.11736   0.83334   0.24999   0.00000  Uiso   1.00
N472   N     0.21597   0.83332   0.25001   0.00000  Uiso   1.00
O473   O     0.03958   0.77322   0.25000   0.00000  Uiso   1.00
O474   O     0.29375   0.89345   0.25000   0.00000  Uiso   1.00
O475   O     0.29372   0.77321   0.25001   0.00000  Uiso   1.00
O476   O     0.03961   0.89346   0.24999   0.00000  Uiso   1.00
O477   O     0.01852   0.83334   0.31491   0.00000  Uiso   1.00
O478   O     0.31481   0.83332   0.18509   0.00000  Uiso   1.00
O479   O     0.27267   0.83333   0.31492   0.00000  Uiso   1.00
O480   O     0.06067   0.83333   0.18508   0.00000  Uiso   1.00
O481   O     0.25509   0.96018   0.23073   0.00000  Uiso   1.00
C482   C     0.21306   0.96396   0.26695   0.00000  Uiso   1.00
H483   H     0.20043   0.99639   0.27239   0.00000  Uiso   1.00
H484   H     0.18343   0.94626   0.25899   0.00000  Uiso   1.00
H485   H     0.21926   0.95101   0.29826   0.00000  Uiso   1.00
O486   O     0.07828   0.70648   0.26920   0.00000  Uiso   1.00
C487   C     0.12027   0.70275   0.23295   0.00000  Uiso   1.00
H488   H     0.14991   0.72043   0.24089   0.00000  Uiso   1.00
H489   H     0.13291   0.67032   0.22745   0.00000  Uiso   1.00
H490   H     0.11403   0.71572   0.20167   0.00000  Uiso   1.00
C491   C     0.33361   0.75403   0.25012   0.00000  Uiso   1.00
C492   C     0.66639   0.91264   0.24987   0.00000  Uiso   1.00
C493   C     0.52857   0.83958   0.04743   0.00000  Uiso   1.00
C494   C     0.47498   0.80814   0.45534   0.00000  Uiso   1.00
C495   C     0.57711   0.84444   0.02483   0.00000  Uiso   1.00
C496   C     0.42661   0.80253   0.47810   0.00000  Uiso   1.00
C497   C     0.62836   0.68894   0.24100   0.00000  Uiso   1.00
C498   C     0.37166   0.97773   0.25895   0.00000  Uiso   1.00
C499   C     0.62653   0.97969   0.24175   0.00000  Uiso   1.00
C500   C     0.37349   0.68698   0.25821   0.00000  Uiso   1.00
C501   C     0.66576   0.95726   0.24997   0.00000  Uiso   1.00
C502   C     0.33426   0.70941   0.24999   0.00000  Uiso   1.00
C503   C     0.51557   0.85576   0.28083   0.00000  Uiso   1.00
C504   C     0.48443   0.81091   0.21917   0.00000  Uiso   1.00
C505   C     0.46597   0.85581   0.28079   0.00000  Uiso   1.00
C506   C     0.53403   0.81086   0.21920   0.00000  Uiso   1.00
C507   C     0.63943   0.83349   0.33608   0.00000  Uiso   1.00
C508   C     0.36058   0.83273   0.16395   0.00000  Uiso   1.00
C509   C     0.62448   0.83426   0.38520   0.00000  Uiso   1.00
C510   C     0.37578   0.82843   0.11510   0.00000  Uiso   1.00
C511   C     0.64163   0.84634   0.45631   0.00000  Uiso   1.00
C512   C     0.36096   0.80571   0.04582   0.00000  Uiso   1.00
C513   C     0.65762   0.84309   0.40991   0.00000  Uiso   1.00
C514   C     0.34387   0.81401   0.09141   0.00000  Uiso   1.00
C515   C     0.57567   0.82745   0.40735   0.00000  Uiso   1.00
C516   C     0.42444   0.83535   0.09271   0.00000  Uiso   1.00
C517   C     0.55878   0.82943   0.45426   0.00000  Uiso   1.00
C518   C     0.44312   0.82565   0.04713   0.00000  Uiso   1.00
C519   C     0.59257   0.83998   0.47858   0.00000  Uiso   1.00
C520   C     0.41016   0.81140   0.02354   0.00000  Uiso   1.00
C521   C     0.50916   0.82253   0.47745   0.00000  Uiso   1.00
C522   C     0.49339   0.82964   0.02448   0.00000  Uiso   1.00
Cu523  Cu    0.38022   0.83334   0.25000   0.00000  Uiso   1.00
Cu524  Cu    0.61978   0.83333   0.25000   0.00000  Uiso   1.00
H525   H     0.60266   0.85228   0.04378   0.00000  Uiso   1.00
H526   H     0.40181   0.79119   0.45986   0.00000  Uiso   1.00
H527   H     0.44692   0.84847   0.11187   0.00000  Uiso   1.00
H528   H     0.55126   0.82185   0.38698   0.00000  Uiso   1.00
H529   H     0.63945   0.80819   0.10827   0.00000  Uiso   1.00
H530   H     0.36219   0.84860   0.39336   0.00000  Uiso   1.00
H531   H     0.33420   0.85447   0.47476   0.00000  Uiso   1.00
H532   H     0.33589   0.79404   0.02809   0.00000  Uiso   1.00
H533   H     0.52023   0.84292   0.08323   0.00000  Uiso   1.00
H534   H     0.48453   0.79964   0.42050   0.00000  Uiso   1.00
H535   H     0.59896   0.70593   0.23296   0.00000  Uiso   1.00
H536   H     0.40106   0.96075   0.26698   0.00000  Uiso   1.00
H537   H     0.52685   0.87377   0.30551   0.00000  Uiso   1.00
H538   H     0.47315   0.79292   0.19447   0.00000  Uiso   1.00
H539   H     0.43991   0.87387   0.30540   0.00000  Uiso   1.00
H540   H     0.56009   0.79280   0.19459   0.00000  Uiso   1.00
N541   N     0.45069   0.83334   0.24999   0.00000  Uiso   1.00
N542   N     0.54931   0.83332   0.25001   0.00000  Uiso   1.00
O543   O     0.37291   0.77322   0.25000   0.00000  Uiso   1.00
O544   O     0.62709   0.89345   0.25000   0.00000  Uiso   1.00
O545   O     0.62706   0.77321   0.25001   0.00000  Uiso   1.00
O546   O     0.37294   0.89346   0.24999   0.00000  Uiso   1.00
O547   O     0.35186   0.83334   0.31491   0.00000  Uiso   1.00
O548   O     0.64814   0.83332   0.18509   0.00000  Uiso   1.00
O549   O     0.60600   0.83333   0.31492   0.00000  Uiso   1.00
O550   O     0.39400   0.83333   0.18508   0.00000  Uiso   1.00
O551   O     0.58842   0.96018   0.23073   0.00000  Uiso   1.00
C552   C     0.54640   0.96396   0.26695   0.00000  Uiso   1.00
H553   H     0.53376   0.99639   0.27239   0.00000  Uiso   1.00
H554   H     0.51677   0.94626   0.25899   0.00000  Uiso   1.00
H555   H     0.55260   0.95101   0.29826   0.00000  Uiso   1.00
O556   O     0.41161   0.70648   0.26920   0.00000  Uiso   1.00
C557   C     0.45360   0.70275   0.23295   0.00000  Uiso   1.00
H558   H     0.48325   0.72043   0.24089   0.00000  Uiso   1.00
H559   H     0.46625   0.67032   0.22745   0.00000  Uiso   1.00
H560   H     0.44736   0.71572   0.20167   0.00000  Uiso   1.00
C561   C     0.66694   0.75403   0.25012   0.00000  Uiso   1.00
C562   C     0.99973   0.91264   0.24987   0.00000  Uiso   1.00
C563   C     0.86190   0.83958   0.04743   0.00000  Uiso   1.00
C564   C     0.80832   0.80814   0.45534   0.00000  Uiso   1.00
C565   C     0.91044   0.84444   0.02483   0.00000  Uiso   1.00
C566   C     0.75994   0.80253   0.47810   0.00000  Uiso   1.00
C567   C     0.96169   0.68894   0.24100   0.00000  Uiso   1.00
C568   C     0.70499   0.97773   0.25895   0.00000  Uiso   1.00
C569   C     0.95986   0.97969   0.24175   0.00000  Uiso   1.00
C570   C     0.70682   0.68698   0.25821   0.00000  Uiso   1.00
C571   C     0.99909   0.95726   0.24997   0.00000  Uiso   1.00
C572   C     0.66759   0.70941   0.24999   0.00000  Uiso   1.00
C573   C     0.84891   0.85576   0.28083   0.00000  Uiso   1.00
C574   C     0.81776   0.81091   0.21917   0.00000  Uiso   1.00
C575   C     0.79931   0.85581   0.28079   0.00000  Uiso   1.00
C576   C     0.86736   0.81086   0.21920   0.00000  Uiso   1.00
C577   C     0.97276   0.83349   0.33608   0.00000  Uiso   1.00
C578   C     0.69391   0.83273   0.16395   0.00000  Uiso   1.00
C579   C     0.95781   0.83426   0.38520   0.00000  Uiso   1.00
C580   C     0.70911   0.82843   0.11510   0.00000  Uiso   1.00
C581   C     0.97496   0.84634   0.45631   0.00000  Uiso   1.00
C582   C     0.69430   0.80571   0.04582   0.00000  Uiso   1.00
C583   C     0.99095   0.84309   0.40991   0.00000  Uiso   1.00
C584   C     0.67720   0.81401   0.09141   0.00000  Uiso   1.00
C585   C     0.90900   0.82745   0.40735   0.00000  Uiso   1.00
C586   C     0.75777   0.83535   0.09271   0.00000  Uiso   1.00
C587   C     0.89211   0.82943   0.45426   0.00000  Uiso   1.00
C588   C     0.77645   0.82565   0.04713   0.00000  Uiso   1.00
C589   C     0.92590   0.83998   0.47858   0.00000  Uiso   1.00
C590   C     0.74350   0.81140   0.02354   0.00000  Uiso   1.00
C591   C     0.84249   0.82253   0.47745   0.00000  Uiso   1.00
C592   C     0.82673   0.82964   0.02448   0.00000  Uiso   1.00
Cu593  Cu    0.71355   0.83334   0.25000   0.00000  Uiso   1.00
Cu594  Cu    0.95311   0.83333   0.25000   0.00000  Uiso   1.00
H595   H     0.93599   0.85228   0.04378   0.00000  Uiso   1.00
H596   H     0.73514   0.79119   0.45986   0.00000  Uiso   1.00
H597   H     0.78025   0.84847   0.11187   0.00000  Uiso   1.00
H598   H     0.88459   0.82185   0.38698   0.00000  Uiso   1.00
H599   H     0.97278   0.80819   0.10827   0.00000  Uiso   1.00
H600   H     0.69552   0.84860   0.39336   0.00000  Uiso   1.00
H601   H     0.66754   0.85447   0.47476   0.00000  Uiso   1.00
H602   H     0.66922   0.79404   0.02809   0.00000  Uiso   1.00
H603   H     0.85356   0.84292   0.08323   0.00000  Uiso   1.00
H604   H     0.81786   0.79964   0.42050   0.00000  Uiso   1.00
H605   H     0.93230   0.70593   0.23296   0.00000  Uiso   1.00
H606   H     0.73439   0.96075   0.26698   0.00000  Uiso   1.00
H607   H     0.86019   0.87377   0.30551   0.00000  Uiso   1.00
H608   H     0.80649   0.79292   0.19447   0.00000  Uiso   1.00
H609   H     0.77324   0.87387   0.30540   0.00000  Uiso   1.00
H610   H     0.89343   0.79280   0.19459   0.00000  Uiso   1.00
N611   N     0.78403   0.83334   0.24999   0.00000  Uiso   1.00
N612   N     0.88264   0.83332   0.25001   0.00000  Uiso   1.00
O613   O     0.70625   0.77322   0.25000   0.00000  Uiso   1.00
O614   O     0.96042   0.89345   0.25000   0.00000  Uiso   1.00
O615   O     0.96039   0.77321   0.25001   0.00000  Uiso   1.00
O616   O     0.70628   0.89346   0.24999   0.00000  Uiso   1.00
O617   O     0.68519   0.83334   0.31491   0.00000  Uiso   1.00
O618   O     0.98148   0.83332   0.18509   0.00000  Uiso   1.00
O619   O     0.93933   0.83333   0.31492   0.00000  Uiso   1.00
O620   O     0.72733   0.83333   0.18508   0.00000  Uiso   1.00
O621   O     0.92175   0.96018   0.23073   0.00000  Uiso   1.00
C622   C     0.87973   0.96396   0.26695   0.00000  Uiso   1.00
H623   H     0.86709   0.99639   0.27239   0.00000  Uiso   1.00
H624   H     0.85010   0.94626   0.25899   0.00000  Uiso   1.00
H625   H     0.88593   0.95101   0.29826   0.00000  Uiso   1.00
O626   O     0.74494   0.70648   0.26920   0.00000  Uiso   1.00
C627   C     0.78693   0.70275   0.23295   0.00000  Uiso   1.00
H628   H     0.81658   0.72043   0.24089   0.00000  Uiso   1.00
H629   H     0.79958   0.67032   0.22745   0.00000  Uiso   1.00
H630   H     0.78069   0.71572   0.20167   0.00000  Uiso   1.00
C631   C     0.00028   0.08736   0.75012   0.00000  Uiso   1.00
C632   C     0.33306   0.24597   0.74987   0.00000  Uiso   1.00
C633   C     0.19524   0.17291   0.54743   0.00000  Uiso   1.00
C634   C     0.14165   0.14147   0.95534   0.00000  Uiso   1.00
C635   C     0.24377   0.17778   0.52483   0.00000  Uiso   1.00
C636   C     0.09327   0.13587   0.97810   0.00000  Uiso   1.00
C637   C     0.29503   0.02227   0.74100   0.00000  Uiso   1.00
C638   C     0.03832   0.31106   0.75895   0.00000  Uiso   1.00
C639   C     0.29319   0.31303   0.74175   0.00000  Uiso   1.00
C640   C     0.04016   0.02031   0.75821   0.00000  Uiso   1.00
C641   C     0.33242   0.29059   0.74997   0.00000  Uiso   1.00
C642   C     0.00092   0.04274   0.74999   0.00000  Uiso   1.00
C643   C     0.18224   0.18910   0.78083   0.00000  Uiso   1.00
C644   C     0.15109   0.14425   0.71917   0.00000  Uiso   1.00
C645   C     0.13264   0.18914   0.78079   0.00000  Uiso   1.00
C646   C     0.20069   0.14420   0.71920   0.00000  Uiso   1.00
C647   C     0.30609   0.16683   0.83608   0.00000  Uiso   1.00
C648   C     0.02724   0.16606   0.66395   0.00000  Uiso   1.00
C649   C     0.29114   0.16760   0.88520   0.00000  Uiso   1.00
C650   C     0.04244   0.16176   0.61510   0.00000  Uiso   1.00
C651   C     0.30830   0.17968   0.95631   0.00000  Uiso   1.00
C652   C     0.02763   0.13904   0.54582   0.00000  Uiso   1.00
C653   C     0.32428   0.17642   0.90991   0.00000  Uiso   1.00
C654   C     0.01053   0.14734   0.59141   0.00000  Uiso   1.00
C655   C     0.24233   0.16079   0.90735   0.00000  Uiso   1.00
C656   C     0.09111   0.16868   0.59271   0.00000  Uiso   1.00
C657   C     0.22545   0.16276   0.95426   0.00000  Uiso   1.00
C658   C     0.10979   0.15898   0.54713   0.00000  Uiso   1.00
C659   C     0.25924   0.17331   0.97858   0.00000  Uiso   1.00
C660   C     0.07683   0.14474   0.52354   0.00000  Uiso   1.00
C661   C     0.17583   0.15586   0.97745   0.00000  Uiso   1.00
C662   C     0.16006   0.16298   0.52448   0.00000  Uiso   1.00
Cu663  Cu    0.04689   0.16667   0.75000   0.00000  Uiso   1.00
Cu664  Cu    0.28645   0.16666   0.75000   0.00000  Uiso   1.00
H665   H     0.26933   0.18562   0.54378   0.00000  Uiso   1.00
H666   H     0.06848   0.12453   0.95986   0.00000  Uiso   1.00
H667   H     0.11358   0.18181   0.61187   0.00000  Uiso   1.00
H668   H     0.21792   0.15518   0.88698   0.00000  Uiso   1.00
H669   H     0.30612   0.14152   0.60827   0.00000  Uiso   1.00
H670   H     0.02885   0.18193   0.89336   0.00000  Uiso   1.00
H671   H     0.00087   0.18780   0.97476   0.00000  Uiso   1.00
H672   H     0.00256   0.12737   0.52809   0.00000  Uiso   1.00
H673   H     0.18689   0.17626   0.58323   0.00000  Uiso   1.00
H674   H     0.15119   0.13298   0.92050   0.00000  Uiso   1.00
H675   H     0.26563   0.03926   0.73296   0.00000  Uiso   1.00
H676   H     0.06773   0.29408   0.76698   0.00000  Uiso   1.00
H677   H     0.19352   0.20710   0.80551   0.00000  Uiso   1.00
H678   H     0.13982   0.12625   0.69447   0.00000  Uiso   1.00
H679   H     0.10658   0.20720   0.80540   0.00000  Uiso   1.00
H680   H     0.22676   0.12614   0.69459   0.00000  Uiso   1.00
N681   N     0.11736   0.16668   0.74999   0.00000  Uiso   1.00
N682   N     0.21597   0.16666   0.75001   0.00000  Uiso   1.00
O683   O     0.03958   0.10655   0.75000   0.00000  Uiso   1.00
O684   O     0.29375   0.22678   0.75000   0.00000  Uiso   1.00
O685   O     0.29372   0.10654   0.75001   0.00000  Uiso   1.00
O686   O     0.03961   0.22679   0.74999   0.00000  Uiso   1.00
O687   O     0.01852   0.16668   0.81491   0.00000  Uiso   1.00
O688   O     0.31481   0.16666   0.68509   0.00000  Uiso   1.00
O689   O     0.27267   0.16667   0.81492   0.00000  Uiso   1.00
O690   O     0.06067   0.16667   0.68508   0.00000  Uiso   1.00
O691   O     0.25509   0.29351   0.73073   0.00000  Uiso   1.00
C692   C     0.21306   0.29729   0.76695   0.00000  Uiso   1.00
H693   H     0.20043   0.32972   0.77239   0.00000  Uiso   1.00
H694   H     0.18343   0.27959   0.75899   0.00000  Uiso   1.00
H695   H     0.21926   0.28435   0.79826   0.00000  Uiso   1.00
O696   O     0.07828   0.03982   0.76920   0.00000  Uiso   1.00
C697   C     0.12027   0.03608   0.73295   0.00000  Uiso   1.00
H698   H     0.14991   0.05377   0.74089   0.00000  Uiso   1.00
H699   H     0.13291   0.00365   0.72745   0.00000  Uiso   1.00
H700   H     0.11403   0.04906   0.70167   0.00000  Uiso   1.00
C701   C     0.33361   0.08736   0.75012   0.00000  Uiso   1.00
C702   C     0.66639   0.24597   0.74987   0.00000  Uiso   1.00
C703   C     0.52857   0.17291   0.54743   0.00000  Uiso   1.00
C704   C     0.47498   0.14147   0.95534   0.00000  Uiso   1.00
C705   C     0.57711   0.17778   0.52483   0.00000  Uiso   1.00
C706   C     0.42661   0.13587   0.97810   0.00000  Uiso   1.00
C707   C     0.62836   0.02227   0.74100   0.00000  Uiso   1.00
C708   C     0.37166   0.31106   0.75895   0.00000  Uiso   1.00
C709   C     0.62653   0.31303   0.74175   0.00000  Uiso   1.00
C710   C     0.37349   0.02031   0.75821   0.00000  Uiso   1.00
C711   C     0.66576   0.29059   0.74997   0.00000  Uiso   1.00
C712   C     0.33426   0.04274   0.74999   0.00000  Uiso   1.00
C713   C     0.51557   0.18910   0.78083   0.00000  Uiso   1.00
C714   C     0.48443   0.14425   0.71917   0.00000  Uiso   1.00
C715   C     0.46597   0.18914   0.78079   0.00000  Uiso   1.00
C716   C     0.53403   0.14420   0.71920   0.00000  Uiso   1.00
C717   C     0.63943   0.16683   0.83608   0.00000  Uiso   1.00
C718   C     0.36058   0.16606   0.66395   0.00000  Uiso   1.00
C719   C     0.62448   0.16760   0.88520   0.00000  Uiso   1.00
C720   C     0.37578   0.16176   0.61510   0.00000  Uiso   1.00
C721   C     0.64163   0.17968   0.95631   0.00000  Uiso   1.00
C722   C     0.36096   0.13904   0.54582   0.00000  Uiso   1.00
C723   C     0.65762   0.17642   0.90991   0.00000  Uiso   1.00
C724   C     0.34387   0.14734   0.59141   0.00000  Uiso   1.00
C725   C     0.57567   0.16079   0.90735   0.00000  Uiso   1.00
C726   C     0.42444   0.16868   0.59271   0.00000  Uiso   1.00
C727   C     0.55878   0.16276   0.95426   0.00000  Uiso   1.00
C728   C     0.44312   0.15898   0.54713   0.00000  Uiso   1.00
C729   C     0.59257   0.17331   0.97858   0.00000  Uiso   1.00
C730   C     0.41016   0.14474   0.52354   0.00000  Uiso   1.00
C731   C     0.50916   0.15586   0.97745   0.00000  Uiso   1.00
C732   C     0.49339   0.16298   0.52448   0.00000  Uiso   1.00
Cu733  Cu    0.38022   0.16667   0.75000   0.00000  Uiso   1.00
Cu734  Cu    0.61978   0.16666   0.75000   0.00000  Uiso   1.00
H735   H     0.60266   0.18562   0.54378   0.00000  Uiso   1.00
H736   H     0.40181   0.12453   0.95986   0.00000  Uiso   1.00
H737   H     0.44692   0.18181   0.61187   0.00000  Uiso   1.00
H738   H     0.55126   0.15518   0.88698   0.00000  Uiso   1.00
H739   H     0.63945   0.14152   0.60827   0.00000  Uiso   1.00
H740   H     0.36219   0.18193   0.89336   0.00000  Uiso   1.00
H741   H     0.33420   0.18780   0.97476   0.00000  Uiso   1.00
H742   H     0.33589   0.12737   0.52809   0.00000  Uiso   1.00
H743   H     0.52023   0.17626   0.58323   0.00000  Uiso   1.00
H744   H     0.48453   0.13298   0.92050   0.00000  Uiso   1.00
H745   H     0.59896   0.03926   0.73296   0.00000  Uiso   1.00
H746   H     0.40106   0.29408   0.76698   0.00000  Uiso   1.00
H747   H     0.52685   0.20710   0.80551   0.00000  Uiso   1.00
H748   H     0.47315   0.12625   0.69447   0.00000  Uiso   1.00
H749   H     0.43991   0.20720   0.80540   0.00000  Uiso   1.00
H750   H     0.56009   0.12614   0.69459   0.00000  Uiso   1.00
N751   N     0.45069   0.16668   0.74999   0.00000  Uiso   1.00
N752   N     0.54931   0.16666   0.75001   0.00000  Uiso   1.00
O753   O     0.37291   0.10655   0.75000   0.00000  Uiso   1.00
O754   O     0.62709   0.22678   0.75000   0.00000  Uiso   1.00
O755   O     0.62706   0.10654   0.75001   0.00000  Uiso   1.00
O756   O     0.37294   0.22679   0.74999   0.00000  Uiso   1.00
O757   O     0.35186   0.16668   0.81491   0.00000  Uiso   1.00
O758   O     0.64814   0.16666   0.68509   0.00000  Uiso   1.00
O759   O     0.60600   0.16667   0.81492   0.00000  Uiso   1.00
O760   O     0.39400   0.16667   0.68508   0.00000  Uiso   1.00
O761   O     0.58842   0.29351   0.73073   0.00000  Uiso   1.00
C762   C     0.54640   0.29729   0.76695   0.00000  Uiso   1.00
H763   H     0.53376   0.32972   0.77239   0.00000  Uiso   1.00
H764   H     0.51677   0.27959   0.75899   0.00000  Uiso   1.00
H765   H     0.55260   0.28435   0.79826   0.00000  Uiso   1.00
O766   O     0.41161   0.03982   0.76920   0.00000  Uiso   1.00
C767   C     0.45360   0.03608   0.73295   0.00000  Uiso   1.00
H768   H     0.48325   0.05377   0.74089   0.00000  Uiso   1.00
H769   H     0.46625   0.00365   0.72745   0.00000  Uiso   1.00
H770   H     0.44736   0.04906   0.70167   0.00000  Uiso   1.00
C771   C     0.66694   0.08736   0.75012   0.00000  Uiso   1.00
C772   C     0.99973   0.24597   0.74987   0.00000  Uiso   1.00
C773   C     0.86190   0.17291   0.54743   0.00000  Uiso   1.00
C774   C     0.80832   0.14147   0.95534   0.00000  Uiso   1.00
C775   C     0.91044   0.17778   0.52483   0.00000  Uiso   1.00
C776   C     0.75994   0.13587   0.97810   0.00000  Uiso   1.00
C777   C     0.96169   0.02227   0.74100   0.00000  Uiso   1.00
C778   C     0.70499   0.31106   0.75895   0.00000  Uiso   1.00
C779   C     0.95986   0.31303   0.74175   0.00000  Uiso   1.00
C780   C     0.70682   0.02031   0.75821   0.00000  Uiso   1.00
C781   C     0.99909   0.29059   0.74997   0.00000  Uiso   1.00
C782   C     0.66759   0.04274   0.74999   0.00000  Uiso   1.00
C783   C     0.84891   0.18910   0.78083   0.00000  Uiso   1.00
C784   C     0.81776   0.14425   0.71917   0.00000  Uiso   1.00
C785   C     0.79931   0.18914   0.78079   0.00000  Uiso   1.00
C786   C     0.86736   0.14420   0.71920   0.00000  Uiso   1.00
C787   C     0.97276   0.16683   0.83608   0.00000  Uiso   1.00
C788   C     0.69391   0.16606   0.66395   0.00000  Uiso   1.00
C789   C     0.95781   0.16760   0.88520   0.00000  Uiso   1.00
C790   C     0.70911   0.16176   0.61510   0.00000  Uiso   1.00
C791   C     0.97496   0.17968   0.95631   0.00000  Uiso   1.00
C792   C     0.69430   0.13904   0.54582   0.00000  Uiso   1.00
C793   C     0.99095   0.17642   0.90991   0.00000  Uiso   1.00
C794   C     0.67720   0.14734   0.59141   0.00000  Uiso   1.00
C795   C     0.90900   0.16079   0.90735   0.00000  Uiso   1.00
C796   C     0.75777   0.16868   0.59271   0.00000  Uiso   1.00
C797   C     0.89211   0.16276   0.95426   0.00000  Uiso   1.00
C798   C     0.77645   0.15898   0.54713   0.00000  Uiso   1.00
C799   C     0.92590   0.17331   0.97858   0.00000  Uiso   1.00
C800   C     0.74350   0.14474   0.52354   0.00000  Uiso   1.00
C801   C     0.84249   0.15586   0.97745   0.00000  Uiso   1.00
C802   C     0.82673   0.16298   0.52448   0.00000  Uiso   1.00
Cu803  Cu    0.71355   0.16667   0.75000   0.00000  Uiso   1.00
Cu804  Cu    0.95311   0.16666   0.75000   0.00000  Uiso   1.00
H805   H     0.93599   0.18562   0.54378   0.00000  Uiso   1.00
H806   H     0.73514   0.12453   0.95986   0.00000  Uiso   1.00
H807   H     0.78025   0.18181   0.61187   0.00000  Uiso   1.00
H808   H     0.88459   0.15518   0.88698   0.00000  Uiso   1.00
H809   H     0.97278   0.14152   0.60827   0.00000  Uiso   1.00
H810   H     0.69552   0.18193   0.89336   0.00000  Uiso   1.00
H811   H     0.66754   0.18780   0.97476   0.00000  Uiso   1.00
H812   H     0.66922   0.12737   0.52809   0.00000  Uiso   1.00
H813   H     0.85356   0.17626   0.58323   0.00000  Uiso   1.00
H814   H     0.81786   0.13298   0.92050   0.00000  Uiso   1.00
H815   H     0.93230   0.03926   0.73296   0.00000  Uiso   1.00
H816   H     0.73439   0.29408   0.76698   0.00000  Uiso   1.00
H817   H     0.86019   0.20710   0.80551   0.00000  Uiso   1.00
H818   H     0.80649   0.12625   0.69447   0.00000  Uiso   1.00
H819   H     0.77324   0.20720   0.80540   0.00000  Uiso   1.00
H820   H     0.89343   0.12614   0.69459   0.00000  Uiso   1.00
N821   N     0.78403   0.16668   0.74999   0.00000  Uiso   1.00
N822   N     0.88264   0.16666   0.75001   0.00000  Uiso   1.00
O823   O     0.70625   0.10655   0.75000   0.00000  Uiso   1.00
O824   O     0.96042   0.22678   0.75000   0.00000  Uiso   1.00
O825   O     0.96039   0.10654   0.75001   0.00000  Uiso   1.00
O826   O     0.70628   0.22679   0.74999   0.00000  Uiso   1.00
O827   O     0.68519   0.16668   0.81491   0.00000  Uiso   1.00
O828   O     0.98148   0.16666   0.68509   0.00000  Uiso   1.00
O829   O     0.93933   0.16667   0.81492   0.00000  Uiso   1.00
O830   O     0.72733   0.16667   0.68508   0.00000  Uiso   1.00
O831   O     0.92175   0.29351   0.73073   0.00000  Uiso   1.00
C832   C     0.87973   0.29729   0.76695   0.00000  Uiso   1.00
H833   H     0.86709   0.32972   0.77239   0.00000  Uiso   1.00
H834   H     0.85010   0.27959   0.75899   0.00000  Uiso   1.00
H835   H     0.88593   0.28435   0.79826   0.00000  Uiso   1.00
O836   O     0.74494   0.03982   0.76920   0.00000  Uiso   1.00
C837   C     0.78693   0.03608   0.73295   0.00000  Uiso   1.00
H838   H     0.81658   0.05377   0.74089   0.00000  Uiso   1.00
H839   H     0.79958   0.00365   0.72745   0.00000  Uiso   1.00
H840   H     0.78069   0.04906   0.70167   0.00000  Uiso   1.00
C841   C     0.00028   0.42070   0.75012   0.00000  Uiso   1.00
C842   C     0.33306   0.57931   0.74987   0.00000  Uiso   1.00
C843   C     0.19524   0.50625   0.54743   0.00000  Uiso   1.00
C844   C     0.14165   0.47481   0.95534   0.00000  Uiso   1.00
C845   C     0.24377   0.51111   0.52483   0.00000  Uiso   1.00
C846   C     0.09327   0.46920   0.97810   0.00000  Uiso   1.00
C847   C     0.29503   0.35561   0.74100   0.00000  Uiso   1.00
C848   C     0.03832   0.64440   0.75895   0.00000  Uiso   1.00
C849   C     0.29319   0.64636   0.74175   0.00000  Uiso   1.00
C850   C     0.04016   0.35364   0.75821   0.00000  Uiso   1.00
C851   C     0.33242   0.62393   0.74997   0.00000  Uiso   1.00
C852   C     0.00092   0.37607   0.74999   0.00000  Uiso   1.00
C853   C     0.18224   0.52243   0.78083   0.00000  Uiso   1.00
C854   C     0.15109   0.47758   0.71917   0.00000  Uiso   1.00
C855   C     0.13264   0.52247   0.78079   0.00000  Uiso   1.00
C856   C     0.20069   0.47753   0.71920   0.00000  Uiso   1.00
C857   C     0.30609   0.50016   0.83608   0.00000  Uiso   1.00
C858   C     0.02724   0.49940   0.66395   0.00000  Uiso   1.00
C859   C     0.29114   0.50093   0.88520   0.00000  Uiso   1.00
C860   C     0.04244   0.49510   0.61510   0.00000  Uiso   1.00
C861   C     0.30830   0.51301   0.95631   0.00000  Uiso   1.00
C862   C     0.02763   0.47237   0.54582   0.00000  Uiso   1.00
C863   C     0.32428   0.50976   0.90991   0.00000  Uiso   1.00
C864   C     0.01053   0.48068   0.59141   0.00000  Uiso   1.00
C865   C     0.24233   0.49412   0.90735   0.00000  Uiso   1.00
C866   C     0.09111   0.50201   0.59271   0.00000  Uiso   1.00
C867   C     0.22545   0.49609   0.95426   0.00000  Uiso   1.00
C868   C     0.10979   0.49231   0.54713   0.00000  Uiso   1.00
C869   C     0.25924   0.50664   0.97858   0.00000  Uiso   1.00
C870   C     0.07683   0.47807   0.52354   0.00000  Uiso   1.00
C871   C     0.17583   0.48919   0.97745   0.00000  Uiso   1.00
C872   C     0.16006   0.49631   0.52448   0.00000  Uiso   1.00
Cu873  Cu    0.04689   0.50001   0.75000   0.00000  Uiso   1.00
Cu874  Cu    0.28645   0.49999   0.75000   0.00000  Uiso   1.00
H875   H     0.26933   0.51895   0.54378   0.00000  Uiso   1.00
H876   H     0.06848   0.45786   0.95986   0.00000  Uiso   1.00
H877   H     0.11358   0.51514   0.61187   0.00000  Uiso   1.00
H878   H     0.21792   0.48851   0.88698   0.00000  Uiso   1.00
H879   H     0.30612   0.47485   0.60827   0.00000  Uiso   1.00
H880   H     0.02885   0.51527   0.89336   0.00000  Uiso   1.00
H881   H     0.00087   0.52114   0.97476   0.00000  Uiso   1.00
H882   H     0.00256   0.46071   0.52809   0.00000  Uiso   1.00
H883   H     0.18689   0.50959   0.58323   0.00000  Uiso   1.00
H884   H     0.15119   0.46631   0.92050   0.00000  Uiso   1.00
H885   H     0.26563   0.37259   0.73296   0.00000  Uiso   1.00
H886   H     0.06773   0.62741   0.76698   0.00000  Uiso   1.00
H887   H     0.19352   0.54044   0.80551   0.00000  Uiso   1.00
H888   H     0.13982   0.45958   0.69447   0.00000  Uiso   1.00
H889   H     0.10658   0.54054   0.80540   0.00000  Uiso   1.00
H890   H     0.22676   0.45947   0.69459   0.00000  Uiso   1.00
N891   N     0.11736   0.50001   0.74999   0.00000  Uiso   1.00
N892   N     0.21597   0.49999   0.75001   0.00000  Uiso   1.00
O893   O     0.03958   0.43989   0.75000   0.00000  Uiso   1.00
O894   O     0.29375   0.56011   0.75000   0.00000  Uiso   1.00
O895   O     0.29372   0.43988   0.75001   0.00000  Uiso   1.00
O896   O     0.03961   0.56012   0.74999   0.00000  Uiso   1.00
O897   O     0.01852   0.50001   0.81491   0.00000  Uiso   1.00
O898   O     0.31481   0.49999   0.68509   0.00000  Uiso   1.00
O899   O     0.27267   0.50000   0.81492   0.00000  Uiso   1.00
O900   O     0.06067   0.50000   0.68508   0.00000  Uiso   1.00
O901   O     0.25509   0.62685   0.73073   0.00000  Uiso   1.00
C902   C     0.21306   0.63062   0.76695   0.00000  Uiso   1.00
H903   H     0.20043   0.66305   0.77239   0.00000  Uiso   1.00
H904   H     0.18343   0.61292   0.75899   0.00000  Uiso   1.00
H905   H     0.21926   0.61768   0.79826   0.00000  Uiso   1.00
O906   O     0.07828   0.37315   0.76920   0.00000  Uiso   1.00
C907   C     0.12027   0.36941   0.73295   0.00000  Uiso   1.00
H908   H     0.14991   0.38710   0.74089   0.00000  Uiso   1.00
H909   H     0.13291   0.33699   0.72745   0.00000  Uiso   1.00
H910   H     0.11403   0.38239   0.70167   0.00000  Uiso   1.00
C911   C     0.33361   0.42070   0.75012   0.00000  Uiso   1.00
C912   C     0.66639   0.57931   0.74987   0.00000  Uiso   1.00
C913   C     0.52857   0.50625   0.54743   0.00000  Uiso   1.00
C914   C     0.47498   0.47481   0.95534   0.00000  Uiso   1.00
C915   C     0.57711   0.51111   0.52483   0.00000  Uiso   1.00
C916   C     0.42661   0.46920   0.97810   0.00000  Uiso   1.00
C917   C     0.62836   0.35561   0.74100   0.00000  Uiso   1.00
C918   C     0.37166   0.64440   0.75895   0.00000  Uiso   1.00
C919   C     0.62653   0.64636   0.74175   0.00000  Uiso   1.00
C920   C     0.37349   0.35364   0.75821   0.00000  Uiso   1.00
C921   C     0.66576   0.62393   0.74997   0.00000  Uiso   1.00
C922   C     0.33426   0.37607   0.74999   0.00000  Uiso   1.00
C923   C     0.51557   0.52243   0.78083   0.00000  Uiso   1.00
C924   C     0.48443   0.47758   0.71917   0.00000  Uiso   1.00
C925   C     0.46597   0.52247   0.78079   0.00000  Uiso   1.00
C926   C     0.53403   0.47753   0.71920   0.00000  Uiso   1.00
C927   C     0.63943   0.50016   0.83608   0.00000  Uiso   1.00
C928   C     0.36058   0.49940   0.66395   0.00000  Uiso   1.00
C929   C     0.62448   0.50093   0.88520   0.00000  Uiso   1.00
C930   C     0.37578   0.49510   0.61510   0.00000  Uiso   1.00
C931   C     0.64163   0.51301   0.95631   0.00000  Uiso   1.00
C932   C     0.36096   0.47237   0.54582   0.00000  Uiso   1.00
C933   C     0.65762   0.50976   0.90991   0.00000  Uiso   1.00
C934   C     0.34387   0.48068   0.59141   0.00000  Uiso   1.00
C935   C     0.57567   0.49412   0.90735   0.00000  Uiso   1.00
C936   C     0.42444   0.50201   0.59271   0.00000  Uiso   1.00
C937   C     0.55878   0.49609   0.95426   0.00000  Uiso   1.00
C938   C     0.44312   0.49231   0.54713   0.00000  Uiso   1.00
C939   C     0.59257   0.50664   0.97858   0.00000  Uiso   1.00
C940   C     0.41016   0.47807   0.52354   0.00000  Uiso   1.00
C941   C     0.50916   0.48919   0.97745   0.00000  Uiso   1.00
C942   C     0.49339   0.49631   0.52448   0.00000  Uiso   1.00
Cu943  Cu    0.38022   0.50001   0.75000   0.00000  Uiso   1.00
Cu944  Cu    0.61978   0.49999   0.75000   0.00000  Uiso   1.00
H945   H     0.60266   0.51895   0.54378   0.00000  Uiso   1.00
H946   H     0.40181   0.45786   0.95986   0.00000  Uiso   1.00
H947   H     0.44692   0.51514   0.61187   0.00000  Uiso   1.00
H948   H     0.55126   0.48851   0.88698   0.00000  Uiso   1.00
H949   H     0.63945   0.47485   0.60827   0.00000  Uiso   1.00
H950   H     0.36219   0.51527   0.89336   0.00000  Uiso   1.00
H951   H     0.33420   0.52114   0.97476   0.00000  Uiso   1.00
H952   H     0.33589   0.46071   0.52809   0.00000  Uiso   1.00
H953   H     0.52023   0.50959   0.58323   0.00000  Uiso   1.00
H954   H     0.48453   0.46631   0.92050   0.00000  Uiso   1.00
H955   H     0.59896   0.37259   0.73296   0.00000  Uiso   1.00
H956   H     0.40106   0.62741   0.76698   0.00000  Uiso   1.00
H957   H     0.52685   0.54044   0.80551   0.00000  Uiso   1.00
H958   H     0.47315   0.45958   0.69447   0.00000  Uiso   1.00
H959   H     0.43991   0.54054   0.80540   0.00000  Uiso   1.00
H960   H     0.56009   0.45947   0.69459   0.00000  Uiso   1.00
N961   N     0.45069   0.50001   0.74999   0.00000  Uiso   1.00
N962   N     0.54931   0.49999   0.75001   0.00000  Uiso   1.00
O963   O     0.37291   0.43989   0.75000   0.00000  Uiso   1.00
O964   O     0.62709   0.56011   0.75000   0.00000  Uiso   1.00
O965   O     0.62706   0.43988   0.75001   0.00000  Uiso   1.00
O966   O     0.37294   0.56012   0.74999   0.00000  Uiso   1.00
O967   O     0.35186   0.50001   0.81491   0.00000  Uiso   1.00
O968   O     0.64814   0.49999   0.68509   0.00000  Uiso   1.00
O969   O     0.60600   0.50000   0.81492   0.00000  Uiso   1.00
O970   O     0.39400   0.50000   0.68508   0.00000  Uiso   1.00
O971   O     0.58842   0.62685   0.73073   0.00000  Uiso   1.00
C972   C     0.54640   0.63062   0.76695   0.00000  Uiso   1.00
H973   H     0.53376   0.66305   0.77239   0.00000  Uiso   1.00
H974   H     0.51677   0.61292   0.75899   0.00000  Uiso   1.00
H975   H     0.55260   0.61768   0.79826   0.00000  Uiso   1.00
O976   O     0.41161   0.37315   0.76920   0.00000  Uiso   1.00
C977   C     0.45360   0.36941   0.73295   0.00000  Uiso   1.00
H978   H     0.48325   0.38710   0.74089   0.00000  Uiso   1.00
H979   H     0.46625   0.33699   0.72745   0.00000  Uiso   1.00
H980   H     0.44736   0.38239   0.70167   0.00000  Uiso   1.00
C981   C     0.66694   0.42070   0.75012   0.00000  Uiso   1.00
C982   C     0.99973   0.57931   0.74987   0.00000  Uiso   1.00
C983   C     0.86190   0.50625   0.54743   0.00000  Uiso   1.00
C984   C     0.80832   0.47481   0.95534   0.00000  Uiso   1.00
C985   C     0.91044   0.51111   0.52483   0.00000  Uiso   1.00
C986   C     0.75994   0.46920   0.97810   0.00000  Uiso   1.00
C987   C     0.96169   0.35561   0.74100   0.00000  Uiso   1.00
C988   C     0.70499   0.64440   0.75895   0.00000  Uiso   1.00
C989   C     0.95986   0.64636   0.74175   0.00000  Uiso   1.00
C990   C     0.70682   0.35364   0.75821   0.00000  Uiso   1.00
C991   C     0.99909   0.62393   0.74997   0.00000  Uiso   1.00
C992   C     0.66759   0.37607   0.74999   0.00000  Uiso   1.00
C993   C     0.84891   0.52243   0.78083   0.00000  Uiso   1.00
C994   C     0.81776   0.47758   0.71917   0.00000  Uiso   1.00
C995   C     0.79931   0.52247   0.78079   0.00000  Uiso   1.00
C996   C     0.86736   0.47753   0.71920   0.00000  Uiso   1.00
C997   C     0.97276   0.50016   0.83608   0.00000  Uiso   1.00
C998   C     0.69391   0.49940   0.66395   0.00000  Uiso   1.00
C999   C     0.95781   0.50093   0.88520   0.00000  Uiso   1.00
C1000  C     0.70911   0.49510   0.61510   0.00000  Uiso   1.00
C1001  C     0.97496   0.51301   0.95631   0.00000  Uiso   1.00
C1002  C     0.69430   0.47237   0.54582   0.00000  Uiso   1.00
C1003  C     0.99095   0.50976   0.90991   0.00000  Uiso   1.00
C1004  C     0.67720   0.48068   0.59141   0.00000  Uiso   1.00
C1005  C     0.90900   0.49412   0.90735   0.00000  Uiso   1.00
C1006  C     0.75777   0.50201   0.59271   0.00000  Uiso   1.00
C1007  C     0.89211   0.49609   0.95426   0.00000  Uiso   1.00
C1008  C     0.77645   0.49231   0.54713   0.00000  Uiso   1.00
C1009  C     0.92590   0.50664   0.97858   0.00000  Uiso   1.00
C1010  C     0.74350   0.47807   0.52354   0.00000  Uiso   1.00
C1011  C     0.84249   0.48919   0.97745   0.00000  Uiso   1.00
C1012  C     0.82673   0.49631   0.52448   0.00000  Uiso   1.00
Cu1013 Cu    0.71355   0.50001   0.75000   0.00000  Uiso   1.00
Cu1014 Cu    0.95311   0.49999   0.75000   0.00000  Uiso   1.00
H1015  H     0.93599   0.51895   0.54378   0.00000  Uiso   1.00
H1016  H     0.73514   0.45786   0.95986   0.00000  Uiso   1.00
H1017  H     0.78025   0.51514   0.61187   0.00000  Uiso   1.00
H1018  H     0.88459   0.48851   0.88698   0.00000  Uiso   1.00
H1019  H     0.97278   0.47485   0.60827   0.00000  Uiso   1.00
H1020  H     0.69552   0.51527   0.89336   0.00000  Uiso   1.00
H1021  H     0.66754   0.52114   0.97476   0.00000  Uiso   1.00
H1022  H     0.66922   0.46071   0.52809   0.00000  Uiso   1.00
H1023  H     0.85356   0.50959   0.58323   0.00000  Uiso   1.00
H1024  H     0.81786   0.46631   0.92050   0.00000  Uiso   1.00
H1025  H     0.93230   0.37259   0.73296   0.00000  Uiso   1.00
H1026  H     0.73439   0.62741   0.76698   0.00000  Uiso   1.00
H1027  H     0.86019   0.54044   0.80551   0.00000  Uiso   1.00
H1028  H     0.80649   0.45958   0.69447   0.00000  Uiso   1.00
H1029  H     0.77324   0.54054   0.80540   0.00000  Uiso   1.00
H1030  H     0.89343   0.45947   0.69459   0.00000  Uiso   1.00
N1031  N     0.78403   0.50001   0.74999   0.00000  Uiso   1.00
N1032  N     0.88264   0.49999   0.75001   0.00000  Uiso   1.00
O1033  O     0.70625   0.43989   0.75000   0.00000  Uiso   1.00
O1034  O     0.96042   0.56011   0.75000   0.00000  Uiso   1.00
O1035  O     0.96039   0.43988   0.75001   0.00000  Uiso   1.00
O1036  O     0.70628   0.56012   0.74999   0.00000  Uiso   1.00
O1037  O     0.68519   0.50001   0.81491   0.00000  Uiso   1.00
O1038  O     0.98148   0.49999   0.68509   0.00000  Uiso   1.00
O1039  O     0.93933   0.50000   0.81492   0.00000  Uiso   1.00
O1040  O     0.72733   0.50000   0.68508   0.00000  Uiso   1.00
O1041  O     0.92175   0.62685   0.73073   0.00000  Uiso   1.00
C1042  C     0.87973   0.63062   0.76695   0.00000  Uiso   1.00
H1043  H     0.86709   0.66305   0.77239   0.00000  Uiso   1.00
H1044  H     0.85010   0.61292   0.75899   0.00000  Uiso   1.00
H1045  H     0.88593   0.61768   0.79826   0.00000  Uiso   1.00
O1046  O     0.74494   0.37315   0.76920   0.00000  Uiso   1.00
C1047  C     0.78693   0.36941   0.73295   0.00000  Uiso   1.00
H1048  H     0.81658   0.38710   0.74089   0.00000  Uiso   1.00
H1049  H     0.79958   0.33699   0.72745   0.00000  Uiso   1.00
H1050  H     0.78069   0.38239   0.70167   0.00000  Uiso   1.00
C1051  C     0.00028   0.75403   0.75012   0.00000  Uiso   1.00
C1052  C     0.33306   0.91264   0.74987   0.00000  Uiso   1.00
C1053  C     0.19524   0.83958   0.54743   0.00000  Uiso   1.00
C1054  C     0.14165   0.80814   0.95534   0.00000  Uiso   1.00
C1055  C     0.24377   0.84444   0.52483   0.00000  Uiso   1.00
C1056  C     0.09327   0.80253   0.97810   0.00000  Uiso   1.00
C1057  C     0.29503   0.68894   0.74100   0.00000  Uiso   1.00
C1058  C     0.03832   0.97773   0.75895   0.00000  Uiso   1.00
C1059  C     0.29319   0.97969   0.74175   0.00000  Uiso   1.00
C1060  C     0.04016   0.68698   0.75821   0.00000  Uiso   1.00
C1061  C     0.33242   0.95726   0.74997   0.00000  Uiso   1.00
C1062  C     0.00092   0.70941   0.74999   0.00000  Uiso   1.00
C1063  C     0.18224   0.85576   0.78083   0.00000  Uiso   1.00
C1064  C     0.15109   0.81091   0.71917   0.00000  Uiso   1.00
C1065  C     0.13264   0.85581   0.78079   0.00000  Uiso   1.00
C1066  C     0.20069   0.81086   0.71920   0.00000  Uiso   1.00
C1067  C     0.30609   0.83349   0.83608   0.00000  Uiso   1.00
C1068  C     0.02724   0.83273   0.66395   0.00000  Uiso   1.00
C1069  C     0.29114   0.83426   0.88520   0.00000  Uiso   1.00
C1070  C     0.04244   0.82843   0.61510   0.00000  Uiso   1.00
C1071  C     0.30830   0.84634   0.95631   0.00000  Uiso   1.00
C1072  C     0.02763   0.80571   0.54582   0.00000  Uiso   1.00
C1073  C     0.32428   0.84309   0.90991   0.00000  Uiso   1.00
C1074  C     0.01053   0.81401   0.59141   0.00000  Uiso   1.00
C1075  C     0.24233   0.82745   0.90735   0.00000  Uiso   1.00
C1076  C     0.09111   0.83535   0.59271   0.00000  Uiso   1.00
C1077  C     0.22545   0.82943   0.95426   0.00000  Uiso   1.00
C1078  C     0.10979   0.82565   0.54713   0.00000  Uiso   1.00
C1079  C     0.25924   0.83998   0.97858   0.00000  Uiso   1.00
C1080  C     0.07683   0.81140   0.52354   0.00000  Uiso   1.00
C1081  C     0.17583   0.82253   0.97745   0.00000  Uiso   1.00
C1082  C     0.16006   0.82964   0.52448   0.00000  Uiso   1.00
Cu1083 Cu    0.04689   0.83334   0.75000   0.00000  Uiso   1.00
Cu1084 Cu    0.28645   0.83333   0.75000   0.00000  Uiso   1.00
H1085  H     0.26933   0.85228   0.54378   0.00000  Uiso   1.00
H1086  H     0.06848   0.79119   0.95986   0.00000  Uiso   1.00
H1087  H     0.11358   0.84847   0.61187   0.00000  Uiso   1.00
H1088  H     0.21792   0.82185   0.88698   0.00000  Uiso   1.00
H1089  H     0.30612   0.80819   0.60827   0.00000  Uiso   1.00
H1090  H     0.02885   0.84860   0.89336   0.00000  Uiso   1.00
H1091  H     0.00087   0.85447   0.97476   0.00000  Uiso   1.00
H1092  H     0.00256   0.79404   0.52809   0.00000  Uiso   1.00
H1093  H     0.18689   0.84292   0.58323   0.00000  Uiso   1.00
H1094  H     0.15119   0.79964   0.92050   0.00000  Uiso   1.00
H1095  H     0.26563   0.70593   0.73296   0.00000  Uiso   1.00
H1096  H     0.06773   0.96075   0.76698   0.00000  Uiso   1.00
H1097  H     0.19352   0.87377   0.80551   0.00000  Uiso   1.00
H1098  H     0.13982   0.79292   0.69447   0.00000  Uiso   1.00
H1099  H     0.10658   0.87387   0.80540   0.00000  Uiso   1.00
H1100  H     0.22676   0.79280   0.69459   0.00000  Uiso   1.00
N1101  N     0.11736   0.83334   0.74999   0.00000  Uiso   1.00
N1102  N     0.21597   0.83332   0.75001   0.00000  Uiso   1.00
O1103  O     0.03958   0.77322   0.75000   0.00000  Uiso   1.00
O1104  O     0.29375   0.89345   0.75000   0.00000  Uiso   1.00
O1105  O     0.29372   0.77321   0.75001   0.00000  Uiso   1.00
O1106  O     0.03961   0.89346   0.74999   0.00000  Uiso   1.00
O1107  O     0.01852   0.83334   0.81491   0.00000  Uiso   1.00
O1108  O     0.31481   0.83332   0.68509   0.00000  Uiso   1.00
O1109  O     0.27267   0.83333   0.81492   0.00000  Uiso   1.00
O1110  O     0.06067   0.83333   0.68508   0.00000  Uiso   1.00
O1111  O     0.25509   0.96018   0.73073   0.00000  Uiso   1.00
C1112  C     0.21306   0.96396   0.76695   0.00000  Uiso   1.00
H1113  H     0.20043   0.99639   0.77239   0.00000  Uiso   1.00
H1114  H     0.18343   0.94626   0.75899   0.00000  Uiso   1.00
H1115  H     0.21926   0.95101   0.79826   0.00000  Uiso   1.00
O1116  O     0.07828   0.70648   0.76920   0.00000  Uiso   1.00
C1117  C     0.12027   0.70275   0.73295   0.00000  Uiso   1.00
H1118  H     0.14991   0.72043   0.74089   0.00000  Uiso   1.00
H1119  H     0.13291   0.67032   0.72745   0.00000  Uiso   1.00
H1120  H     0.11403   0.71572   0.70167   0.00000  Uiso   1.00
C1121  C     0.33361   0.75403   0.75012   0.00000  Uiso   1.00
C1122  C     0.66639   0.91264   0.74987   0.00000  Uiso   1.00
C1123  C     0.52857   0.83958   0.54743   0.00000  Uiso   1.00
C1124  C     0.47498   0.80814   0.95534   0.00000  Uiso   1.00
C1125  C     0.57711   0.84444   0.52483   0.00000  Uiso   1.00
C1126  C     0.42661   0.80253   0.97810   0.00000  Uiso   1.00
C1127  C     0.62836   0.68894   0.74100   0.00000  Uiso   1.00
C1128  C     0.37166   0.97773   0.75895   0.00000  Uiso   1.00
C1129  C     0.62653   0.97969   0.74175   0.00000  Uiso   1.00
C1130  C     0.37349   0.68698   0.75821   0.00000  Uiso   1.00
C1131  C     0.66576   0.95726   0.74997   0.00000  Uiso   1.00
C1132  C     0.33426   0.70941   0.74999   0.00000  Uiso   1.00
C1133  C     0.51557   0.85576   0.78083   0.00000  Uiso   1.00
C1134  C     0.48443   0.81091   0.71917   0.00000  Uiso   1.00
C1135  C     0.46597   0.85581   0.78079   0.00000  Uiso   1.00
C1136  C     0.53403   0.81086   0.71920   0.00000  Uiso   1.00
C1137  C     0.63943   0.83349   0.83608   0.00000  Uiso   1.00
C1138  C     0.36058   0.83273   0.66395   0.00000  Uiso   1.00
C1139  C     0.62448   0.83426   0.88520   0.00000  Uiso   1.00
C1140  C     0.37578   0.82843   0.61510   0.00000  Uiso   1.00
C1141  C     0.64163   0.84634   0.95631   0.00000  Uiso   1.00
C1142  C     0.36096   0.80571   0.54582   0.00000  Uiso   1.00
C1143  C     0.65762   0.84309   0.90991   0.00000  Uiso   1.00
C1144  C     0.34387   0.81401   0.59141   0.00000  Uiso   1.00
C1145  C     0.57567   0.82745   0.90735   0.00000  Uiso   1.00
C1146  C     0.42444   0.83535   0.59271   0.00000  Uiso   1.00
C1147  C     0.55878   0.82943   0.95426   0.00000  Uiso   1.00
C1148  C     0.44312   0.82565   0.54713   0.00000  Uiso   1.00
C1149  C     0.59257   0.83998   0.97858   0.00000  Uiso   1.00
C1150  C     0.41016   0.81140   0.52354   0.00000  Uiso   1.00
C1151  C     0.50916   0.82253   0.97745   0.00000  Uiso   1.00
C1152  C     0.49339   0.82964   0.52448   0.00000  Uiso   1.00
Cu1153 Cu    0.38022   0.83334   0.75000   0.00000  Uiso   1.00
Cu1154 Cu    0.61978   0.83333   0.75000   0.00000  Uiso   1.00
H1155  H     0.60266   0.85228   0.54378   0.00000  Uiso   1.00
H1156  H     0.40181   0.79119   0.95986   0.00000  Uiso   1.00
H1157  H     0.44692   0.84847   0.61187   0.00000  Uiso   1.00
H1158  H     0.55126   0.82185   0.88698   0.00000  Uiso   1.00
H1159  H     0.63945   0.80819   0.60827   0.00000  Uiso   1.00
H1160  H     0.36219   0.84860   0.89336   0.00000  Uiso   1.00
H1161  H     0.33420   0.85447   0.97476   0.00000  Uiso   1.00
H1162  H     0.33589   0.79404   0.52809   0.00000  Uiso   1.00
H1163  H     0.52023   0.84292   0.58323   0.00000  Uiso   1.00
H1164  H     0.48453   0.79964   0.92050   0.00000  Uiso   1.00
H1165  H     0.59896   0.70593   0.73296   0.00000  Uiso   1.00
H1166  H     0.40106   0.96075   0.76698   0.00000  Uiso   1.00
H1167  H     0.52685   0.87377   0.80551   0.00000  Uiso   1.00
H1168  H     0.47315   0.79292   0.69447   0.00000  Uiso   1.00
H1169  H     0.43991   0.87387   0.80540   0.00000  Uiso   1.00
H1170  H     0.56009   0.79280   0.69459   0.00000  Uiso   1.00
N1171  N     0.45069   0.83334   0.74999   0.00000  Uiso   1.00
N1172  N     0.54931   0.83332   0.75001   0.00000  Uiso   1.00
O1173  O     0.37291   0.77322   0.75000   0.00000  Uiso   1.00
O1174  O     0.62709   0.89345   0.75000   0.00000  Uiso   1.00
O1175  O     0.62706   0.77321   0.75001   0.00000  Uiso   1.00
O1176  O     0.37294   0.89346   0.74999   0.00000  Uiso   1.00
O1177  O     0.35186   0.83334   0.81491   0.00000  Uiso   1.00
O1178  O     0.64814   0.83332   0.68509   0.00000  Uiso   1.00
O1179  O     0.60600   0.83333   0.81492   0.00000  Uiso   1.00
O1180  O     0.39400   0.83333   0.68508   0.00000  Uiso   1.00
O1181  O     0.58842   0.96018   0.73073   0.00000  Uiso   1.00
C1182  C     0.54640   0.96396   0.76695   0.00000  Uiso   1.00
H1183  H     0.53376   0.99639   0.77239   0.00000  Uiso   1.00
H1184  H     0.51677   0.94626   0.75899   0.00000  Uiso   1.00
H1185  H     0.55260   0.95101   0.79826   0.00000  Uiso   1.00
O1186  O     0.41161   0.70648   0.76920   0.00000  Uiso   1.00
C1187  C     0.45360   0.70275   0.73295   0.00000  Uiso   1.00
H1188  H     0.48325   0.72043   0.74089   0.00000  Uiso   1.00
H1189  H     0.46625   0.67032   0.72745   0.00000  Uiso   1.00
H1190  H     0.44736   0.71572   0.70167   0.00000  Uiso   1.00
C1191  C     0.66694   0.75403   0.75012   0.00000  Uiso   1.00
C1192  C     0.99973   0.91264   0.74987   0.00000  Uiso   1.00
C1193  C     0.86190   0.83958   0.54743   0.00000  Uiso   1.00
C1194  C     0.80832   0.80814   0.95534   0.00000  Uiso   1.00
C1195  C     0.91044   0.84444   0.52483   0.00000  Uiso   1.00
C1196  C     0.75994   0.80253   0.97810   0.00000  Uiso   1.00
C1197  C     0.96169   0.68894   0.74100   0.00000  Uiso   1.00
C1198  C     0.70499   0.97773   0.75895   0.00000  Uiso   1.00
C1199  C     0.95986   0.97969   0.74175   0.00000  Uiso   1.00
C1200  C     0.70682   0.68698   0.75821   0.00000  Uiso   1.00
C1201  C     0.99909   0.95726   0.74997   0.00000  Uiso   1.00
C1202  C     0.66759   0.70941   0.74999   0.00000  Uiso   1.00
C1203  C     0.84891   0.85576   0.78083   0.00000  Uiso   1.00
C1204  C     0.81776   0.81091   0.71917   0.00000  Uiso   1.00
C1205  C     0.79931   0.85581   0.78079   0.00000  Uiso   1.00
C1206  C     0.86736   0.81086   0.71920   0.00000  Uiso   1.00
C1207  C     0.97276   0.83349   0.83608   0.00000  Uiso   1.00
C1208  C     0.69391   0.83273   0.66395   0.00000  Uiso   1.00
C1209  C     0.95781   0.83426   0.88520   0.00000  Uiso   1.00
C1210  C     0.70911   0.82843   0.61510   0.00000  Uiso   1.00
C1211  C     0.97496   0.84634   0.95631   0.00000  Uiso   1.00
C1212  C     0.69430   0.80571   0.54582   0.00000  Uiso   1.00
C1213  C     0.99095   0.84309   0.90991   0.00000  Uiso   1.00
C1214  C     0.67720   0.81401   0.59141   0.00000  Uiso   1.00
C1215  C     0.90900   0.82745   0.90735   0.00000  Uiso   1.00
C1216  C     0.75777   0.83535   0.59271   0.00000  Uiso   1.00
C1217  C     0.89211   0.82943   0.95426   0.00000  Uiso   1.00
C1218  C     0.77645   0.82565   0.54713   0.00000  Uiso   1.00
C1219  C     0.92590   0.83998   0.97858   0.00000  Uiso   1.00
C1220  C     0.74350   0.81140   0.52354   0.00000  Uiso   1.00
C1221  C     0.84249   0.82253   0.97745   0.00000  Uiso   1.00
C1222  C     0.82673   0.82964   0.52448   0.00000  Uiso   1.00
Cu1223 Cu    0.71355   0.83334   0.75000   0.00000  Uiso   1.00
Cu1224 Cu    0.95311   0.83333   0.75000   0.00000  Uiso   1.00
H1225  H     0.93599   0.85228   0.54378   0.00000  Uiso   1.00
H1226  H     0.73514   0.79119   0.95986   0.00000  Uiso   1.00
H1227  H     0.78025   0.84847   0.61187   0.00000  Uiso   1.00
H1228  H     0.88459   0.82185   0.88698   0.00000  Uiso   1.00
H1229  H     0.97278   0.80819   0.60827   0.00000  Uiso   1.00
H1230  H     0.69552   0.84860   0.89336   0.00000  Uiso   1.00
H1231  H     0.66754   0.85447   0.97476   0.00000  Uiso   1.00
H1232  H     0.66922   0.79404   0.52809   0.00000  Uiso   1.00
H1233  H     0.85356   0.84292   0.58323   0.00000  Uiso   1.00
H1234  H     0.81786   0.79964   0.92050   0.00000  Uiso   1.00
H1235  H     0.93230   0.70593   0.73296   0.00000  Uiso   1.00
H1236  H     0.73439   0.96075   0.76698   0.00000  Uiso   1.00
H1237  H     0.86019   0.87377   0.80551   0.00000  Uiso   1.00
H1238  H     0.80649   0.79292   0.69447   0.00000  Uiso   1.00
H1239  H     0.77324   0.87387   0.80540   0.00000  Uiso   1.00
H1240  H     0.89343   0.79280   0.69459   0.00000  Uiso   1.00
N1241  N     0.78403   0.83334   0.74999   0.00000  Uiso   1.00
N1242  N     0.88264   0.83332   0.75001   0.00000  Uiso   1.00
O1243  O     0.70625   0.77322   0.75000   0.00000  Uiso   1.00
O1244  O     0.96042   0.89345   0.75000   0.00000  Uiso   1.00
O1245  O     0.96039   0.77321   0.75001   0.00000  Uiso   1.00
O1246  O     0.70628   0.89346   0.74999   0.00000  Uiso   1.00
O1247  O     0.68519   0.83334   0.81491   0.00000  Uiso   1.00
O1248  O     0.98148   0.83332   0.68509   0.00000  Uiso   1.00
O1249  O     0.93933   0.83333   0.81492   0.00000  Uiso   1.00
O1250  O     0.72733   0.83333   0.68508   0.00000  Uiso   1.00
O1251  O     0.92175   0.96018   0.73073   0.00000  Uiso   1.00
C1252  C     0.87973   0.96396   0.76695   0.00000  Uiso   1.00
H1253  H     0.86709   0.99639   0.77239   0.00000  Uiso   1.00
H1254  H     0.85010   0.94626   0.75899   0.00000  Uiso   1.00
H1255  H     0.88593   0.95101   0.79826   0.00000  Uiso   1.00
O1256  O     0.74494   0.70648   0.76920   0.00000  Uiso   1.00
C1257  C     0.78693   0.70275   0.73295   0.00000  Uiso   1.00
H1258  H     0.81658   0.72043   0.74089   0.00000  Uiso   1.00
H1259  H     0.79958   0.67032   0.72745   0.00000  Uiso   1.00
H1260  H     0.78069   0.71572   0.70167   0.00000  Uiso   1.00
loop_
_geom_bond_atom_site_label_1
_geom_bond_atom_site_label_2
_geom_bond_distance
_geom_bond_site_symmetry_2
_ccdc_geom_bond_type
C1     C12     1.454   .     S
C1     O53     1.289   .     A
C1     O195    1.294   1_455 S
C2     O54     1.289   .     A
C2     C11     1.454   .     S
C2     O126    1.294   .     S
C3     C32     1.417   .     A
C3     H43     1.076   .     S
C3     C5      1.386   .     A
C4     H44     1.076   .     S
C4     C31     1.417   .     A
C4     C6      1.387   .     A
C5     H35     1.084   .     S
C5     C659    1.390   1_554 S
C6     H36     1.084   .     S
C6     C660    1.390   .     S
C7     H45     1.084   .     S
C7     C429    1.389   1_545 S
C7     C82     1.400   .     S
C8     H46     1.084   .     S
C8     C220    1.389   .     S
C8     C151    1.400   1_455 S
C9     C11     1.410   .     A
C9     O61     1.384   .     S
C9     C217    1.389   .     S
C10    C12     1.410   .     A
C10    O66     1.384   .     S
C10    C428    1.389   1_545 S
C11    C78     1.400   .     S
C12    C147    1.400   1_455 S
C13    N52     1.367   .     A
C13    C15     1.416   .     A
C13    H47     1.081   .     S
C14    C16     1.416   .     A
C14    N51     1.367   .     A
C14    H48     1.081   .     S
C15    N51     1.366   .     A
C15    H49     1.082   .     S
C16    N52     1.366   .     A
C16    H50     1.082   .     S
C17    O59     1.294   .     A
C17    C19     1.467   .     S
C17    O127    1.296   .     S
C18    C20     1.466   .     S
C18    O60     1.293   .     A
C18    O198    1.296   1_455 S
C19    C23     1.399   .     A
C19    C25     1.399   .     A
C20    C24     1.399   .     A
C20    C26     1.398   .     A
C21    C23     1.391   .     A
C21    C29     1.404   .     A
C21    H111    1.083   .     S
C22    H42     1.084   .     S
C22    C24     1.392   .     A
C22    C30     1.404   .     A
C23    H110    1.083   .     S
C24    H179    1.083   1_455 S
C25    H38     1.075   .     S
C25    C27     1.405   .     A
C26    H37     1.075   .     S
C26    C28     1.405   .     A
C27    C29     1.418   .     A
C27    C31     1.427   .     A
C28    C30     1.418   .     A
C28    C32     1.426   .     A
C29    C635    1.390   .     S
C30    C636    1.390   1_554 S
C31    C662    1.424   .     S
C32    C661    1.424   1_554 S
Cu33   N51     2.011   .     S
Cu33   O57     1.958   .     S
Cu33   O56     1.968   .     S
Cu33   O60     1.944   .     S
Cu33   O53     1.973   .     S
Cu33   Cu174   2.676   1_455 S
Cu34   N52     2.011   .     S
Cu34   O55     1.968   .     S
Cu34   O59     1.944   .     S
Cu34   O54     1.973   .     S
Cu34   O58     1.958   .     S
Cu34   Cu103   2.676   .     S
H39    C94     1.083   .     S
H40    C163    1.083   1_455 S
H41    C161    1.083   1_455 S
O55    C71     1.294   .     S
O56    C142    1.294   1_455 S
O57    C157    1.296   1_455 S
O58    C88     1.296   .     S
O61    C62     1.411   .     S
C62    H63     1.112   .     S
C62    H64     1.109   .     S
C62    H65     1.114   .     S
O66    C67     1.411   .     S
C67    H70     1.114   .     S
C67    H69     1.112   .     S
C67    H68     1.109   .     S
C71    C82     1.454   .     S
C71    O123    1.289   .     A
C72    O124    1.289   .     A
C72    C81     1.454   .     S
C72    O196    1.294   .     S
C73    C102    1.417   .     A
C73    H113    1.076   .     S
C73    C75     1.386   .     A
C74    H114    1.076   .     S
C74    C101    1.417   .     A
C74    C76     1.387   .     A
C75    H105    1.084   .     S
C75    C729    1.390   1_554 S
C76    H106    1.084   .     S
C76    C730    1.390   .     S
C77    H115    1.084   .     S
C77    C499    1.389   1_545 S
C77    C152    1.400   .     S
C78    H116    1.084   .     S
C78    C290    1.389   .     S
C79    C81     1.410   .     A
C79    O131    1.384   .     S
C79    C287    1.389   .     S
C80    C82     1.410   .     A
C80    O136    1.384   .     S
C80    C498    1.389   1_545 S
C81    C148    1.400   .     S
C83    N122    1.367   .     A
C83    C85     1.416   .     A
C83    H117    1.081   .     S
C84    C86     1.416   .     A
C84    N121    1.367   .     A
C84    H118    1.081   .     S
C85    N121    1.366   .     A
C85    H119    1.082   .     S
C86    N122    1.366   .     A
C86    H120    1.082   .     S
C87    O129    1.294   .     A
C87    C89     1.467   .     S
C87    O197    1.296   .     S
C88    C90     1.466   .     S
C88    O130    1.293   .     A
C89    C93     1.399   .     A
C89    C95     1.399   .     A
C90    C94     1.399   .     A
C90    C96     1.398   .     A
C91    C93     1.391   .     A
C91    C99     1.404   .     A
C91    H181    1.083   .     S
C92    H112    1.084   .     S
C92    C94     1.392   .     A
C92    C100    1.404   .     A
C93    H180    1.083   .     S
C95    H108    1.075   .     S
C95    C97     1.405   .     A
C96    H107    1.075   .     S
C96    C98     1.405   .     A
C97    C99     1.418   .     A
C97    C101    1.427   .     A
C98    C100    1.418   .     A
C98    C102    1.426   .     A
C99    C705    1.390   .     S
C100   C706    1.390   1_554 S
C101   C732    1.424   .     S
C102   C731    1.424   1_554 S
Cu103  N121    2.011   .     S
Cu103  O127    1.958   .     S
Cu103  O126    1.968   .     S
Cu103  O130    1.944   .     S
Cu103  O123    1.973   .     S
Cu104  N122    2.011   .     S
Cu104  O125    1.968   .     S
Cu104  O129    1.944   .     S
Cu104  O124    1.973   .     S
Cu104  O128    1.958   .     S
Cu104  Cu173   2.676   .     S
H109   C164    1.083   .     S
O125   C141    1.294   .     S
O128   C158    1.296   .     S
O131   C132    1.411   .     S
C132   H133    1.112   .     S
C132   H134    1.109   .     S
C132   H135    1.114   .     S
O136   C137    1.411   .     S
C137   H140    1.114   .     S
C137   H139    1.112   .     S
C137   H138    1.109   .     S
C141   C152    1.454   .     S
C141   O193    1.289   .     A
C142   O194    1.289   .     A
C142   C151    1.454   .     S
C142   O56     1.294   1_655 S
C143   C172    1.417   .     A
C143   H183    1.076   .     S
C143   C145    1.386   .     A
C144   H184    1.076   .     S
C144   C171    1.417   .     A
C144   C146    1.387   .     A
C145   H175    1.084   .     S
C145   C799    1.390   1_554 S
C146   H176    1.084   .     S
C146   C800    1.390   .     S
C147   H185    1.084   .     S
C147   C569    1.389   1_545 S
C147   C12     1.400   1_655 S
C148   H186    1.084   .     S
C148   C360    1.389   .     S
C149   C151    1.410   .     A
C149   O201    1.384   .     S
C149   C357    1.389   .     S
C150   C152    1.410   .     A
C150   O206    1.384   .     S
C150   C568    1.389   1_545 S
C151   C8      1.400   1_655 S
C153   N192    1.367   .     A
C153   C155    1.416   .     A
C153   H187    1.081   .     S
C154   C156    1.416   .     A
C154   N191    1.367   .     A
C154   H188    1.081   .     S
C155   N191    1.366   .     A
C155   H189    1.082   .     S
C156   N192    1.366   .     A
C156   H190    1.082   .     S
C157   O199    1.294   .     A
C157   C159    1.467   .     S
C157   O57     1.296   1_655 S
C158   C160    1.466   .     S
C158   O200    1.293   .     A
C159   C163    1.399   .     A
C159   C165    1.399   .     A
C160   C164    1.399   .     A
C160   C166    1.398   .     A
C161   C163    1.391   .     A
C161   C169    1.404   .     A
C161   H41     1.083   1_655 S
C162   H182    1.084   .     S
C162   C164    1.392   .     A
C162   C170    1.404   .     A
C163   H40     1.083   1_655 S
C165   H178    1.075   .     S
C165   C167    1.405   .     A
C166   H177    1.075   .     S
C166   C168    1.405   .     A
C167   C169    1.418   .     A
C167   C171    1.427   .     A
C168   C170    1.418   .     A
C168   C172    1.426   .     A
C169   C775    1.390   .     S
C170   C776    1.390   1_554 S
C171   C802    1.424   .     S
C172   C801    1.424   1_554 S
Cu173  N191    2.011   .     S
Cu173  O197    1.958   .     S
Cu173  O196    1.968   .     S
Cu173  O200    1.944   .     S
Cu173  O193    1.973   .     S
Cu174  N192    2.011   .     S
Cu174  O195    1.968   .     S
Cu174  O199    1.944   .     S
Cu174  O194    1.973   .     S
Cu174  O198    1.958   .     S
Cu174  Cu33    2.676   1_655 S
H179   C24     1.083   1_655 S
O195   C1      1.294   1_655 S
O198   C18     1.296   1_655 S
O201   C202    1.411   .     S
C202   H203    1.112   .     S
C202   H204    1.109   .     S
C202   H205    1.114   .     S
O206   C207    1.411   .     S
C207   H210    1.114   .     S
C207   H209    1.112   .     S
C207   H208    1.109   .     S
C211   C222    1.454   .     S
C211   O263    1.289   .     A
C211   O405    1.294   1_455 S
C212   O264    1.289   .     A
C212   C221    1.454   .     S
C212   O336    1.294   .     S
C213   C242    1.417   .     A
C213   H253    1.076   .     S
C213   C215    1.386   .     A
C214   H254    1.076   .     S
C214   C241    1.417   .     A
C214   C216    1.387   .     A
C215   H245    1.084   .     S
C215   C869    1.390   1_554 S
C216   H246    1.084   .     S
C216   C870    1.390   .     S
C217   H255    1.084   .     S
C217   C292    1.400   .     S
C218   H256    1.084   .     S
C218   C430    1.389   .     S
C218   C361    1.400   1_455 S
C219   C221    1.410   .     A
C219   O271    1.384   .     S
C219   C427    1.389   .     S
C220   C222    1.410   .     A
C220   O276    1.384   .     S
C221   C288    1.400   .     S
C222   C357    1.400   1_455 S
C223   N262    1.367   .     A
C223   C225    1.416   .     A
C223   H257    1.081   .     S
C224   C226    1.416   .     A
C224   N261    1.367   .     A
C224   H258    1.081   .     S
C225   N261    1.366   .     A
C225   H259    1.082   .     S
C226   N262    1.366   .     A
C226   H260    1.082   .     S
C227   O269    1.294   .     A
C227   C229    1.467   .     S
C227   O337    1.296   .     S
C228   C230    1.466   .     S
C228   O270    1.293   .     A
C228   O408    1.296   1_455 S
C229   C233    1.399   .     A
C229   C235    1.399   .     A
C230   C234    1.399   .     A
C230   C236    1.398   .     A
C231   C233    1.391   .     A
C231   C239    1.404   .     A
C231   H321    1.083   .     S
C232   H252    1.084   .     S
C232   C234    1.392   .     A
C232   C240    1.404   .     A
C233   H320    1.083   .     S
C234   H389    1.083   1_455 S
C235   H248    1.075   .     S
C235   C237    1.405   .     A
C236   H247    1.075   .     S
C236   C238    1.405   .     A
C237   C239    1.418   .     A
C237   C241    1.427   .     A
C238   C240    1.418   .     A
C238   C242    1.426   .     A
C239   C845    1.390   .     S
C240   C846    1.390   1_554 S
C241   C872    1.424   .     S
C242   C871    1.424   1_554 S
Cu243  N261    2.011   .     S
Cu243  O267    1.958   .     S
Cu243  O266    1.968   .     S
Cu243  O270    1.944   .     S
Cu243  O263    1.973   .     S
Cu243  Cu384   2.676   1_455 S
Cu244  N262    2.011   .     S
Cu244  O265    1.968   .     S
Cu244  O269    1.944   .     S
Cu244  O264    1.973   .     S
Cu244  O268    1.958   .     S
Cu244  Cu313   2.676   .     S
H249   C304    1.083   .     S
H250   C373    1.083   1_455 S
H251   C371    1.083   1_455 S
O265   C281    1.294   .     S
O266   C352    1.294   1_455 S
O267   C367    1.296   1_455 S
O268   C298    1.296   .     S
O271   C272    1.411   .     S
C272   H273    1.112   .     S
C272   H274    1.109   .     S
C272   H275    1.114   .     S
O276   C277    1.411   .     S
C277   H280    1.114   .     S
C277   H279    1.112   .     S
C277   H278    1.109   .     S
C281   C292    1.454   .     S
C281   O333    1.289   .     A
C282   O334    1.289   .     A
C282   C291    1.454   .     S
C282   O406    1.294   .     S
C283   C312    1.417   .     A
C283   H323    1.076   .     S
C283   C285    1.386   .     A
C284   H324    1.076   .     S
C284   C311    1.417   .     A
C284   C286    1.387   .     A
C285   H315    1.084   .     S
C285   C939    1.390   1_554 S
C286   H316    1.084   .     S
C286   C940    1.390   .     S
C287   H325    1.084   .     S
C287   C362    1.400   .     S
C288   H326    1.084   .     S
C288   C500    1.389   .     S
C289   C291    1.410   .     A
C289   O341    1.384   .     S
C289   C497    1.389   .     S
C290   C292    1.410   .     A
C290   O346    1.384   .     S
C291   C358    1.400   .     S
C293   N332    1.367   .     A
C293   C295    1.416   .     A
C293   H327    1.081   .     S
C294   C296    1.416   .     A
C294   N331    1.367   .     A
C294   H328    1.081   .     S
C295   N331    1.366   .     A
C295   H329    1.082   .     S
C296   N332    1.366   .     A
C296   H330    1.082   .     S
C297   O339    1.294   .     A
C297   C299    1.467   .     S
C297   O407    1.296   .     S
C298   C300    1.466   .     S
C298   O340    1.293   .     A
C299   C303    1.399   .     A
C299   C305    1.399   .     A
C300   C304    1.399   .     A
C300   C306    1.398   .     A
C301   C303    1.391   .     A
C301   C309    1.404   .     A
C301   H391    1.083   .     S
C302   H322    1.084   .     S
C302   C304    1.392   .     A
C302   C310    1.404   .     A
C303   H390    1.083   .     S
C305   H318    1.075   .     S
C305   C307    1.405   .     A
C306   H317    1.075   .     S
C306   C308    1.405   .     A
C307   C309    1.418   .     A
C307   C311    1.427   .     A
C308   C310    1.418   .     A
C308   C312    1.426   .     A
C309   C915    1.390   .     S
C310   C916    1.390   1_554 S
C311   C942    1.424   .     S
C312   C941    1.424   1_554 S
Cu313  N331    2.011   .     S
Cu313  O337    1.958   .     S
Cu313  O336    1.968   .     S
Cu313  O340    1.944   .     S
Cu313  O333    1.973   .     S
Cu314  N332    2.011   .     S
Cu314  O335    1.968   .     S
Cu314  O339    1.944   .     S
Cu314  O334    1.973   .     S
Cu314  O338    1.958   .     S
Cu314  Cu383   2.676   .     S
H319   C374    1.083   .     S
O335   C351    1.294   .     S
O338   C368    1.296   .     S
O341   C342    1.411   .     S
C342   H343    1.112   .     S
C342   H344    1.109   .     S
C342   H345    1.114   .     S
O346   C347    1.411   .     S
C347   H350    1.114   .     S
C347   H349    1.112   .     S
C347   H348    1.109   .     S
C351   C362    1.454   .     S
C351   O403    1.289   .     A
C352   O404    1.289   .     A
C352   C361    1.454   .     S
C352   O266    1.294   1_655 S
C353   C382    1.417   .     A
C353   H393    1.076   .     S
C353   C355    1.386   .     A
C354   H394    1.076   .     S
C354   C381    1.417   .     A
C354   C356    1.387   .     A
C355   H385    1.084   .     S
C355   C1009   1.390   1_554 S
C356   H386    1.084   .     S
C356   C1010   1.390   .     S
C357   H395    1.084   .     S
C357   C222    1.400   1_655 S
C358   H396    1.084   .     S
C358   C570    1.389   .     S
C359   C361    1.410   .     A
C359   O411    1.384   .     S
C359   C567    1.389   .     S
C360   C362    1.410   .     A
C360   O416    1.384   .     S
C361   C218    1.400   1_655 S
C363   N402    1.367   .     A
C363   C365    1.416   .     A
C363   H397    1.081   .     S
C364   C366    1.416   .     A
C364   N401    1.367   .     A
C364   H398    1.081   .     S
C365   N401    1.366   .     A
C365   H399    1.082   .     S
C366   N402    1.366   .     A
C366   H400    1.082   .     S
C367   O409    1.294   .     A
C367   C369    1.467   .     S
C367   O267    1.296   1_655 S
C368   C370    1.466   .     S
C368   O410    1.293   .     A
C369   C373    1.399   .     A
C369   C375    1.399   .     A
C370   C374    1.399   .     A
C370   C376    1.398   .     A
C371   C373    1.391   .     A
C371   C379    1.404   .     A
C371   H251    1.083   1_655 S
C372   H392    1.084   .     S
C372   C374    1.392   .     A
C372   C380    1.404   .     A
C373   H250    1.083   1_655 S
C375   H388    1.075   .     S
C375   C377    1.405   .     A
C376   H387    1.075   .     S
C376   C378    1.405   .     A
C377   C379    1.418   .     A
C377   C381    1.427   .     A
C378   C380    1.418   .     A
C378   C382    1.426   .     A
C379   C985    1.390   .     S
C380   C986    1.390   1_554 S
C381   C1012   1.424   .     S
C382   C1011   1.424   1_554 S
Cu383  N401    2.011   .     S
Cu383  O407    1.958   .     S
Cu383  O406    1.968   .     S
Cu383  O410    1.944   .     S
Cu383  O403    1.973   .     S
Cu384  N402    2.011   .     S
Cu384  O405    1.968   .     S
Cu384  O409    1.944   .     S
Cu384  O404    1.973   .     S
Cu384  O408    1.958   .     S
Cu384  Cu243   2.676   1_655 S
H389   C234    1.083   1_655 S
O405   C211    1.294   1_655 S
O408   C228    1.296   1_655 S
O411   C412    1.411   .     S
C412   H413    1.112   .     S
C412   H414    1.109   .     S
C412   H415    1.114   .     S
O416   C417    1.411   .     S
C417   H420    1.114   .     S
C417   H419    1.112   .     S
C417   H418    1.109   .     S
C421   C432    1.454   .     S
C421   O473    1.289   .     A
C421   O615    1.294   1_455 S
C422   O474    1.289   .     A
C422   C431    1.454   .     S
C422   O546    1.294   .     S
C423   C452    1.417   .     A
C423   H463    1.076   .     S
C423   C425    1.386   .     A
C424   H464    1.076   .     S
C424   C451    1.417   .     A
C424   C426    1.387   .     A
C425   H455    1.084   .     S
C425   C1079   1.390   1_554 S
C426   H456    1.084   .     S
C426   C1080   1.390   .     S
C427   H465    1.084   .     S
C427   C502    1.400   .     S
C428   H466    1.084   .     S
C428   C10     1.389   1_565 S
C428   C571    1.400   1_455 S
C429   C431    1.410   .     A
C429   O481    1.384   .     S
C429   C7      1.389   1_565 S
C430   C432    1.410   .     A
C430   O486    1.384   .     S
C431   C498    1.400   .     S
C432   C567    1.400   1_455 S
C433   N472    1.367   .     A
C433   C435    1.416   .     A
C433   H467    1.081   .     S
C434   C436    1.416   .     A
C434   N471    1.367   .     A
C434   H468    1.081   .     S
C435   N471    1.366   .     A
C435   H469    1.082   .     S
C436   N472    1.366   .     A
C436   H470    1.082   .     S
C437   O479    1.294   .     A
C437   C439    1.467   .     S
C437   O547    1.296   .     S
C438   C440    1.466   .     S
C438   O480    1.293   .     A
C438   O618    1.296   1_455 S
C439   C443    1.399   .     A
C439   C445    1.399   .     A
C440   C444    1.399   .     A
C440   C446    1.398   .     A
C441   C443    1.391   .     A
C441   C449    1.404   .     A
C441   H531    1.083   .     S
C442   H462    1.084   .     S
C442   C444    1.392   .     A
C442   C450    1.404   .     A
C443   H530    1.083   .     S
C444   H599    1.083   1_455 S
C445   H458    1.075   .     S
C445   C447    1.405   .     A
C446   H457    1.075   .     S
C446   C448    1.405   .     A
C447   C449    1.418   .     A
C447   C451    1.427   .     A
C448   C450    1.418   .     A
C448   C452    1.426   .     A
C449   C1055   1.390   .     S
C450   C1056   1.390   1_554 S
C451   C1082   1.424   .     S
C452   C1081   1.424   1_554 S
Cu453  N471    2.011   .     S
Cu453  O477    1.958   .     S
Cu453  O476    1.968   .     S
Cu453  O480    1.944   .     S
Cu453  O473    1.973   .     S
Cu453  Cu594   2.676   1_455 S
Cu454  N472    2.011   .     S
Cu454  O475    1.968   .     S
Cu454  O479    1.944   .     S
Cu454  O474    1.973   .     S
Cu454  O478    1.958   .     S
Cu454  Cu523   2.676   .     S
H459   C514    1.083   .     S
H460   C583    1.083   1_455 S
H461   C581    1.083   1_455 S
O475   C491    1.294   .     S
O476   C562    1.294   1_455 S
O477   C577    1.296   1_455 S
O478   C508    1.296   .     S
O481   C482    1.411   .     S
C482   H483    1.112   .     S
C482   H484    1.109   .     S
C482   H485    1.114   .     S
O486   C487    1.411   .     S
C487   H490    1.114   .     S
C487   H489    1.112   .     S
C487   H488    1.109   .     S
C491   C502    1.454   .     S
C491   O543    1.289   .     A
C492   O544    1.289   .     A
C492   C501    1.454   .     S
C492   O616    1.294   .     S
C493   C522    1.417   .     A
C493   H533    1.076   .     S
C493   C495    1.386   .     A
C494   H534    1.076   .     S
C494   C521    1.417   .     A
C494   C496    1.387   .     A
C495   H525    1.084   .     S
C495   C1149   1.390   1_554 S
C496   H526    1.084   .     S
C496   C1150   1.390   .     S
C497   H535    1.084   .     S
C497   C572    1.400   .     S
C498   H536    1.084   .     S
C498   C80     1.389   1_565 S
C499   C501    1.410   .     A
C499   O551    1.384   .     S
C499   C77     1.389   1_565 S
C500   C502    1.410   .     A
C500   O556    1.384   .     S
C501   C568    1.400   .     S
C503   N542    1.367   .     A
C503   C505    1.416   .     A
C503   H537    1.081   .     S
C504   C506    1.416   .     A
C504   N541    1.367   .     A
C504   H538    1.081   .     S
C505   N541    1.366   .     A
C505   H539    1.082   .     S
C506   N542    1.366   .     A
C506   H540    1.082   .     S
C507   O549    1.294   .     A
C507   C509    1.467   .     S
C507   O617    1.296   .     S
C508   C510    1.466   .     S
C508   O550    1.293   .     A
C509   C513    1.399   .     A
C509   C515    1.399   .     A
C510   C514    1.399   .     A
C510   C516    1.398   .     A
C511   C513    1.391   .     A
C511   C519    1.404   .     A
C511   H601    1.083   .     S
C512   H532    1.084   .     S
C512   C514    1.392   .     A
C512   C520    1.404   .     A
C513   H600    1.083   .     S
C515   H528    1.075   .     S
C515   C517    1.405   .     A
C516   H527    1.075   .     S
C516   C518    1.405   .     A
C517   C519    1.418   .     A
C517   C521    1.427   .     A
C518   C520    1.418   .     A
C518   C522    1.426   .     A
C519   C1125   1.390   .     S
C520   C1126   1.390   1_554 S
C521   C1152   1.424   .     S
C522   C1151   1.424   1_554 S
Cu523  N541    2.011   .     S
Cu523  O547    1.958   .     S
Cu523  O546    1.968   .     S
Cu523  O550    1.944   .     S
Cu523  O543    1.973   .     S
Cu524  N542    2.011   .     S
Cu524  O545    1.968   .     S
Cu524  O549    1.944   .     S
Cu524  O544    1.973   .     S
Cu524  O548    1.958   .     S
Cu524  Cu593   2.676   .     S
H529   C584    1.083   .     S
O545   C561    1.294   .     S
O548   C578    1.296   .     S
O551   C552    1.411   .     S
C552   H553    1.112   .     S
C552   H554    1.109   .     S
C552   H555    1.114   .     S
O556   C557    1.411   .     S
C557   H560    1.114   .     S
C557   H559    1.112   .     S
C557   H558    1.109   .     S
C561   C572    1.454   .     S
C561   O613    1.289   .     A
C562   O614    1.289   .     A
C562   C571    1.454   .     S
C562   O476    1.294   1_655 S
C563   C592    1.417   .     A
C563   H603    1.076   .     S
C563   C565    1.386   .     A
C564   H604    1.076   .     S
C564   C591    1.417   .     A
C564   C566    1.387   .     A
C565   H595    1.084   .     S
C565   C1219   1.390   1_554 S
C566   H596    1.084   .     S
C566   C1220   1.390   .     S
C567   H605    1.084   .     S
C567   C432    1.400   1_655 S
C568   H606    1.084   .     S
C568   C150    1.389   1_565 S
C569   C571    1.410   .     A
C569   O621    1.384   .     S
C569   C147    1.389   1_565 S
C570   C572    1.410   .     A
C570   O626    1.384   .     S
C571   C428    1.400   1_655 S
C573   N612    1.367   .     A
C573   C575    1.416   .     A
C573   H607    1.081   .     S
C574   C576    1.416   .     A
C574   N611    1.367   .     A
C574   H608    1.081   .     S
C575   N611    1.366   .     A
C575   H609    1.082   .     S
C576   N612    1.366   .     A
C576   H610    1.082   .     S
C577   O619    1.294   .     A
C577   C579    1.467   .     S
C577   O477    1.296   1_655 S
C578   C580    1.466   .     S
C578   O620    1.293   .     A
C579   C583    1.399   .     A
C579   C585    1.399   .     A
C580   C584    1.399   .     A
C580   C586    1.398   .     A
C581   C583    1.391   .     A
C581   C589    1.404   .     A
C581   H461    1.083   1_655 S
C582   H602    1.084   .     S
C582   C584    1.392   .     A
C582   C590    1.404   .     A
C583   H460    1.083   1_655 S
C585   H598    1.075   .     S
C585   C587    1.405   .     A
C586   H597    1.075   .     S
C586   C588    1.405   .     A
C587   C589    1.418   .     A
C587   C591    1.427   .     A
C588   C590    1.418   .     A
C588   C592    1.426   .     A
C589   C1195   1.390   .     S
C590   C1196   1.390   1_554 S
C591   C1222   1.424   .     S
C592   C1221   1.424   1_554 S
Cu593  N611    2.011   .     S
Cu593  O617    1.958   .     S
Cu593  O616    1.968   .     S
Cu593  O620    1.944   .     S
Cu593  O613    1.973   .     S
Cu594  N612    2.011   .     S
Cu594  O615    1.968   .     S
Cu594  O619    1.944   .     S
Cu594  O614    1.973   .     S
Cu594  O618    1.958   .     S
Cu594  Cu453   2.676   1_655 S
H599   C444    1.083   1_655 S
O615   C421    1.294   1_655 S
O618   C438    1.296   1_655 S
O621   C622    1.411   .     S
C622   H623    1.112   .     S
C622   H624    1.109   .     S
C622   H625    1.114   .     S
O626   C627    1.411   .     S
C627   H630    1.114   .     S
C627   H629    1.112   .     S
C627   H628    1.109   .     S
C631   C642    1.454   .     S
C631   O683    1.289   .     A
C631   O825    1.294   1_455 S
C632   O684    1.289   .     A
C632   C641    1.454   .     S
C632   O756    1.294   .     S
C633   C662    1.417   .     A
C633   H673    1.076   .     S
C633   C635    1.386   .     A
C634   H674    1.076   .     S
C634   C661    1.417   .     A
C634   C636    1.387   .     A
C635   H665    1.084   .     S
C636   H666    1.084   .     S
C636   C30     1.390   1_556 S
C637   H675    1.084   .     S
C637   C1059   1.389   1_545 S
C637   C712    1.400   .     S
C638   H676    1.084   .     S
C638   C850    1.389   .     S
C638   C781    1.400   1_455 S
C639   C641    1.410   .     A
C639   O691    1.384   .     S
C639   C847    1.389   .     S
C640   C642    1.410   .     A
C640   O696    1.384   .     S
C640   C1058   1.389   1_545 S
C641   C708    1.400   .     S
C642   C777    1.400   1_455 S
C643   N682    1.367   .     A
C643   C645    1.416   .     A
C643   H677    1.081   .     S
C644   C646    1.416   .     A
C644   N681    1.367   .     A
C644   H678    1.081   .     S
C645   N681    1.366   .     A
C645   H679    1.082   .     S
C646   N682    1.366   .     A
C646   H680    1.082   .     S
C647   O689    1.294   .     A
C647   C649    1.467   .     S
C647   O757    1.296   .     S
C648   C650    1.466   .     S
C648   O690    1.293   .     A
C648   O828    1.296   1_455 S
C649   C653    1.399   .     A
C649   C655    1.399   .     A
C650   C654    1.399   .     A
C650   C656    1.398   .     A
C651   C653    1.391   .     A
C651   C659    1.404   .     A
C651   H741    1.083   .     S
C652   H672    1.084   .     S
C652   C654    1.392   .     A
C652   C660    1.404   .     A
C653   H740    1.083   .     S
C654   H809    1.083   1_455 S
C655   H668    1.075   .     S
C655   C657    1.405   .     A
C656   H667    1.075   .     S
C656   C658    1.405   .     A
C657   C659    1.418   .     A
C657   C661    1.427   .     A
C658   C660    1.418   .     A
C658   C662    1.426   .     A
C659   C5      1.390   1_556 S
C661   C32     1.424   1_556 S
Cu663  N681    2.011   .     S
Cu663  O687    1.958   .     S
Cu663  O686    1.968   .     S
Cu663  O690    1.944   .     S
Cu663  O683    1.973   .     S
Cu663  Cu804   2.676   1_455 S
Cu664  N682    2.011   .     S
Cu664  O685    1.968   .     S
Cu664  O689    1.944   .     S
Cu664  O684    1.973   .     S
Cu664  O688    1.958   .     S
Cu664  Cu733   2.676   .     S
H669   C724    1.083   .     S
H670   C793    1.083   1_455 S
H671   C791    1.083   1_455 S
O685   C701    1.294   .     S
O686   C772    1.294   1_455 S
O687   C787    1.296   1_455 S
O688   C718    1.296   .     S
O691   C692    1.411   .     S
C692   H693    1.112   .     S
C692   H694    1.109   .     S
C692   H695    1.114   .     S
O696   C697    1.411   .     S
C697   H700    1.114   .     S
C697   H699    1.112   .     S
C697   H698    1.109   .     S
C701   C712    1.454   .     S
C701   O753    1.289   .     A
C702   O754    1.289   .     A
C702   C711    1.454   .     S
C702   O826    1.294   .     S
C703   C732    1.417   .     A
C703   H743    1.076   .     S
C703   C705    1.386   .     A
C704   H744    1.076   .     S
C704   C731    1.417   .     A
C704   C706    1.387   .     A
C705   H735    1.084   .     S
C706   H736    1.084   .     S
C706   C100    1.390   1_556 S
C707   H745    1.084   .     S
C707   C1129   1.389   1_545 S
C707   C782    1.400   .     S
C708   H746    1.084   .     S
C708   C920    1.389   .     S
C709   C711    1.410   .     A
C709   O761    1.384   .     S
C709   C917    1.389   .     S
C710   C712    1.410   .     A
C710   O766    1.384   .     S
C710   C1128   1.389   1_545 S
C711   C778    1.400   .     S
C713   N752    1.367   .     A
C713   C715    1.416   .     A
C713   H747    1.081   .     S
C714   C716    1.416   .     A
C714   N751    1.367   .     A
C714   H748    1.081   .     S
C715   N751    1.366   .     A
C715   H749    1.082   .     S
C716   N752    1.366   .     A
C716   H750    1.082   .     S
C717   O759    1.294   .     A
C717   C719    1.467   .     S
C717   O827    1.296   .     S
C718   C720    1.466   .     S
C718   O760    1.293   .     A
C719   C723    1.399   .     A
C719   C725    1.399   .     A
C720   C724    1.399   .     A
C720   C726    1.398   .     A
C721   C723    1.391   .     A
C721   C729    1.404   .     A
C721   H811    1.083   .     S
C722   H742    1.084   .     S
C722   C724    1.392   .     A
C722   C730    1.404   .     A
C723   H810    1.083   .     S
C725   H738    1.075   .     S
C725   C727    1.405   .     A
C726   H737    1.075   .     S
C726   C728    1.405   .     A
C727   C729    1.418   .     A
C727   C731    1.427   .     A
C728   C730    1.418   .     A
C728   C732    1.426   .     A
C729   C75     1.390   1_556 S
C731   C102    1.424   1_556 S
Cu733  N751    2.011   .     S
Cu733  O757    1.958   .     S
Cu733  O756    1.968   .     S
Cu733  O760    1.944   .     S
Cu733  O753    1.973   .     S
Cu734  N752    2.011   .     S
Cu734  O755    1.968   .     S
Cu734  O759    1.944   .     S
Cu734  O754    1.973   .     S
Cu734  O758    1.958   .     S
Cu734  Cu803   2.676   .     S
H739   C794    1.083   .     S
O755   C771    1.294   .     S
O758   C788    1.296   .     S
O761   C762    1.411   .     S
C762   H763    1.112   .     S
C762   H764    1.109   .     S
C762   H765    1.114   .     S
O766   C767    1.411   .     S
C767   H770    1.114   .     S
C767   H769    1.112   .     S
C767   H768    1.109   .     S
C771   C782    1.454   .     S
C771   O823    1.289   .     A
C772   O824    1.289   .     A
C772   C781    1.454   .     S
C772   O686    1.294   1_655 S
C773   C802    1.417   .     A
C773   H813    1.076   .     S
C773   C775    1.386   .     A
C774   H814    1.076   .     S
C774   C801    1.417   .     A
C774   C776    1.387   .     A
C775   H805    1.084   .     S
C776   H806    1.084   .     S
C776   C170    1.390   1_556 S
C777   H815    1.084   .     S
C777   C1199   1.389   1_545 S
C777   C642    1.400   1_655 S
C778   H816    1.084   .     S
C778   C990    1.389   .     S
C779   C781    1.410   .     A
C779   O831    1.384   .     S
C779   C987    1.389   .     S
C780   C782    1.410   .     A
C780   O836    1.384   .     S
C780   C1198   1.389   1_545 S
C781   C638    1.400   1_655 S
C783   N822    1.367   .     A
C783   C785    1.416   .     A
C783   H817    1.081   .     S
C784   C786    1.416   .     A
C784   N821    1.367   .     A
C784   H818    1.081   .     S
C785   N821    1.366   .     A
C785   H819    1.082   .     S
C786   N822    1.366   .     A
C786   H820    1.082   .     S
C787   O829    1.294   .     A
C787   C789    1.467   .     S
C787   O687    1.296   1_655 S
C788   C790    1.466   .     S
C788   O830    1.293   .     A
C789   C793    1.399   .     A
C789   C795    1.399   .     A
C790   C794    1.399   .     A
C790   C796    1.398   .     A
C791   C793    1.391   .     A
C791   C799    1.404   .     A
C791   H671    1.083   1_655 S
C792   H812    1.084   .     S
C792   C794    1.392   .     A
C792   C800    1.404   .     A
C793   H670    1.083   1_655 S
C795   H808    1.075   .     S
C795   C797    1.405   .     A
C796   H807    1.075   .     S
C796   C798    1.405   .     A
C797   C799    1.418   .     A
C797   C801    1.427   .     A
C798   C800    1.418   .     A
C798   C802    1.426   .     A
C799   C145    1.390   1_556 S
C801   C172    1.424   1_556 S
Cu803  N821    2.011   .     S
Cu803  O827    1.958   .     S
Cu803  O826    1.968   .     S
Cu803  O830    1.944   .     S
Cu803  O823    1.973   .     S
Cu804  N822    2.011   .     S
Cu804  O825    1.968   .     S
Cu804  O829    1.944   .     S
Cu804  O824    1.973   .     S
Cu804  O828    1.958   .     S
Cu804  Cu663   2.676   1_655 S
H809   C654    1.083   1_655 S
O825   C631    1.294   1_655 S
O828   C648    1.296   1_655 S
O831   C832    1.411   .     S
C832   H833    1.112   .     S
C832   H834    1.109   .     S
C832   H835    1.114   .     S
O836   C837    1.411   .     S
C837   H840    1.114   .     S
C837   H839    1.112   .     S
C837   H838    1.109   .     S
C841   C852    1.454   .     S
C841   O893    1.289   .     A
C841   O1035   1.294   1_455 S
C842   O894    1.289   .     A
C842   C851    1.454   .     S
C842   O966    1.294   .     S
C843   C872    1.417   .     A
C843   H883    1.076   .     S
C843   C845    1.386   .     A
C844   H884    1.076   .     S
C844   C871    1.417   .     A
C844   C846    1.387   .     A
C845   H875    1.084   .     S
C846   H876    1.084   .     S
C846   C240    1.390   1_556 S
C847   H885    1.084   .     S
C847   C922    1.400   .     S
C848   H886    1.084   .     S
C848   C1060   1.389   .     S
C848   C991    1.400   1_455 S
C849   C851    1.410   .     A
C849   O901    1.384   .     S
C849   C1057   1.389   .     S
C850   C852    1.410   .     A
C850   O906    1.384   .     S
C851   C918    1.400   .     S
C852   C987    1.400   1_455 S
C853   N892    1.367   .     A
C853   C855    1.416   .     A
C853   H887    1.081   .     S
C854   C856    1.416   .     A
C854   N891    1.367   .     A
C854   H888    1.081   .     S
C855   N891    1.366   .     A
C855   H889    1.082   .     S
C856   N892    1.366   .     A
C856   H890    1.082   .     S
C857   O899    1.294   .     A
C857   C859    1.467   .     S
C857   O967    1.296   .     S
C858   C860    1.466   .     S
C858   O900    1.293   .     A
C858   O1038   1.296   1_455 S
C859   C863    1.399   .     A
C859   C865    1.399   .     A
C860   C864    1.399   .     A
C860   C866    1.398   .     A
C861   C863    1.391   .     A
C861   C869    1.404   .     A
C861   H951    1.083   .     S
C862   H882    1.084   .     S
C862   C864    1.392   .     A
C862   C870    1.404   .     A
C863   H950    1.083   .     S
C864   H1019   1.083   1_455 S
C865   H878    1.075   .     S
C865   C867    1.405   .     A
C866   H877    1.075   .     S
C866   C868    1.405   .     A
C867   C869    1.418   .     A
C867   C871    1.427   .     A
C868   C870    1.418   .     A
C868   C872    1.426   .     A
C869   C215    1.390   1_556 S
C871   C242    1.424   1_556 S
Cu873  N891    2.011   .     S
Cu873  O897    1.958   .     S
Cu873  O896    1.968   .     S
Cu873  O900    1.944   .     S
Cu873  O893    1.973   .     S
Cu873  Cu1014  2.676   1_455 S
Cu874  N892    2.011   .     S
Cu874  O895    1.968   .     S
Cu874  O899    1.944   .     S
Cu874  O894    1.973   .     S
Cu874  O898    1.958   .     S
Cu874  Cu943   2.676   .     S
H879   C934    1.083   .     S
H880   C1003   1.083   1_455 S
H881   C1001   1.083   1_455 S
O895   C911    1.294   .     S
O896   C982    1.294   1_455 S
O897   C997    1.296   1_455 S
O898   C928    1.296   .     S
O901   C902    1.411   .     S
C902   H903    1.112   .     S
C902   H904    1.109   .     S
C902   H905    1.114   .     S
O906   C907    1.411   .     S
C907   H910    1.114   .     S
C907   H909    1.112   .     S
C907   H908    1.109   .     S
C911   C922    1.454   .     S
C911   O963    1.289   .     A
C912   O964    1.289   .     A
C912   C921    1.454   .     S
C912   O1036   1.294   .     S
C913   C942    1.417   .     A
C913   H953    1.076   .     S
C913   C915    1.386   .     A
C914   H954    1.076   .     S
C914   C941    1.417   .     A
C914   C916    1.387   .     A
C915   H945    1.084   .     S
C916   H946    1.084   .     S
C916   C310    1.390   1_556 S
C917   H955    1.084   .     S
C917   C992    1.400   .     S
C918   H956    1.084   .     S
C918   C1130   1.389   .     S
C919   C921    1.410   .     A
C919   O971    1.384   .     S
C919   C1127   1.389   .     S
C920   C922    1.410   .     A
C920   O976    1.384   .     S
C921   C988    1.400   .     S
C923   N962    1.367   .     A
C923   C925    1.416   .     A
C923   H957    1.081   .     S
C924   C926    1.416   .     A
C924   N961    1.367   .     A
C924   H958    1.081   .     S
C925   N961    1.366   .     A
C925   H959    1.082   .     S
C926   N962    1.366   .     A
C926   H960    1.082   .     S
C927   O969    1.294   .     A
C927   C929    1.467   .     S
C927   O1037   1.296   .     S
C928   C930    1.466   .     S
C928   O970    1.293   .     A
C929   C933    1.399   .     A
C929   C935    1.399   .     A
C930   C934    1.399   .     A
C930   C936    1.398   .     A
C931   C933    1.391   .     A
C931   C939    1.404   .     A
C931   H1021   1.083   .     S
C932   H952    1.084   .     S
C932   C934    1.392   .     A
C932   C940    1.404   .     A
C933   H1020   1.083   .     S
C935   H948    1.075   .     S
C935   C937    1.405   .     A
C936   H947    1.075   .     S
C936   C938    1.405   .     A
C937   C939    1.418   .     A
C937   C941    1.427   .     A
C938   C940    1.418   .     A
C938   C942    1.426   .     A
C939   C285    1.390   1_556 S
C941   C312    1.424   1_556 S
Cu943  N961    2.011   .     S
Cu943  O967    1.958   .     S
Cu943  O966    1.968   .     S
Cu943  O970    1.944   .     S
Cu943  O963    1.973   .     S
Cu944  N962    2.011   .     S
Cu944  O965    1.968   .     S
Cu944  O969    1.944   .     S
Cu944  O964    1.973   .     S
Cu944  O968    1.958   .     S
Cu944  Cu1013  2.676   .     S
H949   C1004   1.083   .     S
O965   C981    1.294   .     S
O968   C998    1.296   .     S
O971   C972    1.411   .     S
C972   H973    1.112   .     S
C972   H974    1.109   .     S
C972   H975    1.114   .     S
O976   C977    1.411   .     S
C977   H980    1.114   .     S
C977   H979    1.112   .     S
C977   H978    1.109   .     S
C981   C992    1.454   .     S
C981   O1033   1.289   .     A
C982   O1034   1.289   .     A
C982   C991    1.454   .     S
C982   O896    1.294   1_655 S
C983   C1012   1.417   .     A
C983   H1023   1.076   .     S
C983   C985    1.386   .     A
C984   H1024   1.076   .     S
C984   C1011   1.417   .     A
C984   C986    1.387   .     A
C985   H1015   1.084   .     S
C986   H1016   1.084   .     S
C986   C380    1.390   1_556 S
C987   H1025   1.084   .     S
C987   C852    1.400   1_655 S
C988   H1026   1.084   .     S
C988   C1200   1.389   .     S
C989   C991    1.410   .     A
C989   O1041   1.384   .     S
C989   C1197   1.389   .     S
C990   C992    1.410   .     A
C990   O1046   1.384   .     S
C991   C848    1.400   1_655 S
C993   N1032   1.367   .     A
C993   C995    1.416   .     A
C993   H1027   1.081   .     S
C994   C996    1.416   .     A
C994   N1031   1.367   .     A
C994   H1028   1.081   .     S
C995   N1031   1.366   .     A
C995   H1029   1.082   .     S
C996   N1032   1.366   .     A
C996   H1030   1.082   .     S
C997   O1039   1.294   .     A
C997   C999    1.467   .     S
C997   O897    1.296   1_655 S
C998   C1000   1.466   .     S
C998   O1040   1.293   .     A
C999   C1003   1.399   .     A
C999   C1005   1.399   .     A
C1000  C1004   1.399   .     A
C1000  C1006   1.398   .     A
C1001  C1003   1.391   .     A
C1001  C1009   1.404   .     A
C1001  H881    1.083   1_655 S
C1002  H1022   1.084   .     S
C1002  C1004   1.392   .     A
C1002  C1010   1.404   .     A
C1003  H880    1.083   1_655 S
C1005  H1018   1.075   .     S
C1005  C1007   1.405   .     A
C1006  H1017   1.075   .     S
C1006  C1008   1.405   .     A
C1007  C1009   1.418   .     A
C1007  C1011   1.427   .     A
C1008  C1010   1.418   .     A
C1008  C1012   1.426   .     A
C1009  C355    1.390   1_556 S
C1011  C382    1.424   1_556 S
Cu1013 N1031   2.011   .     S
Cu1013 O1037   1.958   .     S
Cu1013 O1036   1.968   .     S
Cu1013 O1040   1.944   .     S
Cu1013 O1033   1.973   .     S
Cu1014 N1032   2.011   .     S
Cu1014 O1035   1.968   .     S
Cu1014 O1039   1.944   .     S
Cu1014 O1034   1.973   .     S
Cu1014 O1038   1.958   .     S
Cu1014 Cu873   2.676   1_655 S
H1019  C864    1.083   1_655 S
O1035  C841    1.294   1_655 S
O1038  C858    1.296   1_655 S
O1041  C1042   1.411   .     S
C1042  H1043   1.112   .     S
C1042  H1044   1.109   .     S
C1042  H1045   1.114   .     S
O1046  C1047   1.411   .     S
C1047  H1050   1.114   .     S
C1047  H1049   1.112   .     S
C1047  H1048   1.109   .     S
C1051  C1062   1.454   .     S
C1051  O1103   1.289   .     A
C1051  O1245   1.294   1_455 S
C1052  O1104   1.289   .     A
C1052  C1061   1.454   .     S
C1052  O1176   1.294   .     S
C1053  C1082   1.417   .     A
C1053  H1093   1.076   .     S
C1053  C1055   1.386   .     A
C1054  H1094   1.076   .     S
C1054  C1081   1.417   .     A
C1054  C1056   1.387   .     A
C1055  H1085   1.084   .     S
C1056  H1086   1.084   .     S
C1056  C450    1.390   1_556 S
C1057  H1095   1.084   .     S
C1057  C1132   1.400   .     S
C1058  H1096   1.084   .     S
C1058  C640    1.389   1_565 S
C1058  C1201   1.400   1_455 S
C1059  C1061   1.410   .     A
C1059  O1111   1.384   .     S
C1059  C637    1.389   1_565 S
C1060  C1062   1.410   .     A
C1060  O1116   1.384   .     S
C1061  C1128   1.400   .     S
C1062  C1197   1.400   1_455 S
C1063  N1102   1.367   .     A
C1063  C1065   1.416   .     A
C1063  H1097   1.081   .     S
C1064  C1066   1.416   .     A
C1064  N1101   1.367   .     A
C1064  H1098   1.081   .     S
C1065  N1101   1.366   .     A
C1065  H1099   1.082   .     S
C1066  N1102   1.366   .     A
C1066  H1100   1.082   .     S
C1067  O1109   1.294   .     A
C1067  C1069   1.467   .     S
C1067  O1177   1.296   .     S
C1068  C1070   1.466   .     S
C1068  O1110   1.293   .     A
C1068  O1248   1.296   1_455 S
C1069  C1073   1.399   .     A
C1069  C1075   1.399   .     A
C1070  C1074   1.399   .     A
C1070  C1076   1.398   .     A
C1071  C1073   1.391   .     A
C1071  C1079   1.404   .     A
C1071  H1161   1.083   .     S
C1072  H1092   1.084   .     S
C1072  C1074   1.392   .     A
C1072  C1080   1.404   .     A
C1073  H1160   1.083   .     S
C1074  H1229   1.083   1_455 S
C1075  H1088   1.075   .     S
C1075  C1077   1.405   .     A
C1076  H1087   1.075   .     S
C1076  C1078   1.405   .     A
C1077  C1079   1.418   .     A
C1077  C1081   1.427   .     A
C1078  C1080   1.418   .     A
C1078  C1082   1.426   .     A
C1079  C425    1.390   1_556 S
C1081  C452    1.424   1_556 S
Cu1083 N1101   2.011   .     S
Cu1083 O1107   1.958   .     S
Cu1083 O1106   1.968   .     S
Cu1083 O1110   1.944   .     S
Cu1083 O1103   1.973   .     S
Cu1083 Cu1224  2.676   1_455 S
Cu1084 N1102   2.011   .     S
Cu1084 O1105   1.968   .     S
Cu1084 O1109   1.944   .     S
Cu1084 O1104   1.973   .     S
Cu1084 O1108   1.958   .     S
Cu1084 Cu1153  2.676   .     S
H1089  C1144   1.083   .     S
H1090  C1213   1.083   1_455 S
H1091  C1211   1.083   1_455 S
O1105  C1121   1.294   .     S
O1106  C1192   1.294   1_455 S
O1107  C1207   1.296   1_455 S
O1108  C1138   1.296   .     S
O1111  C1112   1.411   .     S
C1112  H1113   1.112   .     S
C1112  H1114   1.109   .     S
C1112  H1115   1.114   .     S
O1116  C1117   1.411   .     S
C1117  H1120   1.114   .     S
C1117  H1119   1.112   .     S
C1117  H1118   1.109   .     S
C1121  C1132   1.454   .     S
C1121  O1173   1.289   .     A
C1122  O1174   1.289   .     A
C1122  C1131   1.454   .     S
C1122  O1246   1.294   .     S
C1123  C1152   1.417   .     A
C1123  H1163   1.076   .     S
C1123  C1125   1.386   .     A
C1124  H1164   1.076   .     S
C1124  C1151   1.417   .     A
C1124  C1126   1.387   .     A
C1125  H1155   1.084   .     S
C1126  H1156   1.084   .     S
C1126  C520    1.390   1_556 S
C1127  H1165   1.084   .     S
C1127  C1202   1.400   .     S
C1128  H1166   1.084   .     S
C1128  C710    1.389   1_565 S
C1129  C1131   1.410   .     A
C1129  O1181   1.384   .     S
C1129  C707    1.389   1_565 S
C1130  C1132   1.410   .     A
C1130  O1186   1.384   .     S
C1131  C1198   1.400   .     S
C1133  N1172   1.367   .     A
C1133  C1135   1.416   .     A
C1133  H1167   1.081   .     S
C1134  C1136   1.416   .     A
C1134  N1171   1.367   .     A
C1134  H1168   1.081   .     S
C1135  N1171   1.366   .     A
C1135  H1169   1.082   .     S
C1136  N1172   1.366   .     A
C1136  H1170   1.082   .     S
C1137  O1179   1.294   .     A
C1137  C1139   1.467   .     S
C1137  O1247   1.296   .     S
C1138  C1140   1.466   .     S
C1138  O1180   1.293   .     A
C1139  C1143   1.399   .     A
C1139  C1145   1.399   .     A
C1140  C1144   1.399   .     A
C1140  C1146   1.398   .     A
C1141  C1143   1.391   .     A
C1141  C1149   1.404   .     A
C1141  H1231   1.083   .     S
C1142  H1162   1.084   .     S
C1142  C1144   1.392   .     A
C1142  C1150   1.404   .     A
C1143  H1230   1.083   .     S
C1145  H1158   1.075   .     S
C1145  C1147   1.405   .     A
C1146  H1157   1.075   .     S
C1146  C1148   1.405   .     A
C1147  C1149   1.418   .     A
C1147  C1151   1.427   .     A
C1148  C1150   1.418   .     A
C1148  C1152   1.426   .     A
C1149  C495    1.390   1_556 S
C1151  C522    1.424   1_556 S
Cu1153 N1171   2.011   .     S
Cu1153 O1177   1.958   .     S
Cu1153 O1176   1.968   .     S
Cu1153 O1180   1.944   .     S
Cu1153 O1173   1.973   .     S
Cu1154 N1172   2.011   .     S
Cu1154 O1175   1.968   .     S
Cu1154 O1179   1.944   .     S
Cu1154 O1174   1.973   .     S
Cu1154 O1178   1.958   .     S
Cu1154 Cu1223  2.676   .     S
H1159  C1214   1.083   .     S
O1175  C1191   1.294   .     S
O1178  C1208   1.296   .     S
O1181  C1182   1.411   .     S
C1182  H1183   1.112   .     S
C1182  H1184   1.109   .     S
C1182  H1185   1.114   .     S
O1186  C1187   1.411   .     S
C1187  H1190   1.114   .     S
C1187  H1189   1.112   .     S
C1187  H1188   1.109   .     S
C1191  C1202   1.454   .     S
C1191  O1243   1.289   .     A
C1192  O1244   1.289   .     A
C1192  C1201   1.454   .     S
C1192  O1106   1.294   1_655 S
C1193  C1222   1.417   .     A
C1193  H1233   1.076   .     S
C1193  C1195   1.386   .     A
C1194  H1234   1.076   .     S
C1194  C1221   1.417   .     A
C1194  C1196   1.387   .     A
C1195  H1225   1.084   .     S
C1196  H1226   1.084   .     S
C1196  C590    1.390   1_556 S
C1197  H1235   1.084   .     S
C1197  C1062   1.400   1_655 S
C1198  H1236   1.084   .     S
C1198  C780    1.389   1_565 S
C1199  C1201   1.410   .     A
C1199  O1251   1.384   .     S
C1199  C777    1.389   1_565 S
C1200  C1202   1.410   .     A
C1200  O1256   1.384   .     S
C1201  C1058   1.400   1_655 S
C1203  N1242   1.367   .     A
C1203  C1205   1.416   .     A
C1203  H1237   1.081   .     S
C1204  C1206   1.416   .     A
C1204  N1241   1.367   .     A
C1204  H1238   1.081   .     S
C1205  N1241   1.366   .     A
C1205  H1239   1.082   .     S
C1206  N1242   1.366   .     A
C1206  H1240   1.082   .     S
C1207  O1249   1.294   .     A
C1207  C1209   1.467   .     S
C1207  O1107   1.296   1_655 S
C1208  C1210   1.466   .     S
C1208  O1250   1.293   .     A
C1209  C1213   1.399   .     A
C1209  C1215   1.399   .     A
C1210  C1214   1.399   .     A
C1210  C1216   1.398   .     A
C1211  C1213   1.391   .     A
C1211  C1219   1.404   .     A
C1211  H1091   1.083   1_655 S
C1212  H1232   1.084   .     S
C1212  C1214   1.392   .     A
C1212  C1220   1.404   .     A
C1213  H1090   1.083   1_655 S
C1215  H1228   1.075   .     S
C1215  C1217   1.405   .     A
C1216  H1227   1.075   .     S
C1216  C1218   1.405   .     A
C1217  C1219   1.418   .     A
C1217  C1221   1.427   .     A
C1218  C1220   1.418   .     A
C1218  C1222   1.426   .     A
C1219  C565    1.390   1_556 S
C1221  C592    1.424   1_556 S
Cu1223 N1241   2.011   .     S
Cu1223 O1247   1.958   .     S
Cu1223 O1246   1.968   .     S
Cu1223 O1250   1.944   .     S
Cu1223 O1243   1.973   .     S
Cu1224 N1242   2.011   .     S
Cu1224 O1245   1.968   .     S
Cu1224 O1249   1.944   .     S
Cu1224 O1244   1.973   .     S
Cu1224 O1248   1.958   .     S
Cu1224 Cu1083  2.676   1_655 S
H1229  C1074   1.083   1_655 S
O1245  C1051   1.294   1_655 S
O1248  C1068   1.296   1_655 S
O1251  C1252   1.411   .     S
C1252  H1253   1.112   .     S
C1252  H1254   1.109   .     S
C1252  H1255   1.114   .     S
O1256  C1257   1.411   .     S
C1257  H1260   1.114   .     S
C1257  H1259   1.112   .     S
C1257  H1258   1.109   .     S
