data_str_m2_o2_o5_pcu_sym.41
_audit_creation_date              2020-01-03
_audit_creation_method            'Materials Studio'
_symmetry_space_group_name_H-M    'P1'
_symmetry_Int_Tables_number       1
_symmetry_cell_setting            triclinic
loop_
_symmetry_equiv_pos_as_xyz
  x,y,z
_cell_length_a                    30.4557
_cell_length_b                    27.9059
_cell_length_c                    27.1507
_cell_angle_alpha                 90.1445
_cell_angle_beta                  92.7718
_cell_angle_gamma                 90.7419
loop_
_atom_site_label
_atom_site_type_symbol
_atom_site_fract_x
_atom_site_fract_y
_atom_site_fract_z
_atom_site_U_iso_or_equiv
_atom_site_adp_type
_atom_site_occupancy
C1     C     0.16507   0.24959   0.16928   0.00000  Uiso   1.00
C2     C     0.27953   0.44641   0.19773   0.00000  Uiso   1.00
C3     C     0.24992   0.24997   0.07358   0.00000  Uiso   1.00
C4     C     0.25013   0.25005   0.25975   0.00000  Uiso   1.00
C5     C     0.24998   0.02703   0.16719   0.00000  Uiso   1.00
C6     C     0.24986   0.47257   0.16729   0.00000  Uiso   1.00
C7     C     0.25001   0.24999   0.02187   0.00000  Uiso   1.00
C8     C     0.25008   0.25009   0.31147   0.00000  Uiso   1.00
C9     C     0.04885   0.29173   0.18729   0.00000  Uiso   1.00
C10    C     0.45241   0.21023   0.17161   0.00000  Uiso   1.00
C11    C     0.45246   0.29474   0.15291   0.00000  Uiso   1.00
C12    C     0.33478   0.25021   0.16285   0.00000  Uiso   1.00
C13    C     0.04572   0.21247   0.15164   0.00000  Uiso   1.00
C14    C     0.09487   0.29019   0.19065   0.00000  Uiso   1.00
C15    C     0.40709   0.20752   0.16320   0.00000  Uiso   1.00
C16    C     0.40644   0.29403   0.14827   0.00000  Uiso   1.00
C17    C     0.09102   0.20813   0.15809   0.00000  Uiso   1.00
C18    C     0.11671   0.24881   0.17371   0.00000  Uiso   1.00
C19    C     0.38304   0.25055   0.15707   0.00000  Uiso   1.00
C20    C     0.02413   0.25316   0.16735   0.00000  Uiso   1.00
C21    C     0.47559   0.25326   0.16549   0.00000  Uiso   1.00
C22    C     0.11882   0.33077   0.21577   0.00000  Uiso   1.00
C23    C     0.27171   0.10451   0.20406   0.00000  Uiso   1.00
C24    C     0.14674   0.32255   0.25762   0.00000  Uiso   1.00
C25    C     0.17051   0.36048   0.28021   0.00000  Uiso   1.00
C26    C     0.16612   0.40695   0.26173   0.00000  Uiso   1.00
C27    C     0.13771   0.41559   0.22085   0.00000  Uiso   1.00
C28    C     0.11405   0.37772   0.19793   0.00000  Uiso   1.00
C29    C     0.38770   0.15899   0.15352   0.00000  Uiso   1.00
C30    C     0.39538   0.12123   0.18691   0.00000  Uiso   1.00
C31    C     0.37924   0.07510   0.17576   0.00000  Uiso   1.00
C32    C     0.35549   0.06629   0.13126   0.00000  Uiso   1.00
C33    C     0.34815   0.10338   0.09759   0.00000  Uiso   1.00
C34    C     0.22114   0.39532   0.13605   0.00000  Uiso   1.00
C35    C     0.36461   0.14939   0.10831   0.00000  Uiso   1.00
C36    C     0.38456   0.33794   0.12911   0.00000  Uiso   1.00
C37    C     0.35640   0.33576   0.08648   0.00000  Uiso   1.00
C38    C     0.33577   0.37707   0.06850   0.00000  Uiso   1.00
C39    C     0.34375   0.42102   0.09224   0.00000  Uiso   1.00
C40    C     0.37253   0.42374   0.13389   0.00000  Uiso   1.00
C41    C     0.39294   0.38245   0.15225   0.00000  Uiso   1.00
C42    C     0.10794   0.15859   0.15423   0.00000  Uiso   1.00
C43    C     0.09714   0.13054   0.11211   0.00000  Uiso   1.00
C44    C     0.10610   0.08151   0.11186   0.00000  Uiso   1.00
C45    C     0.22913   0.10335   0.12899   0.00000  Uiso   1.00
C46    C     0.12602   0.06005   0.15349   0.00000  Uiso   1.00
C47    C     0.13695   0.08752   0.19550   0.00000  Uiso   1.00
C48    C     0.12748   0.13641   0.19617   0.00000  Uiso   1.00
C49    C     0.27859   0.39604   0.19781   0.00000  Uiso   1.00
C50    C     0.27043   0.05414   0.20570   0.00000  Uiso   1.00
C51    C     0.22007   0.44562   0.13678   0.00000  Uiso   1.00
C52    C     0.23016   0.05304   0.12809   0.00000  Uiso   1.00
Cl53   Cl    0.30473   0.13307   0.25048   0.00000  Uiso   1.00
Cl54   Cl    0.18404   0.36580   0.09436   0.00000  Uiso   1.00
Cl55   Cl    0.19930   0.13021   0.07976   0.00000  Uiso   1.00
Cl56   Cl    0.31536   0.36731   0.23951   0.00000  Uiso   1.00
Cu57   Cu    0.25000   0.29821   0.16667   0.00000  Uiso   1.00
Cu58   Cu    0.25000   0.20178   0.16667   0.00000  Uiso   1.00
H59    H     0.03230   0.32254   0.20170   0.00000  Uiso   1.00
H60    H     0.19248   0.35380   0.31191   0.00000  Uiso   1.00
H61    H     0.18470   0.43625   0.27910   0.00000  Uiso   1.00
H62    H     0.13430   0.45160   0.20669   0.00000  Uiso   1.00
H63    H     0.09264   0.38484   0.16584   0.00000  Uiso   1.00
H64    H     0.41359   0.12756   0.22161   0.00000  Uiso   1.00
H65    H     0.38482   0.04626   0.20180   0.00000  Uiso   1.00
H66    H     0.34247   0.03082   0.12296   0.00000  Uiso   1.00
H67    H     0.32983   0.09645   0.06309   0.00000  Uiso   1.00
H68    H     0.35929   0.17762   0.08145   0.00000  Uiso   1.00
H69    H     0.35015   0.30198   0.06750   0.00000  Uiso   1.00
H70    H     0.46984   0.17756   0.18040   0.00000  Uiso   1.00
H71    H     0.31362   0.37501   0.03614   0.00000  Uiso   1.00
H72    H     0.32763   0.45291   0.07834   0.00000  Uiso   1.00
H73    H     0.37879   0.45773   0.15230   0.00000  Uiso   1.00
H74    H     0.41478   0.38504   0.18486   0.00000  Uiso   1.00
H75    H     0.08104   0.14648   0.07982   0.00000  Uiso   1.00
H76    H     0.09764   0.06017   0.07936   0.00000  Uiso   1.00
H77    H     0.13321   0.02221   0.15304   0.00000  Uiso   1.00
H78    H     0.15227   0.07078   0.22777   0.00000  Uiso   1.00
H79    H     0.13449   0.15680   0.22970   0.00000  Uiso   1.00
H80    H     0.47034   0.32736   0.14469   0.00000  Uiso   1.00
H81    H     0.02695   0.18243   0.13605   0.00000  Uiso   1.00
H82    H     0.28632   0.03692   0.23721   0.00000  Uiso   1.00
H83    H     0.19530   0.46289   0.11350   0.00000  Uiso   1.00
H84    H     0.21499   0.03495   0.09632   0.00000  Uiso   1.00
H85    H     0.30414   0.46432   0.22135   0.00000  Uiso   1.00
H86    H     0.15052   0.28669   0.27226   0.00000  Uiso   1.00
N87    N     0.25000   0.12934   0.16667   0.00000  Uiso   1.00
N88    N     0.25000   0.37065   0.16667   0.00000  Uiso   1.00
O89    O     0.18573   0.29071   0.16667   0.00000  Uiso   1.00
O90    O     0.31427   0.20928   0.16666   0.00000  Uiso   1.00
O91    O     0.31427   0.29071   0.16666   0.00000  Uiso   1.00
O92    O     0.18573   0.20928   0.16667   0.00000  Uiso   1.00
O93    O     0.25000   0.29071   0.09613   0.00000  Uiso   1.00
O94    O     0.25000   0.20929   0.23720   0.00000  Uiso   1.00
O95    O     0.25000   0.29071   0.23720   0.00000  Uiso   1.00
O96    O     0.25000   0.20929   0.09613   0.00000  Uiso   1.00
C97    C     0.66507   0.24959   0.16928   0.00000  Uiso   1.00
C98    C     0.77953   0.44641   0.19773   0.00000  Uiso   1.00
C99    C     0.74992   0.24997   0.07358   0.00000  Uiso   1.00
C100   C     0.75013   0.25005   0.25975   0.00000  Uiso   1.00
C101   C     0.74998   0.02703   0.16719   0.00000  Uiso   1.00
C102   C     0.74986   0.47257   0.16729   0.00000  Uiso   1.00
C103   C     0.75001   0.24999   0.02187   0.00000  Uiso   1.00
C104   C     0.75008   0.25009   0.31147   0.00000  Uiso   1.00
C105   C     0.54885   0.29173   0.18729   0.00000  Uiso   1.00
C106   C     0.95241   0.21023   0.17161   0.00000  Uiso   1.00
C107   C     0.95246   0.29474   0.15291   0.00000  Uiso   1.00
C108   C     0.83478   0.25021   0.16285   0.00000  Uiso   1.00
C109   C     0.54572   0.21247   0.15164   0.00000  Uiso   1.00
C110   C     0.59487   0.29019   0.19065   0.00000  Uiso   1.00
C111   C     0.90709   0.20752   0.16320   0.00000  Uiso   1.00
C112   C     0.90644   0.29403   0.14827   0.00000  Uiso   1.00
C113   C     0.59102   0.20813   0.15809   0.00000  Uiso   1.00
C114   C     0.61671   0.24881   0.17371   0.00000  Uiso   1.00
C115   C     0.88304   0.25055   0.15707   0.00000  Uiso   1.00
C116   C     0.52413   0.25316   0.16735   0.00000  Uiso   1.00
C117   C     0.97559   0.25326   0.16549   0.00000  Uiso   1.00
C118   C     0.61882   0.33077   0.21577   0.00000  Uiso   1.00
C119   C     0.77171   0.10451   0.20406   0.00000  Uiso   1.00
C120   C     0.64674   0.32255   0.25762   0.00000  Uiso   1.00
C121   C     0.67051   0.36048   0.28021   0.00000  Uiso   1.00
C122   C     0.66612   0.40695   0.26173   0.00000  Uiso   1.00
C123   C     0.63771   0.41559   0.22085   0.00000  Uiso   1.00
C124   C     0.61405   0.37772   0.19793   0.00000  Uiso   1.00
C125   C     0.88770   0.15899   0.15352   0.00000  Uiso   1.00
C126   C     0.89538   0.12123   0.18691   0.00000  Uiso   1.00
C127   C     0.87924   0.07510   0.17576   0.00000  Uiso   1.00
C128   C     0.85549   0.06629   0.13126   0.00000  Uiso   1.00
C129   C     0.84815   0.10338   0.09759   0.00000  Uiso   1.00
C130   C     0.72114   0.39532   0.13605   0.00000  Uiso   1.00
C131   C     0.86461   0.14939   0.10831   0.00000  Uiso   1.00
C132   C     0.88456   0.33794   0.12911   0.00000  Uiso   1.00
C133   C     0.85640   0.33576   0.08648   0.00000  Uiso   1.00
C134   C     0.83577   0.37707   0.06850   0.00000  Uiso   1.00
C135   C     0.84375   0.42102   0.09224   0.00000  Uiso   1.00
C136   C     0.87253   0.42374   0.13389   0.00000  Uiso   1.00
C137   C     0.89294   0.38245   0.15225   0.00000  Uiso   1.00
C138   C     0.60794   0.15859   0.15423   0.00000  Uiso   1.00
C139   C     0.59714   0.13054   0.11211   0.00000  Uiso   1.00
C140   C     0.60610   0.08151   0.11186   0.00000  Uiso   1.00
C141   C     0.72913   0.10335   0.12899   0.00000  Uiso   1.00
C142   C     0.62602   0.06005   0.15349   0.00000  Uiso   1.00
C143   C     0.63695   0.08752   0.19550   0.00000  Uiso   1.00
C144   C     0.62748   0.13641   0.19617   0.00000  Uiso   1.00
C145   C     0.77859   0.39604   0.19781   0.00000  Uiso   1.00
C146   C     0.77043   0.05414   0.20570   0.00000  Uiso   1.00
C147   C     0.72007   0.44562   0.13678   0.00000  Uiso   1.00
C148   C     0.73016   0.05304   0.12809   0.00000  Uiso   1.00
Cl149  Cl    0.80473   0.13307   0.25048   0.00000  Uiso   1.00
Cl150  Cl    0.68404   0.36580   0.09436   0.00000  Uiso   1.00
Cl151  Cl    0.69930   0.13021   0.07976   0.00000  Uiso   1.00
Cl152  Cl    0.81536   0.36731   0.23951   0.00000  Uiso   1.00
Cu153  Cu    0.75000   0.29821   0.16667   0.00000  Uiso   1.00
Cu154  Cu    0.75000   0.20178   0.16667   0.00000  Uiso   1.00
H155   H     0.53230   0.32254   0.20170   0.00000  Uiso   1.00
H156   H     0.69248   0.35380   0.31191   0.00000  Uiso   1.00
H157   H     0.68470   0.43625   0.27910   0.00000  Uiso   1.00
H158   H     0.63430   0.45160   0.20669   0.00000  Uiso   1.00
H159   H     0.59264   0.38484   0.16584   0.00000  Uiso   1.00
H160   H     0.91359   0.12756   0.22161   0.00000  Uiso   1.00
H161   H     0.88482   0.04626   0.20180   0.00000  Uiso   1.00
H162   H     0.84247   0.03082   0.12296   0.00000  Uiso   1.00
H163   H     0.82983   0.09645   0.06309   0.00000  Uiso   1.00
H164   H     0.85929   0.17762   0.08145   0.00000  Uiso   1.00
H165   H     0.85015   0.30198   0.06750   0.00000  Uiso   1.00
H166   H     0.96984   0.17756   0.18040   0.00000  Uiso   1.00
H167   H     0.81362   0.37501   0.03614   0.00000  Uiso   1.00
H168   H     0.82763   0.45291   0.07834   0.00000  Uiso   1.00
H169   H     0.87879   0.45773   0.15230   0.00000  Uiso   1.00
H170   H     0.91478   0.38504   0.18486   0.00000  Uiso   1.00
H171   H     0.58104   0.14648   0.07982   0.00000  Uiso   1.00
H172   H     0.59764   0.06017   0.07936   0.00000  Uiso   1.00
H173   H     0.63321   0.02221   0.15304   0.00000  Uiso   1.00
H174   H     0.65227   0.07078   0.22777   0.00000  Uiso   1.00
H175   H     0.63449   0.15680   0.22970   0.00000  Uiso   1.00
H176   H     0.97034   0.32736   0.14469   0.00000  Uiso   1.00
H177   H     0.52695   0.18243   0.13605   0.00000  Uiso   1.00
H178   H     0.78632   0.03692   0.23721   0.00000  Uiso   1.00
H179   H     0.69530   0.46289   0.11350   0.00000  Uiso   1.00
H180   H     0.71499   0.03495   0.09632   0.00000  Uiso   1.00
H181   H     0.80414   0.46432   0.22135   0.00000  Uiso   1.00
H182   H     0.65052   0.28669   0.27226   0.00000  Uiso   1.00
N183   N     0.75000   0.12934   0.16667   0.00000  Uiso   1.00
N184   N     0.75000   0.37065   0.16667   0.00000  Uiso   1.00
O185   O     0.68573   0.29071   0.16667   0.00000  Uiso   1.00
O186   O     0.81427   0.20928   0.16666   0.00000  Uiso   1.00
O187   O     0.81427   0.29071   0.16666   0.00000  Uiso   1.00
O188   O     0.68573   0.20928   0.16667   0.00000  Uiso   1.00
O189   O     0.75000   0.29071   0.09613   0.00000  Uiso   1.00
O190   O     0.75000   0.20929   0.23720   0.00000  Uiso   1.00
O191   O     0.75000   0.29071   0.23720   0.00000  Uiso   1.00
O192   O     0.75000   0.20929   0.09613   0.00000  Uiso   1.00
C193   C     0.16507   0.74959   0.16928   0.00000  Uiso   1.00
C194   C     0.27953   0.94641   0.19773   0.00000  Uiso   1.00
C195   C     0.24992   0.74997   0.07358   0.00000  Uiso   1.00
C196   C     0.25013   0.75005   0.25975   0.00000  Uiso   1.00
C197   C     0.24998   0.52703   0.16719   0.00000  Uiso   1.00
C198   C     0.24986   0.97257   0.16729   0.00000  Uiso   1.00
C199   C     0.25001   0.74999   0.02187   0.00000  Uiso   1.00
C200   C     0.25008   0.75009   0.31147   0.00000  Uiso   1.00
C201   C     0.04885   0.79173   0.18729   0.00000  Uiso   1.00
C202   C     0.45241   0.71023   0.17161   0.00000  Uiso   1.00
C203   C     0.45246   0.79474   0.15291   0.00000  Uiso   1.00
C204   C     0.33478   0.75021   0.16285   0.00000  Uiso   1.00
C205   C     0.04572   0.71247   0.15164   0.00000  Uiso   1.00
C206   C     0.09487   0.79019   0.19065   0.00000  Uiso   1.00
C207   C     0.40709   0.70752   0.16320   0.00000  Uiso   1.00
C208   C     0.40644   0.79403   0.14827   0.00000  Uiso   1.00
C209   C     0.09102   0.70813   0.15809   0.00000  Uiso   1.00
C210   C     0.11671   0.74881   0.17371   0.00000  Uiso   1.00
C211   C     0.38304   0.75055   0.15707   0.00000  Uiso   1.00
C212   C     0.02413   0.75316   0.16735   0.00000  Uiso   1.00
C213   C     0.47559   0.75326   0.16549   0.00000  Uiso   1.00
C214   C     0.11882   0.83077   0.21577   0.00000  Uiso   1.00
C215   C     0.27171   0.60451   0.20406   0.00000  Uiso   1.00
C216   C     0.14674   0.82255   0.25762   0.00000  Uiso   1.00
C217   C     0.17051   0.86048   0.28021   0.00000  Uiso   1.00
C218   C     0.16612   0.90695   0.26173   0.00000  Uiso   1.00
C219   C     0.13771   0.91559   0.22085   0.00000  Uiso   1.00
C220   C     0.11405   0.87772   0.19793   0.00000  Uiso   1.00
C221   C     0.38770   0.65899   0.15352   0.00000  Uiso   1.00
C222   C     0.39538   0.62123   0.18691   0.00000  Uiso   1.00
C223   C     0.37924   0.57510   0.17576   0.00000  Uiso   1.00
C224   C     0.35549   0.56629   0.13126   0.00000  Uiso   1.00
C225   C     0.34815   0.60338   0.09759   0.00000  Uiso   1.00
C226   C     0.22114   0.89532   0.13605   0.00000  Uiso   1.00
C227   C     0.36461   0.64939   0.10831   0.00000  Uiso   1.00
C228   C     0.38456   0.83794   0.12911   0.00000  Uiso   1.00
C229   C     0.35640   0.83576   0.08648   0.00000  Uiso   1.00
C230   C     0.33577   0.87707   0.06850   0.00000  Uiso   1.00
C231   C     0.34375   0.92102   0.09224   0.00000  Uiso   1.00
C232   C     0.37253   0.92374   0.13389   0.00000  Uiso   1.00
C233   C     0.39294   0.88245   0.15225   0.00000  Uiso   1.00
C234   C     0.10794   0.65859   0.15423   0.00000  Uiso   1.00
C235   C     0.09714   0.63054   0.11211   0.00000  Uiso   1.00
C236   C     0.10610   0.58151   0.11186   0.00000  Uiso   1.00
C237   C     0.22913   0.60335   0.12899   0.00000  Uiso   1.00
C238   C     0.12602   0.56005   0.15349   0.00000  Uiso   1.00
C239   C     0.13695   0.58752   0.19550   0.00000  Uiso   1.00
C240   C     0.12748   0.63641   0.19617   0.00000  Uiso   1.00
C241   C     0.27859   0.89604   0.19781   0.00000  Uiso   1.00
C242   C     0.27043   0.55414   0.20570   0.00000  Uiso   1.00
C243   C     0.22007   0.94562   0.13678   0.00000  Uiso   1.00
C244   C     0.23016   0.55304   0.12809   0.00000  Uiso   1.00
Cl245  Cl    0.30473   0.63307   0.25048   0.00000  Uiso   1.00
Cl246  Cl    0.18404   0.86580   0.09436   0.00000  Uiso   1.00
Cl247  Cl    0.19930   0.63021   0.07976   0.00000  Uiso   1.00
Cl248  Cl    0.31536   0.86731   0.23951   0.00000  Uiso   1.00
Cu249  Cu    0.25000   0.79821   0.16667   0.00000  Uiso   1.00
Cu250  Cu    0.25000   0.70178   0.16667   0.00000  Uiso   1.00
H251   H     0.03230   0.82254   0.20170   0.00000  Uiso   1.00
H252   H     0.19248   0.85380   0.31191   0.00000  Uiso   1.00
H253   H     0.18470   0.93625   0.27910   0.00000  Uiso   1.00
H254   H     0.13430   0.95160   0.20669   0.00000  Uiso   1.00
H255   H     0.09264   0.88484   0.16584   0.00000  Uiso   1.00
H256   H     0.41359   0.62756   0.22161   0.00000  Uiso   1.00
H257   H     0.38482   0.54626   0.20180   0.00000  Uiso   1.00
H258   H     0.34247   0.53082   0.12296   0.00000  Uiso   1.00
H259   H     0.32983   0.59645   0.06309   0.00000  Uiso   1.00
H260   H     0.35929   0.67762   0.08145   0.00000  Uiso   1.00
H261   H     0.35015   0.80198   0.06750   0.00000  Uiso   1.00
H262   H     0.46984   0.67756   0.18040   0.00000  Uiso   1.00
H263   H     0.31362   0.87501   0.03614   0.00000  Uiso   1.00
H264   H     0.32763   0.95291   0.07834   0.00000  Uiso   1.00
H265   H     0.37879   0.95773   0.15230   0.00000  Uiso   1.00
H266   H     0.41478   0.88504   0.18486   0.00000  Uiso   1.00
H267   H     0.08104   0.64648   0.07982   0.00000  Uiso   1.00
H268   H     0.09764   0.56017   0.07936   0.00000  Uiso   1.00
H269   H     0.13321   0.52221   0.15304   0.00000  Uiso   1.00
H270   H     0.15227   0.57078   0.22777   0.00000  Uiso   1.00
H271   H     0.13449   0.65680   0.22970   0.00000  Uiso   1.00
H272   H     0.47034   0.82736   0.14469   0.00000  Uiso   1.00
H273   H     0.02695   0.68243   0.13605   0.00000  Uiso   1.00
H274   H     0.28632   0.53692   0.23721   0.00000  Uiso   1.00
H275   H     0.19530   0.96289   0.11350   0.00000  Uiso   1.00
H276   H     0.21499   0.53495   0.09632   0.00000  Uiso   1.00
H277   H     0.30414   0.96432   0.22135   0.00000  Uiso   1.00
H278   H     0.15052   0.78669   0.27226   0.00000  Uiso   1.00
N279   N     0.25000   0.62934   0.16667   0.00000  Uiso   1.00
N280   N     0.25000   0.87065   0.16667   0.00000  Uiso   1.00
O281   O     0.18573   0.79071   0.16667   0.00000  Uiso   1.00
O282   O     0.31427   0.70928   0.16666   0.00000  Uiso   1.00
O283   O     0.31427   0.79071   0.16666   0.00000  Uiso   1.00
O284   O     0.18573   0.70928   0.16667   0.00000  Uiso   1.00
O285   O     0.25000   0.79071   0.09613   0.00000  Uiso   1.00
O286   O     0.25000   0.70929   0.23720   0.00000  Uiso   1.00
O287   O     0.25000   0.79071   0.23720   0.00000  Uiso   1.00
O288   O     0.25000   0.70929   0.09613   0.00000  Uiso   1.00
C289   C     0.66507   0.74959   0.16928   0.00000  Uiso   1.00
C290   C     0.77953   0.94641   0.19773   0.00000  Uiso   1.00
C291   C     0.74992   0.74997   0.07358   0.00000  Uiso   1.00
C292   C     0.75013   0.75005   0.25975   0.00000  Uiso   1.00
C293   C     0.74998   0.52703   0.16719   0.00000  Uiso   1.00
C294   C     0.74986   0.97257   0.16729   0.00000  Uiso   1.00
C295   C     0.75001   0.74999   0.02187   0.00000  Uiso   1.00
C296   C     0.75008   0.75009   0.31147   0.00000  Uiso   1.00
C297   C     0.54885   0.79173   0.18729   0.00000  Uiso   1.00
C298   C     0.95241   0.71023   0.17161   0.00000  Uiso   1.00
C299   C     0.95246   0.79474   0.15291   0.00000  Uiso   1.00
C300   C     0.83478   0.75021   0.16285   0.00000  Uiso   1.00
C301   C     0.54572   0.71247   0.15164   0.00000  Uiso   1.00
C302   C     0.59487   0.79019   0.19065   0.00000  Uiso   1.00
C303   C     0.90709   0.70752   0.16320   0.00000  Uiso   1.00
C304   C     0.90644   0.79403   0.14827   0.00000  Uiso   1.00
C305   C     0.59102   0.70813   0.15809   0.00000  Uiso   1.00
C306   C     0.61671   0.74881   0.17371   0.00000  Uiso   1.00
C307   C     0.88304   0.75055   0.15707   0.00000  Uiso   1.00
C308   C     0.52413   0.75316   0.16735   0.00000  Uiso   1.00
C309   C     0.97559   0.75326   0.16549   0.00000  Uiso   1.00
C310   C     0.61882   0.83077   0.21577   0.00000  Uiso   1.00
C311   C     0.77171   0.60451   0.20406   0.00000  Uiso   1.00
C312   C     0.64674   0.82255   0.25762   0.00000  Uiso   1.00
C313   C     0.67051   0.86048   0.28021   0.00000  Uiso   1.00
C314   C     0.66612   0.90695   0.26173   0.00000  Uiso   1.00
C315   C     0.63771   0.91559   0.22085   0.00000  Uiso   1.00
C316   C     0.61405   0.87772   0.19793   0.00000  Uiso   1.00
C317   C     0.88770   0.65899   0.15352   0.00000  Uiso   1.00
C318   C     0.89538   0.62123   0.18691   0.00000  Uiso   1.00
C319   C     0.87924   0.57510   0.17576   0.00000  Uiso   1.00
C320   C     0.85549   0.56629   0.13126   0.00000  Uiso   1.00
C321   C     0.84815   0.60338   0.09759   0.00000  Uiso   1.00
C322   C     0.72114   0.89532   0.13605   0.00000  Uiso   1.00
C323   C     0.86461   0.64939   0.10831   0.00000  Uiso   1.00
C324   C     0.88456   0.83794   0.12911   0.00000  Uiso   1.00
C325   C     0.85640   0.83576   0.08648   0.00000  Uiso   1.00
C326   C     0.83577   0.87707   0.06850   0.00000  Uiso   1.00
C327   C     0.84375   0.92102   0.09224   0.00000  Uiso   1.00
C328   C     0.87253   0.92374   0.13389   0.00000  Uiso   1.00
C329   C     0.89294   0.88245   0.15225   0.00000  Uiso   1.00
C330   C     0.60794   0.65859   0.15423   0.00000  Uiso   1.00
C331   C     0.59714   0.63054   0.11211   0.00000  Uiso   1.00
C332   C     0.60610   0.58151   0.11186   0.00000  Uiso   1.00
C333   C     0.72913   0.60335   0.12899   0.00000  Uiso   1.00
C334   C     0.62602   0.56005   0.15349   0.00000  Uiso   1.00
C335   C     0.63695   0.58752   0.19550   0.00000  Uiso   1.00
C336   C     0.62748   0.63641   0.19617   0.00000  Uiso   1.00
C337   C     0.77859   0.89604   0.19781   0.00000  Uiso   1.00
C338   C     0.77043   0.55414   0.20570   0.00000  Uiso   1.00
C339   C     0.72007   0.94562   0.13678   0.00000  Uiso   1.00
C340   C     0.73016   0.55304   0.12809   0.00000  Uiso   1.00
Cl341  Cl    0.80473   0.63307   0.25048   0.00000  Uiso   1.00
Cl342  Cl    0.68404   0.86580   0.09436   0.00000  Uiso   1.00
Cl343  Cl    0.69930   0.63021   0.07976   0.00000  Uiso   1.00
Cl344  Cl    0.81536   0.86731   0.23951   0.00000  Uiso   1.00
Cu345  Cu    0.75000   0.79821   0.16667   0.00000  Uiso   1.00
Cu346  Cu    0.75000   0.70178   0.16667   0.00000  Uiso   1.00
H347   H     0.53230   0.82254   0.20170   0.00000  Uiso   1.00
H348   H     0.69248   0.85380   0.31191   0.00000  Uiso   1.00
H349   H     0.68470   0.93625   0.27910   0.00000  Uiso   1.00
H350   H     0.63430   0.95160   0.20669   0.00000  Uiso   1.00
H351   H     0.59264   0.88484   0.16584   0.00000  Uiso   1.00
H352   H     0.91359   0.62756   0.22161   0.00000  Uiso   1.00
H353   H     0.88482   0.54626   0.20180   0.00000  Uiso   1.00
H354   H     0.84247   0.53082   0.12296   0.00000  Uiso   1.00
H355   H     0.82983   0.59645   0.06309   0.00000  Uiso   1.00
H356   H     0.85929   0.67762   0.08145   0.00000  Uiso   1.00
H357   H     0.85015   0.80198   0.06750   0.00000  Uiso   1.00
H358   H     0.96984   0.67756   0.18040   0.00000  Uiso   1.00
H359   H     0.81362   0.87501   0.03614   0.00000  Uiso   1.00
H360   H     0.82763   0.95291   0.07834   0.00000  Uiso   1.00
H361   H     0.87879   0.95773   0.15230   0.00000  Uiso   1.00
H362   H     0.91478   0.88504   0.18486   0.00000  Uiso   1.00
H363   H     0.58104   0.64648   0.07982   0.00000  Uiso   1.00
H364   H     0.59764   0.56017   0.07936   0.00000  Uiso   1.00
H365   H     0.63321   0.52221   0.15304   0.00000  Uiso   1.00
H366   H     0.65227   0.57078   0.22777   0.00000  Uiso   1.00
H367   H     0.63449   0.65680   0.22970   0.00000  Uiso   1.00
H368   H     0.97034   0.82736   0.14469   0.00000  Uiso   1.00
H369   H     0.52695   0.68243   0.13605   0.00000  Uiso   1.00
H370   H     0.78632   0.53692   0.23721   0.00000  Uiso   1.00
H371   H     0.69530   0.96289   0.11350   0.00000  Uiso   1.00
H372   H     0.71499   0.53495   0.09632   0.00000  Uiso   1.00
H373   H     0.80414   0.96432   0.22135   0.00000  Uiso   1.00
H374   H     0.65052   0.78669   0.27226   0.00000  Uiso   1.00
N375   N     0.75000   0.62934   0.16667   0.00000  Uiso   1.00
N376   N     0.75000   0.87065   0.16667   0.00000  Uiso   1.00
O377   O     0.68573   0.79071   0.16667   0.00000  Uiso   1.00
O378   O     0.81427   0.70928   0.16666   0.00000  Uiso   1.00
O379   O     0.81427   0.79071   0.16666   0.00000  Uiso   1.00
O380   O     0.68573   0.70928   0.16667   0.00000  Uiso   1.00
O381   O     0.75000   0.79071   0.09613   0.00000  Uiso   1.00
O382   O     0.75000   0.70929   0.23720   0.00000  Uiso   1.00
O383   O     0.75000   0.79071   0.23720   0.00000  Uiso   1.00
O384   O     0.75000   0.70929   0.09613   0.00000  Uiso   1.00
C385   C     0.16507   0.24959   0.50262   0.00000  Uiso   1.00
C386   C     0.27953   0.44641   0.53106   0.00000  Uiso   1.00
C387   C     0.24992   0.24997   0.40692   0.00000  Uiso   1.00
C388   C     0.25013   0.25005   0.59308   0.00000  Uiso   1.00
C389   C     0.24998   0.02703   0.50052   0.00000  Uiso   1.00
C390   C     0.24986   0.47257   0.50062   0.00000  Uiso   1.00
C391   C     0.25001   0.24999   0.35521   0.00000  Uiso   1.00
C392   C     0.25008   0.25009   0.64480   0.00000  Uiso   1.00
C393   C     0.04885   0.29173   0.52062   0.00000  Uiso   1.00
C394   C     0.45241   0.21023   0.50495   0.00000  Uiso   1.00
C395   C     0.45246   0.29474   0.48624   0.00000  Uiso   1.00
C396   C     0.33478   0.25021   0.49618   0.00000  Uiso   1.00
C397   C     0.04572   0.21247   0.48497   0.00000  Uiso   1.00
C398   C     0.09487   0.29019   0.52398   0.00000  Uiso   1.00
C399   C     0.40709   0.20752   0.49653   0.00000  Uiso   1.00
C400   C     0.40644   0.29403   0.48160   0.00000  Uiso   1.00
C401   C     0.09102   0.20813   0.49142   0.00000  Uiso   1.00
C402   C     0.11671   0.24881   0.50704   0.00000  Uiso   1.00
C403   C     0.38304   0.25055   0.49041   0.00000  Uiso   1.00
C404   C     0.02413   0.25316   0.50069   0.00000  Uiso   1.00
C405   C     0.47559   0.25326   0.49882   0.00000  Uiso   1.00
C406   C     0.11882   0.33077   0.54910   0.00000  Uiso   1.00
C407   C     0.27171   0.10451   0.53739   0.00000  Uiso   1.00
C408   C     0.14674   0.32255   0.59095   0.00000  Uiso   1.00
C409   C     0.17051   0.36048   0.61354   0.00000  Uiso   1.00
C410   C     0.16612   0.40695   0.59506   0.00000  Uiso   1.00
C411   C     0.13771   0.41559   0.55418   0.00000  Uiso   1.00
C412   C     0.11405   0.37772   0.53126   0.00000  Uiso   1.00
C413   C     0.38770   0.15899   0.48685   0.00000  Uiso   1.00
C414   C     0.39538   0.12123   0.52024   0.00000  Uiso   1.00
C415   C     0.37924   0.07510   0.50909   0.00000  Uiso   1.00
C416   C     0.35549   0.06629   0.46459   0.00000  Uiso   1.00
C417   C     0.34815   0.10338   0.43093   0.00000  Uiso   1.00
C418   C     0.22114   0.39532   0.46939   0.00000  Uiso   1.00
C419   C     0.36461   0.14939   0.44164   0.00000  Uiso   1.00
C420   C     0.38456   0.33794   0.46245   0.00000  Uiso   1.00
C421   C     0.35640   0.33576   0.41982   0.00000  Uiso   1.00
C422   C     0.33577   0.37707   0.40184   0.00000  Uiso   1.00
C423   C     0.34375   0.42102   0.42558   0.00000  Uiso   1.00
C424   C     0.37253   0.42374   0.46722   0.00000  Uiso   1.00
C425   C     0.39294   0.38245   0.48559   0.00000  Uiso   1.00
C426   C     0.10794   0.15859   0.48757   0.00000  Uiso   1.00
C427   C     0.09714   0.13054   0.44544   0.00000  Uiso   1.00
C428   C     0.10610   0.08151   0.44520   0.00000  Uiso   1.00
C429   C     0.22913   0.10335   0.46232   0.00000  Uiso   1.00
C430   C     0.12602   0.06005   0.48682   0.00000  Uiso   1.00
C431   C     0.13695   0.08752   0.52884   0.00000  Uiso   1.00
C432   C     0.12748   0.13641   0.52950   0.00000  Uiso   1.00
C433   C     0.27859   0.39604   0.53114   0.00000  Uiso   1.00
C434   C     0.27043   0.05414   0.53903   0.00000  Uiso   1.00
C435   C     0.22007   0.44562   0.47011   0.00000  Uiso   1.00
C436   C     0.23016   0.05304   0.46142   0.00000  Uiso   1.00
Cl437  Cl    0.30473   0.13307   0.58381   0.00000  Uiso   1.00
Cl438  Cl    0.18404   0.36580   0.42770   0.00000  Uiso   1.00
Cl439  Cl    0.19930   0.13021   0.41309   0.00000  Uiso   1.00
Cl440  Cl    0.31536   0.36731   0.57284   0.00000  Uiso   1.00
Cu441  Cu    0.25000   0.29821   0.50000   0.00000  Uiso   1.00
Cu442  Cu    0.25000   0.20178   0.50000   0.00000  Uiso   1.00
H443   H     0.03230   0.32254   0.53503   0.00000  Uiso   1.00
H444   H     0.19248   0.35380   0.64524   0.00000  Uiso   1.00
H445   H     0.18470   0.43625   0.61243   0.00000  Uiso   1.00
H446   H     0.13430   0.45160   0.54002   0.00000  Uiso   1.00
H447   H     0.09264   0.38484   0.49917   0.00000  Uiso   1.00
H448   H     0.41359   0.12756   0.55495   0.00000  Uiso   1.00
H449   H     0.38482   0.04626   0.53514   0.00000  Uiso   1.00
H450   H     0.34247   0.03082   0.45630   0.00000  Uiso   1.00
H451   H     0.32983   0.09645   0.39643   0.00000  Uiso   1.00
H452   H     0.35929   0.17762   0.41478   0.00000  Uiso   1.00
H453   H     0.35015   0.30198   0.40083   0.00000  Uiso   1.00
H454   H     0.46984   0.17756   0.51374   0.00000  Uiso   1.00
H455   H     0.31362   0.37501   0.36947   0.00000  Uiso   1.00
H456   H     0.32763   0.45291   0.41168   0.00000  Uiso   1.00
H457   H     0.37879   0.45773   0.48563   0.00000  Uiso   1.00
H458   H     0.41478   0.38504   0.51819   0.00000  Uiso   1.00
H459   H     0.08104   0.14648   0.41315   0.00000  Uiso   1.00
H460   H     0.09764   0.06017   0.41270   0.00000  Uiso   1.00
H461   H     0.13321   0.02221   0.48637   0.00000  Uiso   1.00
H462   H     0.15227   0.07078   0.56111   0.00000  Uiso   1.00
H463   H     0.13449   0.15680   0.56303   0.00000  Uiso   1.00
H464   H     0.47034   0.32736   0.47802   0.00000  Uiso   1.00
H465   H     0.02695   0.18243   0.46938   0.00000  Uiso   1.00
H466   H     0.28632   0.03692   0.57054   0.00000  Uiso   1.00
H467   H     0.19530   0.46289   0.44683   0.00000  Uiso   1.00
H468   H     0.21499   0.03495   0.42966   0.00000  Uiso   1.00
H469   H     0.30414   0.46432   0.55468   0.00000  Uiso   1.00
H470   H     0.15052   0.28669   0.60559   0.00000  Uiso   1.00
N471   N     0.25000   0.12934   0.50000   0.00000  Uiso   1.00
N472   N     0.25000   0.37065   0.50000   0.00000  Uiso   1.00
O473   O     0.18573   0.29071   0.50000   0.00000  Uiso   1.00
O474   O     0.31427   0.20928   0.50000   0.00000  Uiso   1.00
O475   O     0.31427   0.29071   0.50000   0.00000  Uiso   1.00
O476   O     0.18573   0.20928   0.50000   0.00000  Uiso   1.00
O477   O     0.25000   0.29071   0.42946   0.00000  Uiso   1.00
O478   O     0.25000   0.20929   0.57054   0.00000  Uiso   1.00
O479   O     0.25000   0.29071   0.57054   0.00000  Uiso   1.00
O480   O     0.25000   0.20929   0.42946   0.00000  Uiso   1.00
C481   C     0.66507   0.24959   0.50262   0.00000  Uiso   1.00
C482   C     0.77953   0.44641   0.53106   0.00000  Uiso   1.00
C483   C     0.74992   0.24997   0.40692   0.00000  Uiso   1.00
C484   C     0.75013   0.25005   0.59308   0.00000  Uiso   1.00
C485   C     0.74998   0.02703   0.50052   0.00000  Uiso   1.00
C486   C     0.74986   0.47257   0.50062   0.00000  Uiso   1.00
C487   C     0.75001   0.24999   0.35521   0.00000  Uiso   1.00
C488   C     0.75008   0.25009   0.64480   0.00000  Uiso   1.00
C489   C     0.54885   0.29173   0.52062   0.00000  Uiso   1.00
C490   C     0.95241   0.21023   0.50495   0.00000  Uiso   1.00
C491   C     0.95246   0.29474   0.48624   0.00000  Uiso   1.00
C492   C     0.83478   0.25021   0.49618   0.00000  Uiso   1.00
C493   C     0.54572   0.21247   0.48497   0.00000  Uiso   1.00
C494   C     0.59487   0.29019   0.52398   0.00000  Uiso   1.00
C495   C     0.90709   0.20752   0.49653   0.00000  Uiso   1.00
C496   C     0.90644   0.29403   0.48160   0.00000  Uiso   1.00
C497   C     0.59102   0.20813   0.49142   0.00000  Uiso   1.00
C498   C     0.61671   0.24881   0.50704   0.00000  Uiso   1.00
C499   C     0.88304   0.25055   0.49041   0.00000  Uiso   1.00
C500   C     0.52413   0.25316   0.50069   0.00000  Uiso   1.00
C501   C     0.97559   0.25326   0.49882   0.00000  Uiso   1.00
C502   C     0.61882   0.33077   0.54910   0.00000  Uiso   1.00
C503   C     0.77171   0.10451   0.53739   0.00000  Uiso   1.00
C504   C     0.64674   0.32255   0.59095   0.00000  Uiso   1.00
C505   C     0.67051   0.36048   0.61354   0.00000  Uiso   1.00
C506   C     0.66612   0.40695   0.59506   0.00000  Uiso   1.00
C507   C     0.63771   0.41559   0.55418   0.00000  Uiso   1.00
C508   C     0.61405   0.37772   0.53126   0.00000  Uiso   1.00
C509   C     0.88770   0.15899   0.48685   0.00000  Uiso   1.00
C510   C     0.89538   0.12123   0.52024   0.00000  Uiso   1.00
C511   C     0.87924   0.07510   0.50909   0.00000  Uiso   1.00
C512   C     0.85549   0.06629   0.46459   0.00000  Uiso   1.00
C513   C     0.84815   0.10338   0.43093   0.00000  Uiso   1.00
C514   C     0.72114   0.39532   0.46939   0.00000  Uiso   1.00
C515   C     0.86461   0.14939   0.44164   0.00000  Uiso   1.00
C516   C     0.88456   0.33794   0.46245   0.00000  Uiso   1.00
C517   C     0.85640   0.33576   0.41982   0.00000  Uiso   1.00
C518   C     0.83577   0.37707   0.40184   0.00000  Uiso   1.00
C519   C     0.84375   0.42102   0.42558   0.00000  Uiso   1.00
C520   C     0.87253   0.42374   0.46722   0.00000  Uiso   1.00
C521   C     0.89294   0.38245   0.48559   0.00000  Uiso   1.00
C522   C     0.60794   0.15859   0.48757   0.00000  Uiso   1.00
C523   C     0.59714   0.13054   0.44544   0.00000  Uiso   1.00
C524   C     0.60610   0.08151   0.44520   0.00000  Uiso   1.00
C525   C     0.72913   0.10335   0.46232   0.00000  Uiso   1.00
C526   C     0.62602   0.06005   0.48682   0.00000  Uiso   1.00
C527   C     0.63695   0.08752   0.52884   0.00000  Uiso   1.00
C528   C     0.62748   0.13641   0.52950   0.00000  Uiso   1.00
C529   C     0.77859   0.39604   0.53114   0.00000  Uiso   1.00
C530   C     0.77043   0.05414   0.53903   0.00000  Uiso   1.00
C531   C     0.72007   0.44562   0.47011   0.00000  Uiso   1.00
C532   C     0.73016   0.05304   0.46142   0.00000  Uiso   1.00
Cl533  Cl    0.80473   0.13307   0.58381   0.00000  Uiso   1.00
Cl534  Cl    0.68404   0.36580   0.42770   0.00000  Uiso   1.00
Cl535  Cl    0.69930   0.13021   0.41309   0.00000  Uiso   1.00
Cl536  Cl    0.81536   0.36731   0.57284   0.00000  Uiso   1.00
Cu537  Cu    0.75000   0.29821   0.50000   0.00000  Uiso   1.00
Cu538  Cu    0.75000   0.20178   0.50000   0.00000  Uiso   1.00
H539   H     0.53230   0.32254   0.53503   0.00000  Uiso   1.00
H540   H     0.69248   0.35380   0.64524   0.00000  Uiso   1.00
H541   H     0.68470   0.43625   0.61243   0.00000  Uiso   1.00
H542   H     0.63430   0.45160   0.54002   0.00000  Uiso   1.00
H543   H     0.59264   0.38484   0.49917   0.00000  Uiso   1.00
H544   H     0.91359   0.12756   0.55495   0.00000  Uiso   1.00
H545   H     0.88482   0.04626   0.53514   0.00000  Uiso   1.00
H546   H     0.84247   0.03082   0.45630   0.00000  Uiso   1.00
H547   H     0.82983   0.09645   0.39643   0.00000  Uiso   1.00
H548   H     0.85929   0.17762   0.41478   0.00000  Uiso   1.00
H549   H     0.85015   0.30198   0.40083   0.00000  Uiso   1.00
H550   H     0.96984   0.17756   0.51374   0.00000  Uiso   1.00
H551   H     0.81362   0.37501   0.36947   0.00000  Uiso   1.00
H552   H     0.82763   0.45291   0.41168   0.00000  Uiso   1.00
H553   H     0.87879   0.45773   0.48563   0.00000  Uiso   1.00
H554   H     0.91478   0.38504   0.51819   0.00000  Uiso   1.00
H555   H     0.58104   0.14648   0.41315   0.00000  Uiso   1.00
H556   H     0.59764   0.06017   0.41270   0.00000  Uiso   1.00
H557   H     0.63321   0.02221   0.48637   0.00000  Uiso   1.00
H558   H     0.65227   0.07078   0.56111   0.00000  Uiso   1.00
H559   H     0.63449   0.15680   0.56303   0.00000  Uiso   1.00
H560   H     0.97034   0.32736   0.47802   0.00000  Uiso   1.00
H561   H     0.52695   0.18243   0.46938   0.00000  Uiso   1.00
H562   H     0.78632   0.03692   0.57054   0.00000  Uiso   1.00
H563   H     0.69530   0.46289   0.44683   0.00000  Uiso   1.00
H564   H     0.71499   0.03495   0.42966   0.00000  Uiso   1.00
H565   H     0.80414   0.46432   0.55468   0.00000  Uiso   1.00
H566   H     0.65052   0.28669   0.60559   0.00000  Uiso   1.00
N567   N     0.75000   0.12934   0.50000   0.00000  Uiso   1.00
N568   N     0.75000   0.37065   0.50000   0.00000  Uiso   1.00
O569   O     0.68573   0.29071   0.50000   0.00000  Uiso   1.00
O570   O     0.81427   0.20928   0.50000   0.00000  Uiso   1.00
O571   O     0.81427   0.29071   0.50000   0.00000  Uiso   1.00
O572   O     0.68573   0.20928   0.50000   0.00000  Uiso   1.00
O573   O     0.75000   0.29071   0.42946   0.00000  Uiso   1.00
O574   O     0.75000   0.20929   0.57054   0.00000  Uiso   1.00
O575   O     0.75000   0.29071   0.57054   0.00000  Uiso   1.00
O576   O     0.75000   0.20929   0.42946   0.00000  Uiso   1.00
C577   C     0.16507   0.74959   0.50262   0.00000  Uiso   1.00
C578   C     0.27953   0.94641   0.53106   0.00000  Uiso   1.00
C579   C     0.24992   0.74997   0.40692   0.00000  Uiso   1.00
C580   C     0.25013   0.75005   0.59308   0.00000  Uiso   1.00
C581   C     0.24998   0.52703   0.50052   0.00000  Uiso   1.00
C582   C     0.24986   0.97257   0.50062   0.00000  Uiso   1.00
C583   C     0.25001   0.74999   0.35521   0.00000  Uiso   1.00
C584   C     0.25008   0.75009   0.64480   0.00000  Uiso   1.00
C585   C     0.04885   0.79173   0.52062   0.00000  Uiso   1.00
C586   C     0.45241   0.71023   0.50495   0.00000  Uiso   1.00
C587   C     0.45246   0.79474   0.48624   0.00000  Uiso   1.00
C588   C     0.33478   0.75021   0.49618   0.00000  Uiso   1.00
C589   C     0.04572   0.71247   0.48497   0.00000  Uiso   1.00
C590   C     0.09487   0.79019   0.52398   0.00000  Uiso   1.00
C591   C     0.40709   0.70752   0.49653   0.00000  Uiso   1.00
C592   C     0.40644   0.79403   0.48160   0.00000  Uiso   1.00
C593   C     0.09102   0.70813   0.49142   0.00000  Uiso   1.00
C594   C     0.11671   0.74881   0.50704   0.00000  Uiso   1.00
C595   C     0.38304   0.75055   0.49041   0.00000  Uiso   1.00
C596   C     0.02413   0.75316   0.50069   0.00000  Uiso   1.00
C597   C     0.47559   0.75326   0.49882   0.00000  Uiso   1.00
C598   C     0.11882   0.83077   0.54910   0.00000  Uiso   1.00
C599   C     0.27171   0.60451   0.53739   0.00000  Uiso   1.00
C600   C     0.14674   0.82255   0.59095   0.00000  Uiso   1.00
C601   C     0.17051   0.86048   0.61354   0.00000  Uiso   1.00
C602   C     0.16612   0.90695   0.59506   0.00000  Uiso   1.00
C603   C     0.13771   0.91559   0.55418   0.00000  Uiso   1.00
C604   C     0.11405   0.87772   0.53126   0.00000  Uiso   1.00
C605   C     0.38770   0.65899   0.48685   0.00000  Uiso   1.00
C606   C     0.39538   0.62123   0.52024   0.00000  Uiso   1.00
C607   C     0.37924   0.57510   0.50909   0.00000  Uiso   1.00
C608   C     0.35549   0.56629   0.46459   0.00000  Uiso   1.00
C609   C     0.34815   0.60338   0.43093   0.00000  Uiso   1.00
C610   C     0.22114   0.89532   0.46939   0.00000  Uiso   1.00
C611   C     0.36461   0.64939   0.44164   0.00000  Uiso   1.00
C612   C     0.38456   0.83794   0.46245   0.00000  Uiso   1.00
C613   C     0.35640   0.83576   0.41982   0.00000  Uiso   1.00
C614   C     0.33577   0.87707   0.40184   0.00000  Uiso   1.00
C615   C     0.34375   0.92102   0.42558   0.00000  Uiso   1.00
C616   C     0.37253   0.92374   0.46722   0.00000  Uiso   1.00
C617   C     0.39294   0.88245   0.48559   0.00000  Uiso   1.00
C618   C     0.10794   0.65859   0.48757   0.00000  Uiso   1.00
C619   C     0.09714   0.63054   0.44544   0.00000  Uiso   1.00
C620   C     0.10610   0.58151   0.44520   0.00000  Uiso   1.00
C621   C     0.22913   0.60335   0.46232   0.00000  Uiso   1.00
C622   C     0.12602   0.56005   0.48682   0.00000  Uiso   1.00
C623   C     0.13695   0.58752   0.52884   0.00000  Uiso   1.00
C624   C     0.12748   0.63641   0.52950   0.00000  Uiso   1.00
C625   C     0.27859   0.89604   0.53114   0.00000  Uiso   1.00
C626   C     0.27043   0.55414   0.53903   0.00000  Uiso   1.00
C627   C     0.22007   0.94562   0.47011   0.00000  Uiso   1.00
C628   C     0.23016   0.55304   0.46142   0.00000  Uiso   1.00
Cl629  Cl    0.30473   0.63307   0.58381   0.00000  Uiso   1.00
Cl630  Cl    0.18404   0.86580   0.42770   0.00000  Uiso   1.00
Cl631  Cl    0.19930   0.63021   0.41309   0.00000  Uiso   1.00
Cl632  Cl    0.31536   0.86731   0.57284   0.00000  Uiso   1.00
Cu633  Cu    0.25000   0.79821   0.50000   0.00000  Uiso   1.00
Cu634  Cu    0.25000   0.70178   0.50000   0.00000  Uiso   1.00
H635   H     0.03230   0.82254   0.53503   0.00000  Uiso   1.00
H636   H     0.19248   0.85380   0.64524   0.00000  Uiso   1.00
H637   H     0.18470   0.93625   0.61243   0.00000  Uiso   1.00
H638   H     0.13430   0.95160   0.54002   0.00000  Uiso   1.00
H639   H     0.09264   0.88484   0.49917   0.00000  Uiso   1.00
H640   H     0.41359   0.62756   0.55495   0.00000  Uiso   1.00
H641   H     0.38482   0.54626   0.53514   0.00000  Uiso   1.00
H642   H     0.34247   0.53082   0.45630   0.00000  Uiso   1.00
H643   H     0.32983   0.59645   0.39643   0.00000  Uiso   1.00
H644   H     0.35929   0.67762   0.41478   0.00000  Uiso   1.00
H645   H     0.35015   0.80198   0.40083   0.00000  Uiso   1.00
H646   H     0.46984   0.67756   0.51374   0.00000  Uiso   1.00
H647   H     0.31362   0.87501   0.36947   0.00000  Uiso   1.00
H648   H     0.32763   0.95291   0.41168   0.00000  Uiso   1.00
H649   H     0.37879   0.95773   0.48563   0.00000  Uiso   1.00
H650   H     0.41478   0.88504   0.51819   0.00000  Uiso   1.00
H651   H     0.08104   0.64648   0.41315   0.00000  Uiso   1.00
H652   H     0.09764   0.56017   0.41270   0.00000  Uiso   1.00
H653   H     0.13321   0.52221   0.48637   0.00000  Uiso   1.00
H654   H     0.15227   0.57078   0.56111   0.00000  Uiso   1.00
H655   H     0.13449   0.65680   0.56303   0.00000  Uiso   1.00
H656   H     0.47034   0.82736   0.47802   0.00000  Uiso   1.00
H657   H     0.02695   0.68243   0.46938   0.00000  Uiso   1.00
H658   H     0.28632   0.53692   0.57054   0.00000  Uiso   1.00
H659   H     0.19530   0.96289   0.44683   0.00000  Uiso   1.00
H660   H     0.21499   0.53495   0.42966   0.00000  Uiso   1.00
H661   H     0.30414   0.96432   0.55468   0.00000  Uiso   1.00
H662   H     0.15052   0.78669   0.60559   0.00000  Uiso   1.00
N663   N     0.25000   0.62934   0.50000   0.00000  Uiso   1.00
N664   N     0.25000   0.87065   0.50000   0.00000  Uiso   1.00
O665   O     0.18573   0.79071   0.50000   0.00000  Uiso   1.00
O666   O     0.31427   0.70928   0.50000   0.00000  Uiso   1.00
O667   O     0.31427   0.79071   0.50000   0.00000  Uiso   1.00
O668   O     0.18573   0.70928   0.50000   0.00000  Uiso   1.00
O669   O     0.25000   0.79071   0.42946   0.00000  Uiso   1.00
O670   O     0.25000   0.70929   0.57054   0.00000  Uiso   1.00
O671   O     0.25000   0.79071   0.57054   0.00000  Uiso   1.00
O672   O     0.25000   0.70929   0.42946   0.00000  Uiso   1.00
C673   C     0.66507   0.74959   0.50262   0.00000  Uiso   1.00
C674   C     0.77953   0.94641   0.53106   0.00000  Uiso   1.00
C675   C     0.74992   0.74997   0.40692   0.00000  Uiso   1.00
C676   C     0.75013   0.75005   0.59308   0.00000  Uiso   1.00
C677   C     0.74998   0.52703   0.50052   0.00000  Uiso   1.00
C678   C     0.74986   0.97257   0.50062   0.00000  Uiso   1.00
C679   C     0.75001   0.74999   0.35521   0.00000  Uiso   1.00
C680   C     0.75008   0.75009   0.64480   0.00000  Uiso   1.00
C681   C     0.54885   0.79173   0.52062   0.00000  Uiso   1.00
C682   C     0.95241   0.71023   0.50495   0.00000  Uiso   1.00
C683   C     0.95246   0.79474   0.48624   0.00000  Uiso   1.00
C684   C     0.83478   0.75021   0.49618   0.00000  Uiso   1.00
C685   C     0.54572   0.71247   0.48497   0.00000  Uiso   1.00
C686   C     0.59487   0.79019   0.52398   0.00000  Uiso   1.00
C687   C     0.90709   0.70752   0.49653   0.00000  Uiso   1.00
C688   C     0.90644   0.79403   0.48160   0.00000  Uiso   1.00
C689   C     0.59102   0.70813   0.49142   0.00000  Uiso   1.00
C690   C     0.61671   0.74881   0.50704   0.00000  Uiso   1.00
C691   C     0.88304   0.75055   0.49041   0.00000  Uiso   1.00
C692   C     0.52413   0.75316   0.50069   0.00000  Uiso   1.00
C693   C     0.97559   0.75326   0.49882   0.00000  Uiso   1.00
C694   C     0.61882   0.83077   0.54910   0.00000  Uiso   1.00
C695   C     0.77171   0.60451   0.53739   0.00000  Uiso   1.00
C696   C     0.64674   0.82255   0.59095   0.00000  Uiso   1.00
C697   C     0.67051   0.86048   0.61354   0.00000  Uiso   1.00
C698   C     0.66612   0.90695   0.59506   0.00000  Uiso   1.00
C699   C     0.63771   0.91559   0.55418   0.00000  Uiso   1.00
C700   C     0.61405   0.87772   0.53126   0.00000  Uiso   1.00
C701   C     0.88770   0.65899   0.48685   0.00000  Uiso   1.00
C702   C     0.89538   0.62123   0.52024   0.00000  Uiso   1.00
C703   C     0.87924   0.57510   0.50909   0.00000  Uiso   1.00
C704   C     0.85549   0.56629   0.46459   0.00000  Uiso   1.00
C705   C     0.84815   0.60338   0.43093   0.00000  Uiso   1.00
C706   C     0.72114   0.89532   0.46939   0.00000  Uiso   1.00
C707   C     0.86461   0.64939   0.44164   0.00000  Uiso   1.00
C708   C     0.88456   0.83794   0.46245   0.00000  Uiso   1.00
C709   C     0.85640   0.83576   0.41982   0.00000  Uiso   1.00
C710   C     0.83577   0.87707   0.40184   0.00000  Uiso   1.00
C711   C     0.84375   0.92102   0.42558   0.00000  Uiso   1.00
C712   C     0.87253   0.92374   0.46722   0.00000  Uiso   1.00
C713   C     0.89294   0.88245   0.48559   0.00000  Uiso   1.00
C714   C     0.60794   0.65859   0.48757   0.00000  Uiso   1.00
C715   C     0.59714   0.63054   0.44544   0.00000  Uiso   1.00
C716   C     0.60610   0.58151   0.44520   0.00000  Uiso   1.00
C717   C     0.72913   0.60335   0.46232   0.00000  Uiso   1.00
C718   C     0.62602   0.56005   0.48682   0.00000  Uiso   1.00
C719   C     0.63695   0.58752   0.52884   0.00000  Uiso   1.00
C720   C     0.62748   0.63641   0.52950   0.00000  Uiso   1.00
C721   C     0.77859   0.89604   0.53114   0.00000  Uiso   1.00
C722   C     0.77043   0.55414   0.53903   0.00000  Uiso   1.00
C723   C     0.72007   0.94562   0.47011   0.00000  Uiso   1.00
C724   C     0.73016   0.55304   0.46142   0.00000  Uiso   1.00
Cl725  Cl    0.80473   0.63307   0.58381   0.00000  Uiso   1.00
Cl726  Cl    0.68404   0.86580   0.42770   0.00000  Uiso   1.00
Cl727  Cl    0.69930   0.63021   0.41309   0.00000  Uiso   1.00
Cl728  Cl    0.81536   0.86731   0.57284   0.00000  Uiso   1.00
Cu729  Cu    0.75000   0.79821   0.50000   0.00000  Uiso   1.00
Cu730  Cu    0.75000   0.70178   0.50000   0.00000  Uiso   1.00
H731   H     0.53230   0.82254   0.53503   0.00000  Uiso   1.00
H732   H     0.69248   0.85380   0.64524   0.00000  Uiso   1.00
H733   H     0.68470   0.93625   0.61243   0.00000  Uiso   1.00
H734   H     0.63430   0.95160   0.54002   0.00000  Uiso   1.00
H735   H     0.59264   0.88484   0.49917   0.00000  Uiso   1.00
H736   H     0.91359   0.62756   0.55495   0.00000  Uiso   1.00
H737   H     0.88482   0.54626   0.53514   0.00000  Uiso   1.00
H738   H     0.84247   0.53082   0.45630   0.00000  Uiso   1.00
H739   H     0.82983   0.59645   0.39643   0.00000  Uiso   1.00
H740   H     0.85929   0.67762   0.41478   0.00000  Uiso   1.00
H741   H     0.85015   0.80198   0.40083   0.00000  Uiso   1.00
H742   H     0.96984   0.67756   0.51374   0.00000  Uiso   1.00
H743   H     0.81362   0.87501   0.36947   0.00000  Uiso   1.00
H744   H     0.82763   0.95291   0.41168   0.00000  Uiso   1.00
H745   H     0.87879   0.95773   0.48563   0.00000  Uiso   1.00
H746   H     0.91478   0.88504   0.51819   0.00000  Uiso   1.00
H747   H     0.58104   0.64648   0.41315   0.00000  Uiso   1.00
H748   H     0.59764   0.56017   0.41270   0.00000  Uiso   1.00
H749   H     0.63321   0.52221   0.48637   0.00000  Uiso   1.00
H750   H     0.65227   0.57078   0.56111   0.00000  Uiso   1.00
H751   H     0.63449   0.65680   0.56303   0.00000  Uiso   1.00
H752   H     0.97034   0.82736   0.47802   0.00000  Uiso   1.00
H753   H     0.52695   0.68243   0.46938   0.00000  Uiso   1.00
H754   H     0.78632   0.53692   0.57054   0.00000  Uiso   1.00
H755   H     0.69530   0.96289   0.44683   0.00000  Uiso   1.00
H756   H     0.71499   0.53495   0.42966   0.00000  Uiso   1.00
H757   H     0.80414   0.96432   0.55468   0.00000  Uiso   1.00
H758   H     0.65052   0.78669   0.60559   0.00000  Uiso   1.00
N759   N     0.75000   0.62934   0.50000   0.00000  Uiso   1.00
N760   N     0.75000   0.87065   0.50000   0.00000  Uiso   1.00
O761   O     0.68573   0.79071   0.50000   0.00000  Uiso   1.00
O762   O     0.81427   0.70928   0.50000   0.00000  Uiso   1.00
O763   O     0.81427   0.79071   0.50000   0.00000  Uiso   1.00
O764   O     0.68573   0.70928   0.50000   0.00000  Uiso   1.00
O765   O     0.75000   0.79071   0.42946   0.00000  Uiso   1.00
O766   O     0.75000   0.70929   0.57054   0.00000  Uiso   1.00
O767   O     0.75000   0.79071   0.57054   0.00000  Uiso   1.00
O768   O     0.75000   0.70929   0.42946   0.00000  Uiso   1.00
C769   C     0.16507   0.24959   0.83595   0.00000  Uiso   1.00
C770   C     0.27953   0.44641   0.86439   0.00000  Uiso   1.00
C771   C     0.24992   0.24997   0.74025   0.00000  Uiso   1.00
C772   C     0.25013   0.25005   0.92642   0.00000  Uiso   1.00
C773   C     0.24998   0.02703   0.83386   0.00000  Uiso   1.00
C774   C     0.24986   0.47257   0.83396   0.00000  Uiso   1.00
C775   C     0.25001   0.24999   0.68854   0.00000  Uiso   1.00
C776   C     0.25008   0.25009   0.97813   0.00000  Uiso   1.00
C777   C     0.04885   0.29173   0.85396   0.00000  Uiso   1.00
C778   C     0.45241   0.21023   0.83828   0.00000  Uiso   1.00
C779   C     0.45246   0.29474   0.81958   0.00000  Uiso   1.00
C780   C     0.33478   0.25021   0.82952   0.00000  Uiso   1.00
C781   C     0.04572   0.21247   0.81831   0.00000  Uiso   1.00
C782   C     0.09487   0.29019   0.85731   0.00000  Uiso   1.00
C783   C     0.40709   0.20752   0.82986   0.00000  Uiso   1.00
C784   C     0.40644   0.29403   0.81494   0.00000  Uiso   1.00
C785   C     0.09102   0.20813   0.82476   0.00000  Uiso   1.00
C786   C     0.11671   0.24881   0.84037   0.00000  Uiso   1.00
C787   C     0.38304   0.25055   0.82374   0.00000  Uiso   1.00
C788   C     0.02413   0.25316   0.83402   0.00000  Uiso   1.00
C789   C     0.47559   0.25326   0.83215   0.00000  Uiso   1.00
C790   C     0.11882   0.33077   0.88243   0.00000  Uiso   1.00
C791   C     0.27171   0.10451   0.87072   0.00000  Uiso   1.00
C792   C     0.14674   0.32255   0.92428   0.00000  Uiso   1.00
C793   C     0.17051   0.36048   0.94688   0.00000  Uiso   1.00
C794   C     0.16612   0.40695   0.92840   0.00000  Uiso   1.00
C795   C     0.13771   0.41559   0.88751   0.00000  Uiso   1.00
C796   C     0.11405   0.37772   0.86460   0.00000  Uiso   1.00
C797   C     0.38770   0.15899   0.82019   0.00000  Uiso   1.00
C798   C     0.39538   0.12123   0.85357   0.00000  Uiso   1.00
C799   C     0.37924   0.07510   0.84243   0.00000  Uiso   1.00
C800   C     0.35549   0.06629   0.79792   0.00000  Uiso   1.00
C801   C     0.34815   0.10338   0.76426   0.00000  Uiso   1.00
C802   C     0.22114   0.39532   0.80272   0.00000  Uiso   1.00
C803   C     0.36461   0.14939   0.77498   0.00000  Uiso   1.00
C804   C     0.38456   0.33794   0.79578   0.00000  Uiso   1.00
C805   C     0.35640   0.33576   0.75315   0.00000  Uiso   1.00
C806   C     0.33577   0.37707   0.73517   0.00000  Uiso   1.00
C807   C     0.34375   0.42102   0.75891   0.00000  Uiso   1.00
C808   C     0.37253   0.42374   0.80056   0.00000  Uiso   1.00
C809   C     0.39294   0.38245   0.81892   0.00000  Uiso   1.00
C810   C     0.10794   0.15859   0.82090   0.00000  Uiso   1.00
C811   C     0.09714   0.13054   0.77877   0.00000  Uiso   1.00
C812   C     0.10610   0.08151   0.77853   0.00000  Uiso   1.00
C813   C     0.22913   0.10335   0.79565   0.00000  Uiso   1.00
C814   C     0.12602   0.06005   0.82016   0.00000  Uiso   1.00
C815   C     0.13695   0.08752   0.86217   0.00000  Uiso   1.00
C816   C     0.12748   0.13641   0.86284   0.00000  Uiso   1.00
C817   C     0.27859   0.39604   0.86447   0.00000  Uiso   1.00
C818   C     0.27043   0.05414   0.87237   0.00000  Uiso   1.00
C819   C     0.22007   0.44562   0.80345   0.00000  Uiso   1.00
C820   C     0.23016   0.05304   0.79476   0.00000  Uiso   1.00
Cl821  Cl    0.30473   0.13307   0.91714   0.00000  Uiso   1.00
Cl822  Cl    0.18404   0.36580   0.76103   0.00000  Uiso   1.00
Cl823  Cl    0.19930   0.13021   0.74642   0.00000  Uiso   1.00
Cl824  Cl    0.31536   0.36731   0.90618   0.00000  Uiso   1.00
Cu825  Cu    0.25000   0.29821   0.83333   0.00000  Uiso   1.00
Cu826  Cu    0.25000   0.20178   0.83333   0.00000  Uiso   1.00
H827   H     0.03230   0.32254   0.86837   0.00000  Uiso   1.00
H828   H     0.19248   0.35380   0.97857   0.00000  Uiso   1.00
H829   H     0.18470   0.43625   0.94576   0.00000  Uiso   1.00
H830   H     0.13430   0.45160   0.87335   0.00000  Uiso   1.00
H831   H     0.09264   0.38484   0.83250   0.00000  Uiso   1.00
H832   H     0.41359   0.12756   0.88828   0.00000  Uiso   1.00
H833   H     0.38482   0.04626   0.86847   0.00000  Uiso   1.00
H834   H     0.34247   0.03082   0.78963   0.00000  Uiso   1.00
H835   H     0.32983   0.09645   0.72976   0.00000  Uiso   1.00
H836   H     0.35929   0.17762   0.74812   0.00000  Uiso   1.00
H837   H     0.35015   0.30198   0.73416   0.00000  Uiso   1.00
H838   H     0.46984   0.17756   0.84707   0.00000  Uiso   1.00
H839   H     0.31362   0.37501   0.70281   0.00000  Uiso   1.00
H840   H     0.32763   0.45291   0.74501   0.00000  Uiso   1.00
H841   H     0.37879   0.45773   0.81896   0.00000  Uiso   1.00
H842   H     0.41478   0.38504   0.85153   0.00000  Uiso   1.00
H843   H     0.08104   0.14648   0.74648   0.00000  Uiso   1.00
H844   H     0.09764   0.06017   0.74603   0.00000  Uiso   1.00
H845   H     0.13321   0.02221   0.81970   0.00000  Uiso   1.00
H846   H     0.15227   0.07078   0.89444   0.00000  Uiso   1.00
H847   H     0.13449   0.15680   0.89637   0.00000  Uiso   1.00
H848   H     0.47034   0.32736   0.81136   0.00000  Uiso   1.00
H849   H     0.02695   0.18243   0.80271   0.00000  Uiso   1.00
H850   H     0.28632   0.03692   0.90388   0.00000  Uiso   1.00
H851   H     0.19530   0.46289   0.78016   0.00000  Uiso   1.00
H852   H     0.21499   0.03495   0.76299   0.00000  Uiso   1.00
H853   H     0.30414   0.46432   0.88801   0.00000  Uiso   1.00
H854   H     0.15052   0.28669   0.93892   0.00000  Uiso   1.00
N855   N     0.25000   0.12934   0.83333   0.00000  Uiso   1.00
N856   N     0.25000   0.37065   0.83333   0.00000  Uiso   1.00
O857   O     0.18573   0.29071   0.83334   0.00000  Uiso   1.00
O858   O     0.31427   0.20928   0.83333   0.00000  Uiso   1.00
O859   O     0.31427   0.29071   0.83333   0.00000  Uiso   1.00
O860   O     0.18573   0.20928   0.83334   0.00000  Uiso   1.00
O861   O     0.25000   0.29071   0.76280   0.00000  Uiso   1.00
O862   O     0.25000   0.20929   0.90387   0.00000  Uiso   1.00
O863   O     0.25000   0.29071   0.90387   0.00000  Uiso   1.00
O864   O     0.25000   0.20929   0.76280   0.00000  Uiso   1.00
C865   C     0.66507   0.24959   0.83595   0.00000  Uiso   1.00
C866   C     0.77953   0.44641   0.86439   0.00000  Uiso   1.00
C867   C     0.74992   0.24997   0.74025   0.00000  Uiso   1.00
C868   C     0.75013   0.25005   0.92642   0.00000  Uiso   1.00
C869   C     0.74998   0.02703   0.83386   0.00000  Uiso   1.00
C870   C     0.74986   0.47257   0.83396   0.00000  Uiso   1.00
C871   C     0.75001   0.24999   0.68854   0.00000  Uiso   1.00
C872   C     0.75008   0.25009   0.97813   0.00000  Uiso   1.00
C873   C     0.54885   0.29173   0.85396   0.00000  Uiso   1.00
C874   C     0.95241   0.21023   0.83828   0.00000  Uiso   1.00
C875   C     0.95246   0.29474   0.81958   0.00000  Uiso   1.00
C876   C     0.83478   0.25021   0.82952   0.00000  Uiso   1.00
C877   C     0.54572   0.21247   0.81831   0.00000  Uiso   1.00
C878   C     0.59487   0.29019   0.85731   0.00000  Uiso   1.00
C879   C     0.90709   0.20752   0.82986   0.00000  Uiso   1.00
C880   C     0.90644   0.29403   0.81494   0.00000  Uiso   1.00
C881   C     0.59102   0.20813   0.82476   0.00000  Uiso   1.00
C882   C     0.61671   0.24881   0.84037   0.00000  Uiso   1.00
C883   C     0.88304   0.25055   0.82374   0.00000  Uiso   1.00
C884   C     0.52413   0.25316   0.83402   0.00000  Uiso   1.00
C885   C     0.97559   0.25326   0.83215   0.00000  Uiso   1.00
C886   C     0.61882   0.33077   0.88243   0.00000  Uiso   1.00
C887   C     0.77171   0.10451   0.87072   0.00000  Uiso   1.00
C888   C     0.64674   0.32255   0.92428   0.00000  Uiso   1.00
C889   C     0.67051   0.36048   0.94688   0.00000  Uiso   1.00
C890   C     0.66612   0.40695   0.92840   0.00000  Uiso   1.00
C891   C     0.63771   0.41559   0.88751   0.00000  Uiso   1.00
C892   C     0.61405   0.37772   0.86460   0.00000  Uiso   1.00
C893   C     0.88770   0.15899   0.82019   0.00000  Uiso   1.00
C894   C     0.89538   0.12123   0.85357   0.00000  Uiso   1.00
C895   C     0.87924   0.07510   0.84243   0.00000  Uiso   1.00
C896   C     0.85549   0.06629   0.79792   0.00000  Uiso   1.00
C897   C     0.84815   0.10338   0.76426   0.00000  Uiso   1.00
C898   C     0.72114   0.39532   0.80272   0.00000  Uiso   1.00
C899   C     0.86461   0.14939   0.77498   0.00000  Uiso   1.00
C900   C     0.88456   0.33794   0.79578   0.00000  Uiso   1.00
C901   C     0.85640   0.33576   0.75315   0.00000  Uiso   1.00
C902   C     0.83577   0.37707   0.73517   0.00000  Uiso   1.00
C903   C     0.84375   0.42102   0.75891   0.00000  Uiso   1.00
C904   C     0.87253   0.42374   0.80056   0.00000  Uiso   1.00
C905   C     0.89294   0.38245   0.81892   0.00000  Uiso   1.00
C906   C     0.60794   0.15859   0.82090   0.00000  Uiso   1.00
C907   C     0.59714   0.13054   0.77877   0.00000  Uiso   1.00
C908   C     0.60610   0.08151   0.77853   0.00000  Uiso   1.00
C909   C     0.72913   0.10335   0.79565   0.00000  Uiso   1.00
C910   C     0.62602   0.06005   0.82016   0.00000  Uiso   1.00
C911   C     0.63695   0.08752   0.86217   0.00000  Uiso   1.00
C912   C     0.62748   0.13641   0.86284   0.00000  Uiso   1.00
C913   C     0.77859   0.39604   0.86447   0.00000  Uiso   1.00
C914   C     0.77043   0.05414   0.87237   0.00000  Uiso   1.00
C915   C     0.72007   0.44562   0.80345   0.00000  Uiso   1.00
C916   C     0.73016   0.05304   0.79476   0.00000  Uiso   1.00
Cl917  Cl    0.80473   0.13307   0.91714   0.00000  Uiso   1.00
Cl918  Cl    0.68404   0.36580   0.76103   0.00000  Uiso   1.00
Cl919  Cl    0.69930   0.13021   0.74642   0.00000  Uiso   1.00
Cl920  Cl    0.81536   0.36731   0.90618   0.00000  Uiso   1.00
Cu921  Cu    0.75000   0.29821   0.83333   0.00000  Uiso   1.00
Cu922  Cu    0.75000   0.20178   0.83333   0.00000  Uiso   1.00
H923   H     0.53230   0.32254   0.86837   0.00000  Uiso   1.00
H924   H     0.69248   0.35380   0.97857   0.00000  Uiso   1.00
H925   H     0.68470   0.43625   0.94576   0.00000  Uiso   1.00
H926   H     0.63430   0.45160   0.87335   0.00000  Uiso   1.00
H927   H     0.59264   0.38484   0.83250   0.00000  Uiso   1.00
H928   H     0.91359   0.12756   0.88828   0.00000  Uiso   1.00
H929   H     0.88482   0.04626   0.86847   0.00000  Uiso   1.00
H930   H     0.84247   0.03082   0.78963   0.00000  Uiso   1.00
H931   H     0.82983   0.09645   0.72976   0.00000  Uiso   1.00
H932   H     0.85929   0.17762   0.74812   0.00000  Uiso   1.00
H933   H     0.85015   0.30198   0.73416   0.00000  Uiso   1.00
H934   H     0.96984   0.17756   0.84707   0.00000  Uiso   1.00
H935   H     0.81362   0.37501   0.70281   0.00000  Uiso   1.00
H936   H     0.82763   0.45291   0.74501   0.00000  Uiso   1.00
H937   H     0.87879   0.45773   0.81896   0.00000  Uiso   1.00
H938   H     0.91478   0.38504   0.85153   0.00000  Uiso   1.00
H939   H     0.58104   0.14648   0.74648   0.00000  Uiso   1.00
H940   H     0.59764   0.06017   0.74603   0.00000  Uiso   1.00
H941   H     0.63321   0.02221   0.81970   0.00000  Uiso   1.00
H942   H     0.65227   0.07078   0.89444   0.00000  Uiso   1.00
H943   H     0.63449   0.15680   0.89637   0.00000  Uiso   1.00
H944   H     0.97034   0.32736   0.81136   0.00000  Uiso   1.00
H945   H     0.52695   0.18243   0.80271   0.00000  Uiso   1.00
H946   H     0.78632   0.03692   0.90388   0.00000  Uiso   1.00
H947   H     0.69530   0.46289   0.78016   0.00000  Uiso   1.00
H948   H     0.71499   0.03495   0.76299   0.00000  Uiso   1.00
H949   H     0.80414   0.46432   0.88801   0.00000  Uiso   1.00
H950   H     0.65052   0.28669   0.93892   0.00000  Uiso   1.00
N951   N     0.75000   0.12934   0.83333   0.00000  Uiso   1.00
N952   N     0.75000   0.37065   0.83333   0.00000  Uiso   1.00
O953   O     0.68573   0.29071   0.83334   0.00000  Uiso   1.00
O954   O     0.81427   0.20928   0.83333   0.00000  Uiso   1.00
O955   O     0.81427   0.29071   0.83333   0.00000  Uiso   1.00
O956   O     0.68573   0.20928   0.83334   0.00000  Uiso   1.00
O957   O     0.75000   0.29071   0.76280   0.00000  Uiso   1.00
O958   O     0.75000   0.20929   0.90387   0.00000  Uiso   1.00
O959   O     0.75000   0.29071   0.90387   0.00000  Uiso   1.00
O960   O     0.75000   0.20929   0.76280   0.00000  Uiso   1.00
C961   C     0.16507   0.74959   0.83595   0.00000  Uiso   1.00
C962   C     0.27953   0.94641   0.86439   0.00000  Uiso   1.00
C963   C     0.24992   0.74997   0.74025   0.00000  Uiso   1.00
C964   C     0.25013   0.75005   0.92642   0.00000  Uiso   1.00
C965   C     0.24998   0.52703   0.83386   0.00000  Uiso   1.00
C966   C     0.24986   0.97257   0.83396   0.00000  Uiso   1.00
C967   C     0.25001   0.74999   0.68854   0.00000  Uiso   1.00
C968   C     0.25008   0.75009   0.97813   0.00000  Uiso   1.00
C969   C     0.04885   0.79173   0.85396   0.00000  Uiso   1.00
C970   C     0.45241   0.71023   0.83828   0.00000  Uiso   1.00
C971   C     0.45246   0.79474   0.81958   0.00000  Uiso   1.00
C972   C     0.33478   0.75021   0.82952   0.00000  Uiso   1.00
C973   C     0.04572   0.71247   0.81831   0.00000  Uiso   1.00
C974   C     0.09487   0.79019   0.85731   0.00000  Uiso   1.00
C975   C     0.40709   0.70752   0.82986   0.00000  Uiso   1.00
C976   C     0.40644   0.79403   0.81494   0.00000  Uiso   1.00
C977   C     0.09102   0.70813   0.82476   0.00000  Uiso   1.00
C978   C     0.11671   0.74881   0.84037   0.00000  Uiso   1.00
C979   C     0.38304   0.75055   0.82374   0.00000  Uiso   1.00
C980   C     0.02413   0.75316   0.83402   0.00000  Uiso   1.00
C981   C     0.47559   0.75326   0.83215   0.00000  Uiso   1.00
C982   C     0.11882   0.83077   0.88243   0.00000  Uiso   1.00
C983   C     0.27171   0.60451   0.87072   0.00000  Uiso   1.00
C984   C     0.14674   0.82255   0.92428   0.00000  Uiso   1.00
C985   C     0.17051   0.86048   0.94688   0.00000  Uiso   1.00
C986   C     0.16612   0.90695   0.92840   0.00000  Uiso   1.00
C987   C     0.13771   0.91559   0.88751   0.00000  Uiso   1.00
C988   C     0.11405   0.87772   0.86460   0.00000  Uiso   1.00
C989   C     0.38770   0.65899   0.82019   0.00000  Uiso   1.00
C990   C     0.39538   0.62123   0.85357   0.00000  Uiso   1.00
C991   C     0.37924   0.57510   0.84243   0.00000  Uiso   1.00
C992   C     0.35549   0.56629   0.79792   0.00000  Uiso   1.00
C993   C     0.34815   0.60338   0.76426   0.00000  Uiso   1.00
C994   C     0.22114   0.89532   0.80272   0.00000  Uiso   1.00
C995   C     0.36461   0.64939   0.77498   0.00000  Uiso   1.00
C996   C     0.38456   0.83794   0.79578   0.00000  Uiso   1.00
C997   C     0.35640   0.83576   0.75315   0.00000  Uiso   1.00
C998   C     0.33577   0.87707   0.73517   0.00000  Uiso   1.00
C999   C     0.34375   0.92102   0.75891   0.00000  Uiso   1.00
C1000  C     0.37253   0.92374   0.80056   0.00000  Uiso   1.00
C1001  C     0.39294   0.88245   0.81892   0.00000  Uiso   1.00
C1002  C     0.10794   0.65859   0.82090   0.00000  Uiso   1.00
C1003  C     0.09714   0.63054   0.77877   0.00000  Uiso   1.00
C1004  C     0.10610   0.58151   0.77853   0.00000  Uiso   1.00
C1005  C     0.22913   0.60335   0.79565   0.00000  Uiso   1.00
C1006  C     0.12602   0.56005   0.82016   0.00000  Uiso   1.00
C1007  C     0.13695   0.58752   0.86217   0.00000  Uiso   1.00
C1008  C     0.12748   0.63641   0.86284   0.00000  Uiso   1.00
C1009  C     0.27859   0.89604   0.86447   0.00000  Uiso   1.00
C1010  C     0.27043   0.55414   0.87237   0.00000  Uiso   1.00
C1011  C     0.22007   0.94562   0.80345   0.00000  Uiso   1.00
C1012  C     0.23016   0.55304   0.79476   0.00000  Uiso   1.00
Cl1013 Cl    0.30473   0.63307   0.91714   0.00000  Uiso   1.00
Cl1014 Cl    0.18404   0.86580   0.76103   0.00000  Uiso   1.00
Cl1015 Cl    0.19930   0.63021   0.74642   0.00000  Uiso   1.00
Cl1016 Cl    0.31536   0.86731   0.90618   0.00000  Uiso   1.00
Cu1017 Cu    0.25000   0.79821   0.83333   0.00000  Uiso   1.00
Cu1018 Cu    0.25000   0.70178   0.83333   0.00000  Uiso   1.00
H1019  H     0.03230   0.82254   0.86837   0.00000  Uiso   1.00
H1020  H     0.19248   0.85380   0.97857   0.00000  Uiso   1.00
H1021  H     0.18470   0.93625   0.94576   0.00000  Uiso   1.00
H1022  H     0.13430   0.95160   0.87335   0.00000  Uiso   1.00
H1023  H     0.09264   0.88484   0.83250   0.00000  Uiso   1.00
H1024  H     0.41359   0.62756   0.88828   0.00000  Uiso   1.00
H1025  H     0.38482   0.54626   0.86847   0.00000  Uiso   1.00
H1026  H     0.34247   0.53082   0.78963   0.00000  Uiso   1.00
H1027  H     0.32983   0.59645   0.72976   0.00000  Uiso   1.00
H1028  H     0.35929   0.67762   0.74812   0.00000  Uiso   1.00
H1029  H     0.35015   0.80198   0.73416   0.00000  Uiso   1.00
H1030  H     0.46984   0.67756   0.84707   0.00000  Uiso   1.00
H1031  H     0.31362   0.87501   0.70281   0.00000  Uiso   1.00
H1032  H     0.32763   0.95291   0.74501   0.00000  Uiso   1.00
H1033  H     0.37879   0.95773   0.81896   0.00000  Uiso   1.00
H1034  H     0.41478   0.88504   0.85153   0.00000  Uiso   1.00
H1035  H     0.08104   0.64648   0.74648   0.00000  Uiso   1.00
H1036  H     0.09764   0.56017   0.74603   0.00000  Uiso   1.00
H1037  H     0.13321   0.52221   0.81970   0.00000  Uiso   1.00
H1038  H     0.15227   0.57078   0.89444   0.00000  Uiso   1.00
H1039  H     0.13449   0.65680   0.89637   0.00000  Uiso   1.00
H1040  H     0.47034   0.82736   0.81136   0.00000  Uiso   1.00
H1041  H     0.02695   0.68243   0.80271   0.00000  Uiso   1.00
H1042  H     0.28632   0.53692   0.90388   0.00000  Uiso   1.00
H1043  H     0.19530   0.96289   0.78016   0.00000  Uiso   1.00
H1044  H     0.21499   0.53495   0.76299   0.00000  Uiso   1.00
H1045  H     0.30414   0.96432   0.88801   0.00000  Uiso   1.00
H1046  H     0.15052   0.78669   0.93892   0.00000  Uiso   1.00
N1047  N     0.25000   0.62934   0.83333   0.00000  Uiso   1.00
N1048  N     0.25000   0.87065   0.83333   0.00000  Uiso   1.00
O1049  O     0.18573   0.79071   0.83334   0.00000  Uiso   1.00
O1050  O     0.31427   0.70928   0.83333   0.00000  Uiso   1.00
O1051  O     0.31427   0.79071   0.83333   0.00000  Uiso   1.00
O1052  O     0.18573   0.70928   0.83334   0.00000  Uiso   1.00
O1053  O     0.25000   0.79071   0.76280   0.00000  Uiso   1.00
O1054  O     0.25000   0.70929   0.90387   0.00000  Uiso   1.00
O1055  O     0.25000   0.79071   0.90387   0.00000  Uiso   1.00
O1056  O     0.25000   0.70929   0.76280   0.00000  Uiso   1.00
C1057  C     0.66507   0.74959   0.83595   0.00000  Uiso   1.00
C1058  C     0.77953   0.94641   0.86439   0.00000  Uiso   1.00
C1059  C     0.74992   0.74997   0.74025   0.00000  Uiso   1.00
C1060  C     0.75013   0.75005   0.92642   0.00000  Uiso   1.00
C1061  C     0.74998   0.52703   0.83386   0.00000  Uiso   1.00
C1062  C     0.74986   0.97257   0.83396   0.00000  Uiso   1.00
C1063  C     0.75001   0.74999   0.68854   0.00000  Uiso   1.00
C1064  C     0.75008   0.75009   0.97813   0.00000  Uiso   1.00
C1065  C     0.54885   0.79173   0.85396   0.00000  Uiso   1.00
C1066  C     0.95241   0.71023   0.83828   0.00000  Uiso   1.00
C1067  C     0.95246   0.79474   0.81958   0.00000  Uiso   1.00
C1068  C     0.83478   0.75021   0.82952   0.00000  Uiso   1.00
C1069  C     0.54572   0.71247   0.81831   0.00000  Uiso   1.00
C1070  C     0.59487   0.79019   0.85731   0.00000  Uiso   1.00
C1071  C     0.90709   0.70752   0.82986   0.00000  Uiso   1.00
C1072  C     0.90644   0.79403   0.81494   0.00000  Uiso   1.00
C1073  C     0.59102   0.70813   0.82476   0.00000  Uiso   1.00
C1074  C     0.61671   0.74881   0.84037   0.00000  Uiso   1.00
C1075  C     0.88304   0.75055   0.82374   0.00000  Uiso   1.00
C1076  C     0.52413   0.75316   0.83402   0.00000  Uiso   1.00
C1077  C     0.97559   0.75326   0.83215   0.00000  Uiso   1.00
C1078  C     0.61882   0.83077   0.88243   0.00000  Uiso   1.00
C1079  C     0.77171   0.60451   0.87072   0.00000  Uiso   1.00
C1080  C     0.64674   0.82255   0.92428   0.00000  Uiso   1.00
C1081  C     0.67051   0.86048   0.94688   0.00000  Uiso   1.00
C1082  C     0.66612   0.90695   0.92840   0.00000  Uiso   1.00
C1083  C     0.63771   0.91559   0.88751   0.00000  Uiso   1.00
C1084  C     0.61405   0.87772   0.86460   0.00000  Uiso   1.00
C1085  C     0.88770   0.65899   0.82019   0.00000  Uiso   1.00
C1086  C     0.89538   0.62123   0.85357   0.00000  Uiso   1.00
C1087  C     0.87924   0.57510   0.84243   0.00000  Uiso   1.00
C1088  C     0.85549   0.56629   0.79792   0.00000  Uiso   1.00
C1089  C     0.84815   0.60338   0.76426   0.00000  Uiso   1.00
C1090  C     0.72114   0.89532   0.80272   0.00000  Uiso   1.00
C1091  C     0.86461   0.64939   0.77498   0.00000  Uiso   1.00
C1092  C     0.88456   0.83794   0.79578   0.00000  Uiso   1.00
C1093  C     0.85640   0.83576   0.75315   0.00000  Uiso   1.00
C1094  C     0.83577   0.87707   0.73517   0.00000  Uiso   1.00
C1095  C     0.84375   0.92102   0.75891   0.00000  Uiso   1.00
C1096  C     0.87253   0.92374   0.80056   0.00000  Uiso   1.00
C1097  C     0.89294   0.88245   0.81892   0.00000  Uiso   1.00
C1098  C     0.60794   0.65859   0.82090   0.00000  Uiso   1.00
C1099  C     0.59714   0.63054   0.77877   0.00000  Uiso   1.00
C1100  C     0.60610   0.58151   0.77853   0.00000  Uiso   1.00
C1101  C     0.72913   0.60335   0.79565   0.00000  Uiso   1.00
C1102  C     0.62602   0.56005   0.82016   0.00000  Uiso   1.00
C1103  C     0.63695   0.58752   0.86217   0.00000  Uiso   1.00
C1104  C     0.62748   0.63641   0.86284   0.00000  Uiso   1.00
C1105  C     0.77859   0.89604   0.86447   0.00000  Uiso   1.00
C1106  C     0.77043   0.55414   0.87237   0.00000  Uiso   1.00
C1107  C     0.72007   0.94562   0.80345   0.00000  Uiso   1.00
C1108  C     0.73016   0.55304   0.79476   0.00000  Uiso   1.00
Cl1109 Cl    0.80473   0.63307   0.91714   0.00000  Uiso   1.00
Cl1110 Cl    0.68404   0.86580   0.76103   0.00000  Uiso   1.00
Cl1111 Cl    0.69930   0.63021   0.74642   0.00000  Uiso   1.00
Cl1112 Cl    0.81536   0.86731   0.90618   0.00000  Uiso   1.00
Cu1113 Cu    0.75000   0.79821   0.83333   0.00000  Uiso   1.00
Cu1114 Cu    0.75000   0.70178   0.83333   0.00000  Uiso   1.00
H1115  H     0.53230   0.82254   0.86837   0.00000  Uiso   1.00
H1116  H     0.69248   0.85380   0.97857   0.00000  Uiso   1.00
H1117  H     0.68470   0.93625   0.94576   0.00000  Uiso   1.00
H1118  H     0.63430   0.95160   0.87335   0.00000  Uiso   1.00
H1119  H     0.59264   0.88484   0.83250   0.00000  Uiso   1.00
H1120  H     0.91359   0.62756   0.88828   0.00000  Uiso   1.00
H1121  H     0.88482   0.54626   0.86847   0.00000  Uiso   1.00
H1122  H     0.84247   0.53082   0.78963   0.00000  Uiso   1.00
H1123  H     0.82983   0.59645   0.72976   0.00000  Uiso   1.00
H1124  H     0.85929   0.67762   0.74812   0.00000  Uiso   1.00
H1125  H     0.85015   0.80198   0.73416   0.00000  Uiso   1.00
H1126  H     0.96984   0.67756   0.84707   0.00000  Uiso   1.00
H1127  H     0.81362   0.87501   0.70281   0.00000  Uiso   1.00
H1128  H     0.82763   0.95291   0.74501   0.00000  Uiso   1.00
H1129  H     0.87879   0.95773   0.81896   0.00000  Uiso   1.00
H1130  H     0.91478   0.88504   0.85153   0.00000  Uiso   1.00
H1131  H     0.58104   0.64648   0.74648   0.00000  Uiso   1.00
H1132  H     0.59764   0.56017   0.74603   0.00000  Uiso   1.00
H1133  H     0.63321   0.52221   0.81970   0.00000  Uiso   1.00
H1134  H     0.65227   0.57078   0.89444   0.00000  Uiso   1.00
H1135  H     0.63449   0.65680   0.89637   0.00000  Uiso   1.00
H1136  H     0.97034   0.82736   0.81136   0.00000  Uiso   1.00
H1137  H     0.52695   0.68243   0.80271   0.00000  Uiso   1.00
H1138  H     0.78632   0.53692   0.90388   0.00000  Uiso   1.00
H1139  H     0.69530   0.96289   0.78016   0.00000  Uiso   1.00
H1140  H     0.71499   0.53495   0.76299   0.00000  Uiso   1.00
H1141  H     0.80414   0.96432   0.88801   0.00000  Uiso   1.00
H1142  H     0.65052   0.78669   0.93892   0.00000  Uiso   1.00
N1143  N     0.75000   0.62934   0.83333   0.00000  Uiso   1.00
N1144  N     0.75000   0.87065   0.83333   0.00000  Uiso   1.00
O1145  O     0.68573   0.79071   0.83334   0.00000  Uiso   1.00
O1146  O     0.81427   0.70928   0.83333   0.00000  Uiso   1.00
O1147  O     0.81427   0.79071   0.83333   0.00000  Uiso   1.00
O1148  O     0.68573   0.70928   0.83334   0.00000  Uiso   1.00
O1149  O     0.75000   0.79071   0.76280   0.00000  Uiso   1.00
O1150  O     0.75000   0.70929   0.90387   0.00000  Uiso   1.00
O1151  O     0.75000   0.79071   0.90387   0.00000  Uiso   1.00
O1152  O     0.75000   0.70929   0.76280   0.00000  Uiso   1.00
loop_
_geom_bond_atom_site_label_1
_geom_bond_atom_site_label_2
_geom_bond_distance
_geom_bond_site_symmetry_2
_ccdc_geom_bond_type
C1     C18     1.483   .     S
C1     O92     1.299   .     A
C1     O89     1.305   .     A
C2     H85     1.079   .     S
C2     C6      1.407   .     A
C2     C49     1.405   .     A
C3     O96     1.291   .     A
C3     O93     1.290   .     A
C3     C7      1.404   .     S
C4     C8      1.404   .     S
C4     O95     1.291   .     A
C4     O94     1.290   .     A
C5     C52     1.404   .     A
C5     C50     1.405   .     A
C5     C198    1.520   1_545 S
C6     C51     1.408   .     A
C6     C197    1.520   .     S
C7     C776    1.188   1_554 S
C8     C391    1.188   .     S
C9     C14     1.401   .     A
C9     H59     1.084   .     S
C9     C20     1.398   .     A
C10    C15     1.389   .     A
C10    C21     1.399   .     A
C10    H70     1.082   .     S
C11    C21     1.397   .     A
C11    C16     1.401   .     A
C11    H80     1.084   .     S
C12    O91     1.305   .     A
C12    O90     1.301   .     A
C12    C19     1.485   .     S
C13    H81     1.082   .     S
C13    C20     1.396   .     A
C13    C17     1.389   .     A
C14    C18     1.426   .     A
C14    C22     1.485   .     S
C15    C19     1.421   .     A
C15    C29     1.488   .     S
C16    C36     1.486   .     S
C16    C19     1.426   .     A
C17    C42     1.487   .     S
C17    C18     1.422   .     A
C20    C117    1.477   1_455 S
C21    C116    1.477   .     S
C22    C24     1.407   .     A
C22    C28     1.405   .     A
C23    Cl53    1.757   .     S
C23    N87     1.378   .     A
C23    C50     1.406   .     A
C24    C25     1.398   .     A
C24    H86     1.083   .     S
C25    H60     1.082   .     S
C25    C26     1.397   .     A
C26    H61     1.082   .     S
C26    C27     1.397   .     A
C27    H62     1.081   .     S
C27    C28     1.399   .     A
C28    H63     1.083   .     S
C29    C30     1.406   .     A
C29    C35     1.408   .     A
C30    H64     1.083   .     S
C30    C31     1.399   .     A
C31    C32     1.397   .     A
C31    H65     1.082   .     S
C32    H66     1.081   .     S
C32    C33     1.396   .     A
C33    H67     1.082   .     S
C33    C35     1.397   .     A
C34    C51     1.405   .     A
C34    N88     1.373   .     A
C34    Cl54    1.756   .     S
C35    H68     1.083   .     S
C36    C37     1.408   .     A
C36    C41     1.405   .     A
C37    H69     1.083   .     S
C37    C38     1.398   .     A
C38    C39     1.397   .     A
C38    H71     1.083   .     S
C39    H72     1.082   .     S
C39    C40     1.398   .     A
C40    H73     1.082   .     S
C40    C41     1.398   .     A
C41    H74     1.083   .     S
C42    C48     1.408   .     A
C42    C43     1.408   .     A
C43    H75     1.083   .     S
C43    C44     1.399   .     A
C44    H76     1.082   .     S
C44    C46     1.397   .     A
C45    C52     1.405   .     A
C45    N87     1.378   .     A
C45    Cl55    1.755   .     S
C46    C47     1.397   .     A
C46    H77     1.082   .     S
C47    C48     1.399   .     A
C47    H78     1.082   .     S
C48    H79     1.083   .     S
C49    N88     1.373   .     A
C49    Cl56    1.756   .     S
C50    H82     1.079   .     S
C51    H83     1.080   .     S
C52    H84     1.080   .     S
Cu57   O89     1.966   .     S
Cu57   O93     1.926   .     S
Cu57   O91     1.971   .     S
Cu57   N88     2.022   .     S
Cu57   Cu58    2.691   .     S
Cu57   O95     1.927   .     S
Cu58   N87     2.022   .     S
Cu58   O96     1.927   .     S
Cu58   O90     1.966   .     S
Cu58   O94     1.926   .     S
Cu58   O92     1.971   .     S
C97    C114    1.483   .     S
C97    O188    1.299   .     A
C97    O185    1.305   .     A
C98    H181    1.079   .     S
C98    C102    1.407   .     A
C98    C145    1.405   .     A
C99    O192    1.291   .     A
C99    O189    1.290   .     A
C99    C103    1.404   .     S
C100   C104    1.404   .     S
C100   O191    1.291   .     A
C100   O190    1.290   .     A
C101   C148    1.404   .     A
C101   C146    1.405   .     A
C101   C294    1.520   1_545 S
C102   C147    1.408   .     A
C102   C293    1.520   .     S
C103   C872    1.188   1_554 S
C104   C487    1.188   .     S
C105   C110    1.401   .     A
C105   H155    1.084   .     S
C105   C116    1.398   .     A
C106   C111    1.389   .     A
C106   C117    1.399   .     A
C106   H166    1.082   .     S
C107   C117    1.397   .     A
C107   C112    1.401   .     A
C107   H176    1.084   .     S
C108   O187    1.305   .     A
C108   O186    1.301   .     A
C108   C115    1.485   .     S
C109   H177    1.082   .     S
C109   C116    1.396   .     A
C109   C113    1.389   .     A
C110   C114    1.426   .     A
C110   C118    1.485   .     S
C111   C115    1.421   .     A
C111   C125    1.488   .     S
C112   C132    1.486   .     S
C112   C115    1.426   .     A
C113   C138    1.487   .     S
C113   C114    1.422   .     A
C117   C20     1.477   1_655 S
C118   C120    1.407   .     A
C118   C124    1.405   .     A
C119   Cl149   1.757   .     S
C119   N183    1.378   .     A
C119   C146    1.406   .     A
C120   C121    1.398   .     A
C120   H182    1.083   .     S
C121   H156    1.082   .     S
C121   C122    1.397   .     A
C122   H157    1.082   .     S
C122   C123    1.397   .     A
C123   H158    1.081   .     S
C123   C124    1.399   .     A
C124   H159    1.083   .     S
C125   C126    1.406   .     A
C125   C131    1.408   .     A
C126   H160    1.083   .     S
C126   C127    1.399   .     A
C127   C128    1.397   .     A
C127   H161    1.082   .     S
C128   H162    1.081   .     S
C128   C129    1.396   .     A
C129   H163    1.082   .     S
C129   C131    1.397   .     A
C130   C147    1.405   .     A
C130   N184    1.373   .     A
C130   Cl150   1.756   .     S
C131   H164    1.083   .     S
C132   C133    1.408   .     A
C132   C137    1.405   .     A
C133   H165    1.083   .     S
C133   C134    1.398   .     A
C134   C135    1.397   .     A
C134   H167    1.083   .     S
C135   H168    1.082   .     S
C135   C136    1.398   .     A
C136   H169    1.082   .     S
C136   C137    1.398   .     A
C137   H170    1.083   .     S
C138   C144    1.408   .     A
C138   C139    1.408   .     A
C139   H171    1.083   .     S
C139   C140    1.399   .     A
C140   H172    1.082   .     S
C140   C142    1.397   .     A
C141   C148    1.405   .     A
C141   N183    1.378   .     A
C141   Cl151   1.755   .     S
C142   C143    1.397   .     A
C142   H173    1.082   .     S
C143   C144    1.399   .     A
C143   H174    1.082   .     S
C144   H175    1.083   .     S
C145   N184    1.373   .     A
C145   Cl152   1.756   .     S
C146   H178    1.079   .     S
C147   H179    1.080   .     S
C148   H180    1.080   .     S
Cu153  O185    1.966   .     S
Cu153  O189    1.926   .     S
Cu153  O187    1.971   .     S
Cu153  N184    2.022   .     S
Cu153  Cu154   2.691   .     S
Cu153  O191    1.927   .     S
Cu154  N183    2.022   .     S
Cu154  O192    1.927   .     S
Cu154  O186    1.966   .     S
Cu154  O190    1.926   .     S
Cu154  O188    1.971   .     S
C193   C210    1.483   .     S
C193   O284    1.299   .     A
C193   O281    1.305   .     A
C194   H277    1.079   .     S
C194   C198    1.407   .     A
C194   C241    1.405   .     A
C195   O288    1.291   .     A
C195   O285    1.290   .     A
C195   C199    1.404   .     S
C196   C200    1.404   .     S
C196   O287    1.291   .     A
C196   O286    1.290   .     A
C197   C244    1.404   .     A
C197   C242    1.405   .     A
C198   C243    1.408   .     A
C198   C5      1.520   1_565 S
C199   C968    1.188   1_554 S
C200   C583    1.188   .     S
C201   C206    1.401   .     A
C201   H251    1.084   .     S
C201   C212    1.398   .     A
C202   C207    1.389   .     A
C202   C213    1.399   .     A
C202   H262    1.082   .     S
C203   C213    1.397   .     A
C203   C208    1.401   .     A
C203   H272    1.084   .     S
C204   O283    1.305   .     A
C204   O282    1.301   .     A
C204   C211    1.485   .     S
C205   H273    1.082   .     S
C205   C212    1.396   .     A
C205   C209    1.389   .     A
C206   C210    1.426   .     A
C206   C214    1.485   .     S
C207   C211    1.421   .     A
C207   C221    1.488   .     S
C208   C228    1.486   .     S
C208   C211    1.426   .     A
C209   C234    1.487   .     S
C209   C210    1.422   .     A
C212   C309    1.477   1_455 S
C213   C308    1.477   .     S
C214   C216    1.407   .     A
C214   C220    1.405   .     A
C215   Cl245   1.757   .     S
C215   N279    1.378   .     A
C215   C242    1.406   .     A
C216   C217    1.398   .     A
C216   H278    1.083   .     S
C217   H252    1.082   .     S
C217   C218    1.397   .     A
C218   H253    1.082   .     S
C218   C219    1.397   .     A
C219   H254    1.081   .     S
C219   C220    1.399   .     A
C220   H255    1.083   .     S
C221   C222    1.406   .     A
C221   C227    1.408   .     A
C222   H256    1.083   .     S
C222   C223    1.399   .     A
C223   C224    1.397   .     A
C223   H257    1.082   .     S
C224   H258    1.081   .     S
C224   C225    1.396   .     A
C225   H259    1.082   .     S
C225   C227    1.397   .     A
C226   C243    1.405   .     A
C226   N280    1.373   .     A
C226   Cl246   1.756   .     S
C227   H260    1.083   .     S
C228   C229    1.408   .     A
C228   C233    1.405   .     A
C229   H261    1.083   .     S
C229   C230    1.398   .     A
C230   C231    1.397   .     A
C230   H263    1.083   .     S
C231   H264    1.082   .     S
C231   C232    1.398   .     A
C232   H265    1.082   .     S
C232   C233    1.398   .     A
C233   H266    1.083   .     S
C234   C240    1.408   .     A
C234   C235    1.408   .     A
C235   H267    1.083   .     S
C235   C236    1.399   .     A
C236   H268    1.082   .     S
C236   C238    1.397   .     A
C237   C244    1.405   .     A
C237   N279    1.378   .     A
C237   Cl247   1.755   .     S
C238   C239    1.397   .     A
C238   H269    1.082   .     S
C239   C240    1.399   .     A
C239   H270    1.082   .     S
C240   H271    1.083   .     S
C241   N280    1.373   .     A
C241   Cl248   1.756   .     S
C242   H274    1.079   .     S
C243   H275    1.080   .     S
C244   H276    1.080   .     S
Cu249  O281    1.966   .     S
Cu249  O285    1.926   .     S
Cu249  O283    1.971   .     S
Cu249  N280    2.022   .     S
Cu249  Cu250   2.691   .     S
Cu249  O287    1.927   .     S
Cu250  N279    2.022   .     S
Cu250  O288    1.927   .     S
Cu250  O282    1.966   .     S
Cu250  O286    1.926   .     S
Cu250  O284    1.971   .     S
C289   C306    1.483   .     S
C289   O380    1.299   .     A
C289   O377    1.305   .     A
C290   H373    1.079   .     S
C290   C294    1.407   .     A
C290   C337    1.405   .     A
C291   O384    1.291   .     A
C291   O381    1.290   .     A
C291   C295    1.404   .     S
C292   C296    1.404   .     S
C292   O383    1.291   .     A
C292   O382    1.290   .     A
C293   C340    1.404   .     A
C293   C338    1.405   .     A
C294   C339    1.408   .     A
C294   C101    1.520   1_565 S
C295   C1064   1.188   1_554 S
C296   C679    1.188   .     S
C297   C302    1.401   .     A
C297   H347    1.084   .     S
C297   C308    1.398   .     A
C298   C303    1.389   .     A
C298   C309    1.399   .     A
C298   H358    1.082   .     S
C299   C309    1.397   .     A
C299   C304    1.401   .     A
C299   H368    1.084   .     S
C300   O379    1.305   .     A
C300   O378    1.301   .     A
C300   C307    1.485   .     S
C301   H369    1.082   .     S
C301   C308    1.396   .     A
C301   C305    1.389   .     A
C302   C306    1.426   .     A
C302   C310    1.485   .     S
C303   C307    1.421   .     A
C303   C317    1.488   .     S
C304   C324    1.486   .     S
C304   C307    1.426   .     A
C305   C330    1.487   .     S
C305   C306    1.422   .     A
C309   C212    1.477   1_655 S
C310   C312    1.407   .     A
C310   C316    1.405   .     A
C311   Cl341   1.757   .     S
C311   N375    1.378   .     A
C311   C338    1.406   .     A
C312   C313    1.398   .     A
C312   H374    1.083   .     S
C313   H348    1.082   .     S
C313   C314    1.397   .     A
C314   H349    1.082   .     S
C314   C315    1.397   .     A
C315   H350    1.081   .     S
C315   C316    1.399   .     A
C316   H351    1.083   .     S
C317   C318    1.406   .     A
C317   C323    1.408   .     A
C318   H352    1.083   .     S
C318   C319    1.399   .     A
C319   C320    1.397   .     A
C319   H353    1.082   .     S
C320   H354    1.081   .     S
C320   C321    1.396   .     A
C321   H355    1.082   .     S
C321   C323    1.397   .     A
C322   C339    1.405   .     A
C322   N376    1.373   .     A
C322   Cl342   1.756   .     S
C323   H356    1.083   .     S
C324   C325    1.408   .     A
C324   C329    1.405   .     A
C325   H357    1.083   .     S
C325   C326    1.398   .     A
C326   C327    1.397   .     A
C326   H359    1.083   .     S
C327   H360    1.082   .     S
C327   C328    1.398   .     A
C328   H361    1.082   .     S
C328   C329    1.398   .     A
C329   H362    1.083   .     S
C330   C336    1.408   .     A
C330   C331    1.408   .     A
C331   H363    1.083   .     S
C331   C332    1.399   .     A
C332   H364    1.082   .     S
C332   C334    1.397   .     A
C333   C340    1.405   .     A
C333   N375    1.378   .     A
C333   Cl343   1.755   .     S
C334   C335    1.397   .     A
C334   H365    1.082   .     S
C335   C336    1.399   .     A
C335   H366    1.082   .     S
C336   H367    1.083   .     S
C337   N376    1.373   .     A
C337   Cl344   1.756   .     S
C338   H370    1.079   .     S
C339   H371    1.080   .     S
C340   H372    1.080   .     S
Cu345  O377    1.966   .     S
Cu345  O381    1.926   .     S
Cu345  O379    1.971   .     S
Cu345  N376    2.022   .     S
Cu345  Cu346   2.691   .     S
Cu345  O383    1.927   .     S
Cu346  N375    2.022   .     S
Cu346  O384    1.927   .     S
Cu346  O378    1.966   .     S
Cu346  O382    1.926   .     S
Cu346  O380    1.971   .     S
C385   C402    1.483   .     S
C385   O476    1.299   .     A
C385   O473    1.305   .     A
C386   H469    1.079   .     S
C386   C390    1.407   .     A
C386   C433    1.405   .     A
C387   O480    1.291   .     A
C387   O477    1.290   .     A
C387   C391    1.404   .     S
C388   C392    1.404   .     S
C388   O479    1.291   .     A
C388   O478    1.290   .     A
C389   C436    1.404   .     A
C389   C434    1.405   .     A
C389   C582    1.520   1_545 S
C390   C435    1.408   .     A
C390   C581    1.520   .     S
C392   C775    1.188   .     S
C393   C398    1.401   .     A
C393   H443    1.084   .     S
C393   C404    1.398   .     A
C394   C399    1.389   .     A
C394   C405    1.399   .     A
C394   H454    1.082   .     S
C395   C405    1.397   .     A
C395   C400    1.401   .     A
C395   H464    1.084   .     S
C396   O475    1.305   .     A
C396   O474    1.301   .     A
C396   C403    1.485   .     S
C397   H465    1.082   .     S
C397   C404    1.396   .     A
C397   C401    1.389   .     A
C398   C402    1.426   .     A
C398   C406    1.485   .     S
C399   C403    1.421   .     A
C399   C413    1.488   .     S
C400   C420    1.486   .     S
C400   C403    1.426   .     A
C401   C426    1.487   .     S
C401   C402    1.422   .     A
C404   C501    1.477   1_455 S
C405   C500    1.477   .     S
C406   C408    1.407   .     A
C406   C412    1.405   .     A
C407   Cl437   1.757   .     S
C407   N471    1.378   .     A
C407   C434    1.406   .     A
C408   C409    1.398   .     A
C408   H470    1.083   .     S
C409   H444    1.082   .     S
C409   C410    1.397   .     A
C410   H445    1.082   .     S
C410   C411    1.397   .     A
C411   H446    1.081   .     S
C411   C412    1.399   .     A
C412   H447    1.083   .     S
C413   C414    1.406   .     A
C413   C419    1.408   .     A
C414   H448    1.083   .     S
C414   C415    1.399   .     A
C415   C416    1.397   .     A
C415   H449    1.082   .     S
C416   H450    1.081   .     S
C416   C417    1.396   .     A
C417   H451    1.082   .     S
C417   C419    1.397   .     A
C418   C435    1.405   .     A
C418   N472    1.373   .     A
C418   Cl438   1.756   .     S
C419   H452    1.083   .     S
C420   C421    1.408   .     A
C420   C425    1.405   .     A
C421   H453    1.083   .     S
C421   C422    1.398   .     A
C422   C423    1.397   .     A
C422   H455    1.083   .     S
C423   H456    1.082   .     S
C423   C424    1.398   .     A
C424   H457    1.082   .     S
C424   C425    1.398   .     A
C425   H458    1.083   .     S
C426   C432    1.408   .     A
C426   C427    1.408   .     A
C427   H459    1.083   .     S
C427   C428    1.399   .     A
C428   H460    1.082   .     S
C428   C430    1.397   .     A
C429   C436    1.405   .     A
C429   N471    1.378   .     A
C429   Cl439   1.755   .     S
C430   C431    1.397   .     A
C430   H461    1.082   .     S
C431   C432    1.399   .     A
C431   H462    1.082   .     S
C432   H463    1.083   .     S
C433   N472    1.373   .     A
C433   Cl440   1.756   .     S
C434   H466    1.079   .     S
C435   H467    1.080   .     S
C436   H468    1.080   .     S
Cu441  O473    1.966   .     S
Cu441  O477    1.926   .     S
Cu441  O475    1.971   .     S
Cu441  N472    2.022   .     S
Cu441  Cu442   2.691   .     S
Cu441  O479    1.927   .     S
Cu442  N471    2.022   .     S
Cu442  O480    1.927   .     S
Cu442  O474    1.966   .     S
Cu442  O478    1.926   .     S
Cu442  O476    1.971   .     S
C481   C498    1.483   .     S
C481   O572    1.299   .     A
C481   O569    1.305   .     A
C482   H565    1.079   .     S
C482   C486    1.407   .     A
C482   C529    1.405   .     A
C483   O576    1.291   .     A
C483   O573    1.290   .     A
C483   C487    1.404   .     S
C484   C488    1.404   .     S
C484   O575    1.291   .     A
C484   O574    1.290   .     A
C485   C532    1.404   .     A
C485   C530    1.405   .     A
C485   C678    1.520   1_545 S
C486   C531    1.408   .     A
C486   C677    1.520   .     S
C488   C871    1.188   .     S
C489   C494    1.401   .     A
C489   H539    1.084   .     S
C489   C500    1.398   .     A
C490   C495    1.389   .     A
C490   C501    1.399   .     A
C490   H550    1.082   .     S
C491   C501    1.397   .     A
C491   C496    1.401   .     A
C491   H560    1.084   .     S
C492   O571    1.305   .     A
C492   O570    1.301   .     A
C492   C499    1.485   .     S
C493   H561    1.082   .     S
C493   C500    1.396   .     A
C493   C497    1.389   .     A
C494   C498    1.426   .     A
C494   C502    1.485   .     S
C495   C499    1.421   .     A
C495   C509    1.488   .     S
C496   C516    1.486   .     S
C496   C499    1.426   .     A
C497   C522    1.487   .     S
C497   C498    1.422   .     A
C501   C404    1.477   1_655 S
C502   C504    1.407   .     A
C502   C508    1.405   .     A
C503   Cl533   1.757   .     S
C503   N567    1.378   .     A
C503   C530    1.406   .     A
C504   C505    1.398   .     A
C504   H566    1.083   .     S
C505   H540    1.082   .     S
C505   C506    1.397   .     A
C506   H541    1.082   .     S
C506   C507    1.397   .     A
C507   H542    1.081   .     S
C507   C508    1.399   .     A
C508   H543    1.083   .     S
C509   C510    1.406   .     A
C509   C515    1.408   .     A
C510   H544    1.083   .     S
C510   C511    1.399   .     A
C511   C512    1.397   .     A
C511   H545    1.082   .     S
C512   H546    1.081   .     S
C512   C513    1.396   .     A
C513   H547    1.082   .     S
C513   C515    1.397   .     A
C514   C531    1.405   .     A
C514   N568    1.373   .     A
C514   Cl534   1.756   .     S
C515   H548    1.083   .     S
C516   C517    1.408   .     A
C516   C521    1.405   .     A
C517   H549    1.083   .     S
C517   C518    1.398   .     A
C518   C519    1.397   .     A
C518   H551    1.083   .     S
C519   H552    1.082   .     S
C519   C520    1.398   .     A
C520   H553    1.082   .     S
C520   C521    1.398   .     A
C521   H554    1.083   .     S
C522   C528    1.408   .     A
C522   C523    1.408   .     A
C523   H555    1.083   .     S
C523   C524    1.399   .     A
C524   H556    1.082   .     S
C524   C526    1.397   .     A
C525   C532    1.405   .     A
C525   N567    1.378   .     A
C525   Cl535   1.755   .     S
C526   C527    1.397   .     A
C526   H557    1.082   .     S
C527   C528    1.399   .     A
C527   H558    1.082   .     S
C528   H559    1.083   .     S
C529   N568    1.373   .     A
C529   Cl536   1.756   .     S
C530   H562    1.079   .     S
C531   H563    1.080   .     S
C532   H564    1.080   .     S
Cu537  O569    1.966   .     S
Cu537  O573    1.926   .     S
Cu537  O571    1.971   .     S
Cu537  N568    2.022   .     S
Cu537  Cu538   2.691   .     S
Cu537  O575    1.927   .     S
Cu538  N567    2.022   .     S
Cu538  O576    1.927   .     S
Cu538  O570    1.966   .     S
Cu538  O574    1.926   .     S
Cu538  O572    1.971   .     S
C577   C594    1.483   .     S
C577   O668    1.299   .     A
C577   O665    1.305   .     A
C578   H661    1.079   .     S
C578   C582    1.407   .     A
C578   C625    1.405   .     A
C579   O672    1.291   .     A
C579   O669    1.290   .     A
C579   C583    1.404   .     S
C580   C584    1.404   .     S
C580   O671    1.291   .     A
C580   O670    1.290   .     A
C581   C628    1.404   .     A
C581   C626    1.405   .     A
C582   C627    1.408   .     A
C582   C389    1.520   1_565 S
C584   C967    1.188   .     S
C585   C590    1.401   .     A
C585   H635    1.084   .     S
C585   C596    1.398   .     A
C586   C591    1.389   .     A
C586   C597    1.399   .     A
C586   H646    1.082   .     S
C587   C597    1.397   .     A
C587   C592    1.401   .     A
C587   H656    1.084   .     S
C588   O667    1.305   .     A
C588   O666    1.301   .     A
C588   C595    1.485   .     S
C589   H657    1.082   .     S
C589   C596    1.396   .     A
C589   C593    1.389   .     A
C590   C594    1.426   .     A
C590   C598    1.485   .     S
C591   C595    1.421   .     A
C591   C605    1.488   .     S
C592   C612    1.486   .     S
C592   C595    1.426   .     A
C593   C618    1.487   .     S
C593   C594    1.422   .     A
C596   C693    1.477   1_455 S
C597   C692    1.477   .     S
C598   C600    1.407   .     A
C598   C604    1.405   .     A
C599   Cl629   1.757   .     S
C599   N663    1.378   .     A
C599   C626    1.406   .     A
C600   C601    1.398   .     A
C600   H662    1.083   .     S
C601   H636    1.082   .     S
C601   C602    1.397   .     A
C602   H637    1.082   .     S
C602   C603    1.397   .     A
C603   H638    1.081   .     S
C603   C604    1.399   .     A
C604   H639    1.083   .     S
C605   C606    1.406   .     A
C605   C611    1.408   .     A
C606   H640    1.083   .     S
C606   C607    1.399   .     A
C607   C608    1.397   .     A
C607   H641    1.082   .     S
C608   H642    1.081   .     S
C608   C609    1.396   .     A
C609   H643    1.082   .     S
C609   C611    1.397   .     A
C610   C627    1.405   .     A
C610   N664    1.373   .     A
C610   Cl630   1.756   .     S
C611   H644    1.083   .     S
C612   C613    1.408   .     A
C612   C617    1.405   .     A
C613   H645    1.083   .     S
C613   C614    1.398   .     A
C614   C615    1.397   .     A
C614   H647    1.083   .     S
C615   H648    1.082   .     S
C615   C616    1.398   .     A
C616   H649    1.082   .     S
C616   C617    1.398   .     A
C617   H650    1.083   .     S
C618   C624    1.408   .     A
C618   C619    1.408   .     A
C619   H651    1.083   .     S
C619   C620    1.399   .     A
C620   H652    1.082   .     S
C620   C622    1.397   .     A
C621   C628    1.405   .     A
C621   N663    1.378   .     A
C621   Cl631   1.755   .     S
C622   C623    1.397   .     A
C622   H653    1.082   .     S
C623   C624    1.399   .     A
C623   H654    1.082   .     S
C624   H655    1.083   .     S
C625   N664    1.373   .     A
C625   Cl632   1.756   .     S
C626   H658    1.079   .     S
C627   H659    1.080   .     S
C628   H660    1.080   .     S
Cu633  O665    1.966   .     S
Cu633  O669    1.926   .     S
Cu633  O667    1.971   .     S
Cu633  N664    2.022   .     S
Cu633  Cu634   2.691   .     S
Cu633  O671    1.927   .     S
Cu634  N663    2.022   .     S
Cu634  O672    1.927   .     S
Cu634  O666    1.966   .     S
Cu634  O670    1.926   .     S
Cu634  O668    1.971   .     S
C673   C690    1.483   .     S
C673   O764    1.299   .     A
C673   O761    1.305   .     A
C674   H757    1.079   .     S
C674   C678    1.407   .     A
C674   C721    1.405   .     A
C675   O768    1.291   .     A
C675   O765    1.290   .     A
C675   C679    1.404   .     S
C676   C680    1.404   .     S
C676   O767    1.291   .     A
C676   O766    1.290   .     A
C677   C724    1.404   .     A
C677   C722    1.405   .     A
C678   C723    1.408   .     A
C678   C485    1.520   1_565 S
C680   C1063   1.188   .     S
C681   C686    1.401   .     A
C681   H731    1.084   .     S
C681   C692    1.398   .     A
C682   C687    1.389   .     A
C682   C693    1.399   .     A
C682   H742    1.082   .     S
C683   C693    1.397   .     A
C683   C688    1.401   .     A
C683   H752    1.084   .     S
C684   O763    1.305   .     A
C684   O762    1.301   .     A
C684   C691    1.485   .     S
C685   H753    1.082   .     S
C685   C692    1.396   .     A
C685   C689    1.389   .     A
C686   C690    1.426   .     A
C686   C694    1.485   .     S
C687   C691    1.421   .     A
C687   C701    1.488   .     S
C688   C708    1.486   .     S
C688   C691    1.426   .     A
C689   C714    1.487   .     S
C689   C690    1.422   .     A
C693   C596    1.477   1_655 S
C694   C696    1.407   .     A
C694   C700    1.405   .     A
C695   Cl725   1.757   .     S
C695   N759    1.378   .     A
C695   C722    1.406   .     A
C696   C697    1.398   .     A
C696   H758    1.083   .     S
C697   H732    1.082   .     S
C697   C698    1.397   .     A
C698   H733    1.082   .     S
C698   C699    1.397   .     A
C699   H734    1.081   .     S
C699   C700    1.399   .     A
C700   H735    1.083   .     S
C701   C702    1.406   .     A
C701   C707    1.408   .     A
C702   H736    1.083   .     S
C702   C703    1.399   .     A
C703   C704    1.397   .     A
C703   H737    1.082   .     S
C704   H738    1.081   .     S
C704   C705    1.396   .     A
C705   H739    1.082   .     S
C705   C707    1.397   .     A
C706   C723    1.405   .     A
C706   N760    1.373   .     A
C706   Cl726   1.756   .     S
C707   H740    1.083   .     S
C708   C709    1.408   .     A
C708   C713    1.405   .     A
C709   H741    1.083   .     S
C709   C710    1.398   .     A
C710   C711    1.397   .     A
C710   H743    1.083   .     S
C711   H744    1.082   .     S
C711   C712    1.398   .     A
C712   H745    1.082   .     S
C712   C713    1.398   .     A
C713   H746    1.083   .     S
C714   C720    1.408   .     A
C714   C715    1.408   .     A
C715   H747    1.083   .     S
C715   C716    1.399   .     A
C716   H748    1.082   .     S
C716   C718    1.397   .     A
C717   C724    1.405   .     A
C717   N759    1.378   .     A
C717   Cl727   1.755   .     S
C718   C719    1.397   .     A
C718   H749    1.082   .     S
C719   C720    1.399   .     A
C719   H750    1.082   .     S
C720   H751    1.083   .     S
C721   N760    1.373   .     A
C721   Cl728   1.756   .     S
C722   H754    1.079   .     S
C723   H755    1.080   .     S
C724   H756    1.080   .     S
Cu729  O761    1.966   .     S
Cu729  O765    1.926   .     S
Cu729  O763    1.971   .     S
Cu729  N760    2.022   .     S
Cu729  Cu730   2.691   .     S
Cu729  O767    1.927   .     S
Cu730  N759    2.022   .     S
Cu730  O768    1.927   .     S
Cu730  O762    1.966   .     S
Cu730  O766    1.926   .     S
Cu730  O764    1.971   .     S
C769   C786    1.483   .     S
C769   O860    1.299   .     A
C769   O857    1.305   .     A
C770   H853    1.079   .     S
C770   C774    1.407   .     A
C770   C817    1.405   .     A
C771   O864    1.291   .     A
C771   O861    1.290   .     A
C771   C775    1.404   .     S
C772   C776    1.404   .     S
C772   O863    1.291   .     A
C772   O862    1.290   .     A
C773   C820    1.404   .     A
C773   C818    1.405   .     A
C773   C966    1.520   1_545 S
C774   C819    1.408   .     A
C774   C965    1.520   .     S
C776   C7      1.188   1_556 S
C777   C782    1.401   .     A
C777   H827    1.084   .     S
C777   C788    1.398   .     A
C778   C783    1.389   .     A
C778   C789    1.399   .     A
C778   H838    1.082   .     S
C779   C789    1.397   .     A
C779   C784    1.401   .     A
C779   H848    1.084   .     S
C780   O859    1.305   .     A
C780   O858    1.301   .     A
C780   C787    1.485   .     S
C781   H849    1.082   .     S
C781   C788    1.396   .     A
C781   C785    1.389   .     A
C782   C786    1.426   .     A
C782   C790    1.485   .     S
C783   C787    1.421   .     A
C783   C797    1.488   .     S
C784   C804    1.486   .     S
C784   C787    1.426   .     A
C785   C810    1.487   .     S
C785   C786    1.422   .     A
C788   C885    1.477   1_455 S
C789   C884    1.477   .     S
C790   C792    1.407   .     A
C790   C796    1.405   .     A
C791   Cl821   1.757   .     S
C791   N855    1.378   .     A
C791   C818    1.406   .     A
C792   C793    1.398   .     A
C792   H854    1.083   .     S
C793   H828    1.082   .     S
C793   C794    1.397   .     A
C794   H829    1.082   .     S
C794   C795    1.397   .     A
C795   H830    1.081   .     S
C795   C796    1.399   .     A
C796   H831    1.083   .     S
C797   C798    1.406   .     A
C797   C803    1.408   .     A
C798   H832    1.083   .     S
C798   C799    1.399   .     A
C799   C800    1.397   .     A
C799   H833    1.082   .     S
C800   H834    1.081   .     S
C800   C801    1.396   .     A
C801   H835    1.082   .     S
C801   C803    1.397   .     A
C802   C819    1.405   .     A
C802   N856    1.373   .     A
C802   Cl822   1.756   .     S
C803   H836    1.083   .     S
C804   C805    1.408   .     A
C804   C809    1.405   .     A
C805   H837    1.083   .     S
C805   C806    1.398   .     A
C806   C807    1.397   .     A
C806   H839    1.083   .     S
C807   H840    1.082   .     S
C807   C808    1.398   .     A
C808   H841    1.082   .     S
C808   C809    1.398   .     A
C809   H842    1.083   .     S
C810   C816    1.408   .     A
C810   C811    1.408   .     A
C811   H843    1.083   .     S
C811   C812    1.399   .     A
C812   H844    1.082   .     S
C812   C814    1.397   .     A
C813   C820    1.405   .     A
C813   N855    1.378   .     A
C813   Cl823   1.755   .     S
C814   C815    1.397   .     A
C814   H845    1.082   .     S
C815   C816    1.399   .     A
C815   H846    1.082   .     S
C816   H847    1.083   .     S
C817   N856    1.373   .     A
C817   Cl824   1.756   .     S
C818   H850    1.079   .     S
C819   H851    1.080   .     S
C820   H852    1.080   .     S
Cu825  O857    1.966   .     S
Cu825  O861    1.926   .     S
Cu825  O859    1.971   .     S
Cu825  N856    2.022   .     S
Cu825  Cu826   2.691   .     S
Cu825  O863    1.927   .     S
Cu826  N855    2.022   .     S
Cu826  O864    1.927   .     S
Cu826  O858    1.966   .     S
Cu826  O862    1.926   .     S
Cu826  O860    1.971   .     S
C865   C882    1.483   .     S
C865   O956    1.299   .     A
C865   O953    1.305   .     A
C866   H949    1.079   .     S
C866   C870    1.407   .     A
C866   C913    1.405   .     A
C867   O960    1.291   .     A
C867   O957    1.290   .     A
C867   C871    1.404   .     S
C868   C872    1.404   .     S
C868   O959    1.291   .     A
C868   O958    1.290   .     A
C869   C916    1.404   .     A
C869   C914    1.405   .     A
C869   C1062   1.520   1_545 S
C870   C915    1.408   .     A
C870   C1061   1.520   .     S
C872   C103    1.188   1_556 S
C873   C878    1.401   .     A
C873   H923    1.084   .     S
C873   C884    1.398   .     A
C874   C879    1.389   .     A
C874   C885    1.399   .     A
C874   H934    1.082   .     S
C875   C885    1.397   .     A
C875   C880    1.401   .     A
C875   H944    1.084   .     S
C876   O955    1.305   .     A
C876   O954    1.301   .     A
C876   C883    1.485   .     S
C877   H945    1.082   .     S
C877   C884    1.396   .     A
C877   C881    1.389   .     A
C878   C882    1.426   .     A
C878   C886    1.485   .     S
C879   C883    1.421   .     A
C879   C893    1.488   .     S
C880   C900    1.486   .     S
C880   C883    1.426   .     A
C881   C906    1.487   .     S
C881   C882    1.422   .     A
C885   C788    1.477   1_655 S
C886   C888    1.407   .     A
C886   C892    1.405   .     A
C887   Cl917   1.757   .     S
C887   N951    1.378   .     A
C887   C914    1.406   .     A
C888   C889    1.398   .     A
C888   H950    1.083   .     S
C889   H924    1.082   .     S
C889   C890    1.397   .     A
C890   H925    1.082   .     S
C890   C891    1.397   .     A
C891   H926    1.081   .     S
C891   C892    1.399   .     A
C892   H927    1.083   .     S
C893   C894    1.406   .     A
C893   C899    1.408   .     A
C894   H928    1.083   .     S
C894   C895    1.399   .     A
C895   C896    1.397   .     A
C895   H929    1.082   .     S
C896   H930    1.081   .     S
C896   C897    1.396   .     A
C897   H931    1.082   .     S
C897   C899    1.397   .     A
C898   C915    1.405   .     A
C898   N952    1.373   .     A
C898   Cl918   1.756   .     S
C899   H932    1.083   .     S
C900   C901    1.408   .     A
C900   C905    1.405   .     A
C901   H933    1.083   .     S
C901   C902    1.398   .     A
C902   C903    1.397   .     A
C902   H935    1.083   .     S
C903   H936    1.082   .     S
C903   C904    1.398   .     A
C904   H937    1.082   .     S
C904   C905    1.398   .     A
C905   H938    1.083   .     S
C906   C912    1.408   .     A
C906   C907    1.408   .     A
C907   H939    1.083   .     S
C907   C908    1.399   .     A
C908   H940    1.082   .     S
C908   C910    1.397   .     A
C909   C916    1.405   .     A
C909   N951    1.378   .     A
C909   Cl919   1.755   .     S
C910   C911    1.397   .     A
C910   H941    1.082   .     S
C911   C912    1.399   .     A
C911   H942    1.082   .     S
C912   H943    1.083   .     S
C913   N952    1.373   .     A
C913   Cl920   1.756   .     S
C914   H946    1.079   .     S
C915   H947    1.080   .     S
C916   H948    1.080   .     S
Cu921  O953    1.966   .     S
Cu921  O957    1.926   .     S
Cu921  O955    1.971   .     S
Cu921  N952    2.022   .     S
Cu921  Cu922   2.691   .     S
Cu921  O959    1.927   .     S
Cu922  N951    2.022   .     S
Cu922  O960    1.927   .     S
Cu922  O954    1.966   .     S
Cu922  O958    1.926   .     S
Cu922  O956    1.971   .     S
C961   C978    1.483   .     S
C961   O1052   1.299   .     A
C961   O1049   1.305   .     A
C962   H1045   1.079   .     S
C962   C966    1.407   .     A
C962   C1009   1.405   .     A
C963   O1056   1.291   .     A
C963   O1053   1.290   .     A
C963   C967    1.404   .     S
C964   C968    1.404   .     S
C964   O1055   1.291   .     A
C964   O1054   1.290   .     A
C965   C1012   1.404   .     A
C965   C1010   1.405   .     A
C966   C1011   1.408   .     A
C966   C773    1.520   1_565 S
C968   C199    1.188   1_556 S
C969   C974    1.401   .     A
C969   H1019   1.084   .     S
C969   C980    1.398   .     A
C970   C975    1.389   .     A
C970   C981    1.399   .     A
C970   H1030   1.082   .     S
C971   C981    1.397   .     A
C971   C976    1.401   .     A
C971   H1040   1.084   .     S
C972   O1051   1.305   .     A
C972   O1050   1.301   .     A
C972   C979    1.485   .     S
C973   H1041   1.082   .     S
C973   C980    1.396   .     A
C973   C977    1.389   .     A
C974   C978    1.426   .     A
C974   C982    1.485   .     S
C975   C979    1.421   .     A
C975   C989    1.488   .     S
C976   C996    1.486   .     S
C976   C979    1.426   .     A
C977   C1002   1.487   .     S
C977   C978    1.422   .     A
C980   C1077   1.477   1_455 S
C981   C1076   1.477   .     S
C982   C984    1.407   .     A
C982   C988    1.405   .     A
C983   Cl1013  1.757   .     S
C983   N1047   1.378   .     A
C983   C1010   1.406   .     A
C984   C985    1.398   .     A
C984   H1046   1.083   .     S
C985   H1020   1.082   .     S
C985   C986    1.397   .     A
C986   H1021   1.082   .     S
C986   C987    1.397   .     A
C987   H1022   1.081   .     S
C987   C988    1.399   .     A
C988   H1023   1.083   .     S
C989   C990    1.406   .     A
C989   C995    1.408   .     A
C990   H1024   1.083   .     S
C990   C991    1.399   .     A
C991   C992    1.397   .     A
C991   H1025   1.082   .     S
C992   H1026   1.081   .     S
C992   C993    1.396   .     A
C993   H1027   1.082   .     S
C993   C995    1.397   .     A
C994   C1011   1.405   .     A
C994   N1048   1.373   .     A
C994   Cl1014  1.756   .     S
C995   H1028   1.083   .     S
C996   C997    1.408   .     A
C996   C1001   1.405   .     A
C997   H1029   1.083   .     S
C997   C998    1.398   .     A
C998   C999    1.397   .     A
C998   H1031   1.083   .     S
C999   H1032   1.082   .     S
C999   C1000   1.398   .     A
C1000  H1033   1.082   .     S
C1000  C1001   1.398   .     A
C1001  H1034   1.083   .     S
C1002  C1008   1.408   .     A
C1002  C1003   1.408   .     A
C1003  H1035   1.083   .     S
C1003  C1004   1.399   .     A
C1004  H1036   1.082   .     S
C1004  C1006   1.397   .     A
C1005  C1012   1.405   .     A
C1005  N1047   1.378   .     A
C1005  Cl1015  1.755   .     S
C1006  C1007   1.397   .     A
C1006  H1037   1.082   .     S
C1007  C1008   1.399   .     A
C1007  H1038   1.082   .     S
C1008  H1039   1.083   .     S
C1009  N1048   1.373   .     A
C1009  Cl1016  1.756   .     S
C1010  H1042   1.079   .     S
C1011  H1043   1.080   .     S
C1012  H1044   1.080   .     S
Cu1017 O1049   1.966   .     S
Cu1017 O1053   1.926   .     S
Cu1017 O1051   1.971   .     S
Cu1017 N1048   2.022   .     S
Cu1017 Cu1018  2.691   .     S
Cu1017 O1055   1.927   .     S
Cu1018 N1047   2.022   .     S
Cu1018 O1056   1.927   .     S
Cu1018 O1050   1.966   .     S
Cu1018 O1054   1.926   .     S
Cu1018 O1052   1.971   .     S
C1057  C1074   1.483   .     S
C1057  O1148   1.299   .     A
C1057  O1145   1.305   .     A
C1058  H1141   1.079   .     S
C1058  C1062   1.407   .     A
C1058  C1105   1.405   .     A
C1059  O1152   1.291   .     A
C1059  O1149   1.290   .     A
C1059  C1063   1.404   .     S
C1060  C1064   1.404   .     S
C1060  O1151   1.291   .     A
C1060  O1150   1.290   .     A
C1061  C1108   1.404   .     A
C1061  C1106   1.405   .     A
C1062  C1107   1.408   .     A
C1062  C869    1.520   1_565 S
C1064  C295    1.188   1_556 S
C1065  C1070   1.401   .     A
C1065  H1115   1.084   .     S
C1065  C1076   1.398   .     A
C1066  C1071   1.389   .     A
C1066  C1077   1.399   .     A
C1066  H1126   1.082   .     S
C1067  C1077   1.397   .     A
C1067  C1072   1.401   .     A
C1067  H1136   1.084   .     S
C1068  O1147   1.305   .     A
C1068  O1146   1.301   .     A
C1068  C1075   1.485   .     S
C1069  H1137   1.082   .     S
C1069  C1076   1.396   .     A
C1069  C1073   1.389   .     A
C1070  C1074   1.426   .     A
C1070  C1078   1.485   .     S
C1071  C1075   1.421   .     A
C1071  C1085   1.488   .     S
C1072  C1092   1.486   .     S
C1072  C1075   1.426   .     A
C1073  C1098   1.487   .     S
C1073  C1074   1.422   .     A
C1077  C980    1.477   1_655 S
C1078  C1080   1.407   .     A
C1078  C1084   1.405   .     A
C1079  Cl1109  1.757   .     S
C1079  N1143   1.378   .     A
C1079  C1106   1.406   .     A
C1080  C1081   1.398   .     A
C1080  H1142   1.083   .     S
C1081  H1116   1.082   .     S
C1081  C1082   1.397   .     A
C1082  H1117   1.082   .     S
C1082  C1083   1.397   .     A
C1083  H1118   1.081   .     S
C1083  C1084   1.399   .     A
C1084  H1119   1.083   .     S
C1085  C1086   1.406   .     A
C1085  C1091   1.408   .     A
C1086  H1120   1.083   .     S
C1086  C1087   1.399   .     A
C1087  C1088   1.397   .     A
C1087  H1121   1.082   .     S
C1088  H1122   1.081   .     S
C1088  C1089   1.396   .     A
C1089  H1123   1.082   .     S
C1089  C1091   1.397   .     A
C1090  C1107   1.405   .     A
C1090  N1144   1.373   .     A
C1090  Cl1110  1.756   .     S
C1091  H1124   1.083   .     S
C1092  C1093   1.408   .     A
C1092  C1097   1.405   .     A
C1093  H1125   1.083   .     S
C1093  C1094   1.398   .     A
C1094  C1095   1.397   .     A
C1094  H1127   1.083   .     S
C1095  H1128   1.082   .     S
C1095  C1096   1.398   .     A
C1096  H1129   1.082   .     S
C1096  C1097   1.398   .     A
C1097  H1130   1.083   .     S
C1098  C1104   1.408   .     A
C1098  C1099   1.408   .     A
C1099  H1131   1.083   .     S
C1099  C1100   1.399   .     A
C1100  H1132   1.082   .     S
C1100  C1102   1.397   .     A
C1101  C1108   1.405   .     A
C1101  N1143   1.378   .     A
C1101  Cl1111  1.755   .     S
C1102  C1103   1.397   .     A
C1102  H1133   1.082   .     S
C1103  C1104   1.399   .     A
C1103  H1134   1.082   .     S
C1104  H1135   1.083   .     S
C1105  N1144   1.373   .     A
C1105  Cl1112  1.756   .     S
C1106  H1138   1.079   .     S
C1107  H1139   1.080   .     S
C1108  H1140   1.080   .     S
Cu1113 O1145   1.966   .     S
Cu1113 O1149   1.926   .     S
Cu1113 O1147   1.971   .     S
Cu1113 N1144   2.022   .     S
Cu1113 Cu1114  2.691   .     S
Cu1113 O1151   1.927   .     S
Cu1114 N1143   2.022   .     S
Cu1114 O1152   1.927   .     S
Cu1114 O1146   1.966   .     S
Cu1114 O1150   1.926   .     S
Cu1114 O1148   1.971   .     S
