data_str_m1_o10_o18_pcu_sym.52
_audit_creation_date              2020-01-03
_audit_creation_method            'Materials Studio'
_symmetry_space_group_name_H-M    'P1'
_symmetry_Int_Tables_number       1
_symmetry_cell_setting            triclinic
loop_
_symmetry_equiv_pos_as_xyz
  x,y,z
_cell_length_a                    32.6673
_cell_length_b                    32.6033
_cell_length_c                    35.7305
_cell_angle_alpha                 98.5978
_cell_angle_beta                  73.2036
_cell_angle_gamma                 98.6256
loop_
_atom_site_label
_atom_site_type_symbol
_atom_site_fract_x
_atom_site_fract_y
_atom_site_fract_z
_atom_site_U_iso_or_equiv
_atom_site_adp_type
_atom_site_occupancy
C1     C     0.05275   0.15991   0.25852   0.00000  Uiso   1.00
C2     C     0.19755   0.13065   0.46028   0.00000  Uiso   1.00
C3     C     0.21112   0.10425   0.48038   0.00000  Uiso   1.00
C4     C     0.28092   0.17357   0.24144   0.00000  Uiso   1.00
C5     C     0.20207   0.11137   0.02165   0.00000  Uiso   1.00
C6     C     0.18384   0.14840   0.04134   0.00000  Uiso   1.00
C7     C     0.21213   0.08351   0.04377   0.00000  Uiso   1.00
C8     C     0.20810   0.09457   0.08396   0.00000  Uiso   1.00
C9     C     0.18840   0.16243   0.07958   0.00000  Uiso   1.00
C10    C     0.32652   0.17784   0.23977   0.00000  Uiso   1.00
C11    C     0.00709   0.15606   0.26238   0.00000  Uiso   1.00
C12    C     0.12703   0.23823   0.41780   0.00000  Uiso   1.00
C13    C     0.17990   0.32207   0.23913   0.00000  Uiso   1.00
C14    C     0.15037   0.01262   0.26258   0.00000  Uiso   1.00
C15    C     0.15624   0.05626   0.25851   0.00000  Uiso   1.00
C16    C     0.17658   0.27758   0.24154   0.00000  Uiso   1.00
C17    C     0.18823   0.14482   0.14411   0.00000  Uiso   1.00
C18    C     0.14567   0.18800   0.35615   0.00000  Uiso   1.00
C19    C     0.13938   0.19897   0.39894   0.00000  Uiso   1.00
C20    C     0.19660   0.13427   0.10164   0.00000  Uiso   1.00
C21    C     0.12182   0.24757   0.45824   0.00000  Uiso   1.00
C22    C     0.18957   0.01536   0.02879   0.00000  Uiso   1.00
C23    C     0.14765   0.17012   0.42086   0.00000  Uiso   1.00
C24    C     0.32376   0.12051   0.31763   0.00000  Uiso   1.00
C25    C     0.22414   0.22778   0.07853   0.00000  Uiso   1.00
C26    C     0.08138   0.17158   0.08887   0.00000  Uiso   1.00
C27    C     0.15090   0.18337   0.45975   0.00000  Uiso   1.00
C28    C     0.13320   0.22032   0.47928   0.00000  Uiso   1.00
C29    C     0.16997   0.16084   0.48027   0.00000  Uiso   1.00
C30    C     0.16341   0.17062   0.02154   0.00000  Uiso   1.00
C31    C     0.13510   0.20108   0.04143   0.00000  Uiso   1.00
C32    C     0.12455   0.22832   0.02004   0.00000  Uiso   1.00
H33    H     0.10654   0.25396   0.03570   0.00000  Uiso   1.00
H34    H     0.32793   0.15117   0.33540   0.00000  Uiso   1.00
H35    H     0.01982   0.10430   0.31043   0.00000  Uiso   1.00
H36    H     0.29705   0.10085   0.33603   0.00000  Uiso   1.00
H37    H     0.08569   0.00326   0.28433   0.00000  Uiso   1.00
H38    H     0.11323   0.01220   0.31867   0.00000  Uiso   1.00
H39    H     0.22832   0.22856   0.04661   0.00000  Uiso   1.00
H40    H     0.25256   0.21629   0.08314   0.00000  Uiso   1.00
H41    H     0.22260   0.26034   0.09287   0.00000  Uiso   1.00
H42    H     0.19017   0.05749   0.12809   0.00000  Uiso   1.00
H43    H     0.24175   0.08041   0.11900   0.00000  Uiso   1.00
H44    H     0.20737   0.00263   0.21763   0.00000  Uiso   1.00
H45    H     0.26389   0.08573   0.43903   0.00000  Uiso   1.00
H46    H     0.21844   0.05248   0.44126   0.00000  Uiso   1.00
H47    H     0.13930   0.29576   0.39981   0.00000  Uiso   1.00
H48    H     0.08717   0.27521   0.40879   0.00000  Uiso   1.00
H49    H     0.17158   0.11720   0.38817   0.00000  Uiso   1.00
H50    H     0.13096   0.10799   0.42983   0.00000  Uiso   1.00
H51    H     0.06465   0.17486   0.12075   0.00000  Uiso   1.00
H52    H     0.09322   0.14031   0.08132   0.00000  Uiso   1.00
H53    H     0.05737   0.17370   0.07275   0.00000  Uiso   1.00
H54    H     0.10966   0.27662   0.47303   0.00000  Uiso   1.00
H55    H     0.20941   0.12724   0.42871   0.00000  Uiso   1.00
H56    H     0.20057   0.31813   0.01455   0.00000  Uiso   1.00
H57    H     0.17158   0.01140   0.05987   0.00000  Uiso   1.00
H58    H     0.16780   0.02355   0.01283   0.00000  Uiso   1.00
H59    H     0.04586   0.19019   0.19428   0.00000  Uiso   1.00
H60    H     0.03680   0.22948   0.23163   0.00000  Uiso   1.00
N61    N     0.02206   0.20648   0.21450   0.00000  Uiso   1.00
N62    N     0.11283   0.32971   0.29105   0.00000  Uiso   1.00
N63    N     0.21781   0.06564   0.10590   0.00000  Uiso   1.00
N64    N     0.23643   0.07191   0.45822   0.00000  Uiso   1.00
N65    N     0.11888   0.26840   0.39628   0.00000  Uiso   1.00
N66    N     0.14252   0.12640   0.40658   0.00000  Uiso   1.00
O67    O     0.16667   0.16667   0.25000   0.00000  Uiso   1.00
O68    O     0.15693   0.12393   0.16625   0.00000  Uiso   1.00
O69    O     0.12687   0.20646   0.33749   0.00000  Uiso   1.00
O70    O     0.21088   0.17493   0.15877   0.00000  Uiso   1.00
O71    O     0.17198   0.16135   0.33749   0.00000  Uiso   1.00
O72    O     0.22598   0.04528   0.02654   0.00000  Uiso   1.00
O73    O     0.31285   0.12495   0.28309   0.00000  Uiso   1.00
O74    O     0.18561   0.20356   0.09584   0.00000  Uiso   1.00
O75    O     0.11563   0.20387   0.08145   0.00000  Uiso   1.00
O76    O     0.17849   0.08101   0.27821   0.00000  Uiso   1.00
O77    O     0.14581   0.26136   0.26767   0.00000  Uiso   1.00
O78    O     0.07452   0.13251   0.23607   0.00000  Uiso   1.00
O79    O     0.26785   0.19179   0.21806   0.00000  Uiso   1.00
O80    O     0.06990   0.18960   0.27820   0.00000  Uiso   1.00
O81    O     0.25440   0.15277   0.26768   0.00000  Uiso   1.00
O82    O     0.13800   0.06903   0.23607   0.00000  Uiso   1.00
O83    O     0.20437   0.25527   0.21806   0.00000  Uiso   1.00
Zn84   Zn    0.19244   0.14090   0.28278   0.00000  Uiso   1.00
Zn85   Zn    0.13459   0.12378   0.22258   0.00000  Uiso   1.00
Zn86   Zn    0.21166   0.19664   0.21188   0.00000  Uiso   1.00
Zn87   Zn    0.12798   0.20535   0.28277   0.00000  Uiso   1.00
C88    C     0.38608   0.15991   0.25852   0.00000  Uiso   1.00
C89    C     0.53089   0.13065   0.46028   0.00000  Uiso   1.00
C90    C     0.54445   0.10425   0.48038   0.00000  Uiso   1.00
C91    C     0.61425   0.17357   0.24144   0.00000  Uiso   1.00
C92    C     0.53540   0.11137   0.02165   0.00000  Uiso   1.00
C93    C     0.51718   0.14840   0.04134   0.00000  Uiso   1.00
C94    C     0.54547   0.08351   0.04377   0.00000  Uiso   1.00
C95    C     0.54143   0.09457   0.08396   0.00000  Uiso   1.00
C96    C     0.52173   0.16243   0.07958   0.00000  Uiso   1.00
C97    C     0.65985   0.17784   0.23977   0.00000  Uiso   1.00
C98    C     0.34042   0.15606   0.26238   0.00000  Uiso   1.00
C99    C     0.46036   0.23823   0.41780   0.00000  Uiso   1.00
C100   C     0.51324   0.32207   0.23913   0.00000  Uiso   1.00
C101   C     0.48370   0.01262   0.26258   0.00000  Uiso   1.00
C102   C     0.48957   0.05626   0.25851   0.00000  Uiso   1.00
C103   C     0.50992   0.27758   0.24154   0.00000  Uiso   1.00
C104   C     0.52156   0.14482   0.14411   0.00000  Uiso   1.00
C105   C     0.47900   0.18800   0.35615   0.00000  Uiso   1.00
C106   C     0.47272   0.19897   0.39894   0.00000  Uiso   1.00
C107   C     0.52993   0.13427   0.10164   0.00000  Uiso   1.00
C108   C     0.45515   0.24757   0.45824   0.00000  Uiso   1.00
C109   C     0.52291   0.01536   0.02879   0.00000  Uiso   1.00
C110   C     0.48098   0.17012   0.42086   0.00000  Uiso   1.00
C111   C     0.65709   0.12051   0.31763   0.00000  Uiso   1.00
C112   C     0.55748   0.22778   0.07853   0.00000  Uiso   1.00
C113   C     0.41471   0.17158   0.08887   0.00000  Uiso   1.00
C114   C     0.48423   0.18337   0.45975   0.00000  Uiso   1.00
C115   C     0.46653   0.22032   0.47928   0.00000  Uiso   1.00
C116   C     0.50330   0.16084   0.48027   0.00000  Uiso   1.00
C117   C     0.49675   0.17062   0.02154   0.00000  Uiso   1.00
C118   C     0.46843   0.20108   0.04143   0.00000  Uiso   1.00
C119   C     0.45789   0.22832   0.02004   0.00000  Uiso   1.00
H120   H     0.43987   0.25396   0.03570   0.00000  Uiso   1.00
H121   H     0.66126   0.15117   0.33540   0.00000  Uiso   1.00
H122   H     0.35315   0.10430   0.31043   0.00000  Uiso   1.00
H123   H     0.63039   0.10085   0.33603   0.00000  Uiso   1.00
H124   H     0.41902   0.00326   0.28433   0.00000  Uiso   1.00
H125   H     0.44656   0.01220   0.31867   0.00000  Uiso   1.00
H126   H     0.56165   0.22856   0.04661   0.00000  Uiso   1.00
H127   H     0.58589   0.21629   0.08314   0.00000  Uiso   1.00
H128   H     0.55593   0.26034   0.09287   0.00000  Uiso   1.00
H129   H     0.52351   0.05749   0.12809   0.00000  Uiso   1.00
H130   H     0.57508   0.08041   0.11900   0.00000  Uiso   1.00
H131   H     0.54070   0.00263   0.21763   0.00000  Uiso   1.00
H132   H     0.59722   0.08573   0.43903   0.00000  Uiso   1.00
H133   H     0.55177   0.05248   0.44126   0.00000  Uiso   1.00
H134   H     0.47264   0.29576   0.39981   0.00000  Uiso   1.00
H135   H     0.42051   0.27521   0.40879   0.00000  Uiso   1.00
H136   H     0.50491   0.11720   0.38817   0.00000  Uiso   1.00
H137   H     0.46429   0.10799   0.42983   0.00000  Uiso   1.00
H138   H     0.39798   0.17486   0.12075   0.00000  Uiso   1.00
H139   H     0.42655   0.14031   0.08132   0.00000  Uiso   1.00
H140   H     0.39071   0.17370   0.07275   0.00000  Uiso   1.00
H141   H     0.44299   0.27662   0.47303   0.00000  Uiso   1.00
H142   H     0.54275   0.12724   0.42871   0.00000  Uiso   1.00
H143   H     0.53390   0.31813   0.01455   0.00000  Uiso   1.00
H144   H     0.50491   0.01140   0.05987   0.00000  Uiso   1.00
H145   H     0.50113   0.02355   0.01283   0.00000  Uiso   1.00
H146   H     0.37919   0.19019   0.19428   0.00000  Uiso   1.00
H147   H     0.37013   0.22948   0.23163   0.00000  Uiso   1.00
N148   N     0.35540   0.20648   0.21450   0.00000  Uiso   1.00
N149   N     0.44617   0.32971   0.29105   0.00000  Uiso   1.00
N150   N     0.55115   0.06564   0.10590   0.00000  Uiso   1.00
N151   N     0.56976   0.07191   0.45822   0.00000  Uiso   1.00
N152   N     0.45221   0.26840   0.39628   0.00000  Uiso   1.00
N153   N     0.47586   0.12640   0.40658   0.00000  Uiso   1.00
O154   O     0.50000   0.16667   0.25000   0.00000  Uiso   1.00
O155   O     0.49027   0.12393   0.16625   0.00000  Uiso   1.00
O156   O     0.46020   0.20646   0.33749   0.00000  Uiso   1.00
O157   O     0.54421   0.17493   0.15877   0.00000  Uiso   1.00
O158   O     0.50532   0.16135   0.33749   0.00000  Uiso   1.00
O159   O     0.55931   0.04528   0.02654   0.00000  Uiso   1.00
O160   O     0.64618   0.12495   0.28309   0.00000  Uiso   1.00
O161   O     0.51894   0.20356   0.09584   0.00000  Uiso   1.00
O162   O     0.44896   0.20387   0.08145   0.00000  Uiso   1.00
O163   O     0.51182   0.08101   0.27821   0.00000  Uiso   1.00
O164   O     0.47914   0.26136   0.26767   0.00000  Uiso   1.00
O165   O     0.40785   0.13251   0.23607   0.00000  Uiso   1.00
O166   O     0.60119   0.19179   0.21806   0.00000  Uiso   1.00
O167   O     0.40323   0.18960   0.27820   0.00000  Uiso   1.00
O168   O     0.58773   0.15277   0.26768   0.00000  Uiso   1.00
O169   O     0.47133   0.06903   0.23607   0.00000  Uiso   1.00
O170   O     0.53771   0.25527   0.21806   0.00000  Uiso   1.00
Zn171  Zn    0.52577   0.14090   0.28278   0.00000  Uiso   1.00
Zn172  Zn    0.46792   0.12378   0.22258   0.00000  Uiso   1.00
Zn173  Zn    0.54500   0.19664   0.21188   0.00000  Uiso   1.00
Zn174  Zn    0.46131   0.20535   0.28277   0.00000  Uiso   1.00
C175   C     0.71942   0.15991   0.25852   0.00000  Uiso   1.00
C176   C     0.86422   0.13065   0.46028   0.00000  Uiso   1.00
C177   C     0.87779   0.10425   0.48038   0.00000  Uiso   1.00
C178   C     0.94758   0.17357   0.24144   0.00000  Uiso   1.00
C179   C     0.86873   0.11137   0.02165   0.00000  Uiso   1.00
C180   C     0.85051   0.14840   0.04134   0.00000  Uiso   1.00
C181   C     0.87880   0.08351   0.04377   0.00000  Uiso   1.00
C182   C     0.87477   0.09457   0.08396   0.00000  Uiso   1.00
C183   C     0.85506   0.16243   0.07958   0.00000  Uiso   1.00
C184   C     0.99319   0.17784   0.23977   0.00000  Uiso   1.00
C185   C     0.67376   0.15606   0.26238   0.00000  Uiso   1.00
C186   C     0.79370   0.23823   0.41780   0.00000  Uiso   1.00
C187   C     0.84657   0.32207   0.23913   0.00000  Uiso   1.00
C188   C     0.81703   0.01262   0.26258   0.00000  Uiso   1.00
C189   C     0.82291   0.05626   0.25851   0.00000  Uiso   1.00
C190   C     0.84325   0.27758   0.24154   0.00000  Uiso   1.00
C191   C     0.85490   0.14482   0.14411   0.00000  Uiso   1.00
C192   C     0.81233   0.18800   0.35615   0.00000  Uiso   1.00
C193   C     0.80605   0.19897   0.39894   0.00000  Uiso   1.00
C194   C     0.86327   0.13427   0.10164   0.00000  Uiso   1.00
C195   C     0.78848   0.24757   0.45824   0.00000  Uiso   1.00
C196   C     0.85624   0.01536   0.02879   0.00000  Uiso   1.00
C197   C     0.81432   0.17012   0.42086   0.00000  Uiso   1.00
C198   C     0.99043   0.12051   0.31763   0.00000  Uiso   1.00
C199   C     0.89081   0.22778   0.07853   0.00000  Uiso   1.00
C200   C     0.74804   0.17158   0.08887   0.00000  Uiso   1.00
C201   C     0.81757   0.18337   0.45975   0.00000  Uiso   1.00
C202   C     0.79986   0.22032   0.47928   0.00000  Uiso   1.00
C203   C     0.83664   0.16084   0.48027   0.00000  Uiso   1.00
C204   C     0.83008   0.17062   0.02154   0.00000  Uiso   1.00
C205   C     0.80177   0.20108   0.04143   0.00000  Uiso   1.00
C206   C     0.79122   0.22832   0.02004   0.00000  Uiso   1.00
H207   H     0.77321   0.25396   0.03570   0.00000  Uiso   1.00
H208   H     0.99460   0.15117   0.33540   0.00000  Uiso   1.00
H209   H     0.68648   0.10430   0.31043   0.00000  Uiso   1.00
H210   H     0.96372   0.10085   0.33603   0.00000  Uiso   1.00
H211   H     0.75235   0.00326   0.28433   0.00000  Uiso   1.00
H212   H     0.77989   0.01220   0.31867   0.00000  Uiso   1.00
H213   H     0.89499   0.22856   0.04661   0.00000  Uiso   1.00
H214   H     0.91923   0.21629   0.08314   0.00000  Uiso   1.00
H215   H     0.88927   0.26034   0.09287   0.00000  Uiso   1.00
H216   H     0.85684   0.05749   0.12809   0.00000  Uiso   1.00
H217   H     0.90841   0.08041   0.11900   0.00000  Uiso   1.00
H218   H     0.87404   0.00263   0.21763   0.00000  Uiso   1.00
H219   H     0.93056   0.08573   0.43903   0.00000  Uiso   1.00
H220   H     0.88511   0.05248   0.44126   0.00000  Uiso   1.00
H221   H     0.80597   0.29576   0.39981   0.00000  Uiso   1.00
H222   H     0.75384   0.27521   0.40879   0.00000  Uiso   1.00
H223   H     0.83824   0.11720   0.38817   0.00000  Uiso   1.00
H224   H     0.79763   0.10799   0.42983   0.00000  Uiso   1.00
H225   H     0.73132   0.17486   0.12075   0.00000  Uiso   1.00
H226   H     0.75988   0.14031   0.08132   0.00000  Uiso   1.00
H227   H     0.72404   0.17370   0.07275   0.00000  Uiso   1.00
H228   H     0.77633   0.27662   0.47303   0.00000  Uiso   1.00
H229   H     0.87608   0.12724   0.42871   0.00000  Uiso   1.00
H230   H     0.86723   0.31813   0.01455   0.00000  Uiso   1.00
H231   H     0.83824   0.01140   0.05987   0.00000  Uiso   1.00
H232   H     0.83446   0.02355   0.01283   0.00000  Uiso   1.00
H233   H     0.71252   0.19019   0.19428   0.00000  Uiso   1.00
H234   H     0.70346   0.22948   0.23163   0.00000  Uiso   1.00
N235   N     0.68873   0.20648   0.21450   0.00000  Uiso   1.00
N236   N     0.77950   0.32971   0.29105   0.00000  Uiso   1.00
N237   N     0.88448   0.06564   0.10590   0.00000  Uiso   1.00
N238   N     0.90310   0.07191   0.45822   0.00000  Uiso   1.00
N239   N     0.78554   0.26840   0.39628   0.00000  Uiso   1.00
N240   N     0.80919   0.12640   0.40658   0.00000  Uiso   1.00
O241   O     0.83333   0.16667   0.25000   0.00000  Uiso   1.00
O242   O     0.82360   0.12393   0.16625   0.00000  Uiso   1.00
O243   O     0.79354   0.20646   0.33749   0.00000  Uiso   1.00
O244   O     0.87755   0.17493   0.15877   0.00000  Uiso   1.00
O245   O     0.83865   0.16135   0.33749   0.00000  Uiso   1.00
O246   O     0.89264   0.04528   0.02654   0.00000  Uiso   1.00
O247   O     0.97951   0.12495   0.28309   0.00000  Uiso   1.00
O248   O     0.85227   0.20356   0.09584   0.00000  Uiso   1.00
O249   O     0.78229   0.20387   0.08145   0.00000  Uiso   1.00
O250   O     0.84515   0.08101   0.27821   0.00000  Uiso   1.00
O251   O     0.81247   0.26136   0.26767   0.00000  Uiso   1.00
O252   O     0.74119   0.13251   0.23607   0.00000  Uiso   1.00
O253   O     0.93452   0.19179   0.21806   0.00000  Uiso   1.00
O254   O     0.73656   0.18960   0.27820   0.00000  Uiso   1.00
O255   O     0.92106   0.15277   0.26768   0.00000  Uiso   1.00
O256   O     0.80467   0.06903   0.23607   0.00000  Uiso   1.00
O257   O     0.87104   0.25527   0.21806   0.00000  Uiso   1.00
Zn258  Zn    0.85910   0.14090   0.28278   0.00000  Uiso   1.00
Zn259  Zn    0.80125   0.12378   0.22258   0.00000  Uiso   1.00
Zn260  Zn    0.87833   0.19664   0.21188   0.00000  Uiso   1.00
Zn261  Zn    0.79465   0.20535   0.28277   0.00000  Uiso   1.00
C262   C     0.05275   0.49324   0.25852   0.00000  Uiso   1.00
C263   C     0.19755   0.46399   0.46028   0.00000  Uiso   1.00
C264   C     0.21112   0.43758   0.48038   0.00000  Uiso   1.00
C265   C     0.28092   0.50690   0.24144   0.00000  Uiso   1.00
C266   C     0.20207   0.44470   0.02165   0.00000  Uiso   1.00
C267   C     0.18384   0.48174   0.04134   0.00000  Uiso   1.00
C268   C     0.21213   0.41685   0.04377   0.00000  Uiso   1.00
C269   C     0.20810   0.42790   0.08396   0.00000  Uiso   1.00
C270   C     0.18840   0.49576   0.07958   0.00000  Uiso   1.00
C271   C     0.32652   0.51117   0.23977   0.00000  Uiso   1.00
C272   C     0.00709   0.48940   0.26238   0.00000  Uiso   1.00
C273   C     0.12703   0.57156   0.41780   0.00000  Uiso   1.00
C274   C     0.17990   0.65541   0.23913   0.00000  Uiso   1.00
C275   C     0.15037   0.34595   0.26258   0.00000  Uiso   1.00
C276   C     0.15624   0.38960   0.25851   0.00000  Uiso   1.00
C277   C     0.17658   0.61091   0.24154   0.00000  Uiso   1.00
C278   C     0.18823   0.47815   0.14411   0.00000  Uiso   1.00
C279   C     0.14567   0.52133   0.35615   0.00000  Uiso   1.00
C280   C     0.13938   0.53230   0.39894   0.00000  Uiso   1.00
C281   C     0.19660   0.46760   0.10164   0.00000  Uiso   1.00
C282   C     0.12182   0.58090   0.45824   0.00000  Uiso   1.00
C283   C     0.18957   0.34869   0.02879   0.00000  Uiso   1.00
C284   C     0.14765   0.50346   0.42086   0.00000  Uiso   1.00
C285   C     0.32376   0.45384   0.31763   0.00000  Uiso   1.00
C286   C     0.22414   0.56112   0.07853   0.00000  Uiso   1.00
C287   C     0.08138   0.50492   0.08887   0.00000  Uiso   1.00
C288   C     0.15090   0.51670   0.45975   0.00000  Uiso   1.00
C289   C     0.13320   0.55366   0.47928   0.00000  Uiso   1.00
C290   C     0.16997   0.49417   0.48027   0.00000  Uiso   1.00
C291   C     0.16341   0.50396   0.02154   0.00000  Uiso   1.00
C292   C     0.13510   0.53441   0.04143   0.00000  Uiso   1.00
C293   C     0.12455   0.56165   0.02004   0.00000  Uiso   1.00
H294   H     0.10654   0.58729   0.03570   0.00000  Uiso   1.00
H295   H     0.32793   0.48450   0.33540   0.00000  Uiso   1.00
H296   H     0.01982   0.43763   0.31043   0.00000  Uiso   1.00
H297   H     0.29705   0.43419   0.33603   0.00000  Uiso   1.00
H298   H     0.08569   0.33659   0.28433   0.00000  Uiso   1.00
H299   H     0.11323   0.34553   0.31867   0.00000  Uiso   1.00
H300   H     0.22832   0.56190   0.04661   0.00000  Uiso   1.00
H301   H     0.25256   0.54962   0.08314   0.00000  Uiso   1.00
H302   H     0.22260   0.59367   0.09287   0.00000  Uiso   1.00
H303   H     0.19017   0.39082   0.12809   0.00000  Uiso   1.00
H304   H     0.24175   0.41375   0.11900   0.00000  Uiso   1.00
H305   H     0.20737   0.33596   0.21763   0.00000  Uiso   1.00
H306   H     0.26389   0.41906   0.43903   0.00000  Uiso   1.00
H307   H     0.21844   0.38581   0.44126   0.00000  Uiso   1.00
H308   H     0.13930   0.62910   0.39981   0.00000  Uiso   1.00
H309   H     0.08717   0.60855   0.40879   0.00000  Uiso   1.00
H310   H     0.17158   0.45054   0.38817   0.00000  Uiso   1.00
H311   H     0.13096   0.44132   0.42983   0.00000  Uiso   1.00
H312   H     0.06465   0.50820   0.12075   0.00000  Uiso   1.00
H313   H     0.09322   0.47364   0.08132   0.00000  Uiso   1.00
H314   H     0.05737   0.50704   0.07275   0.00000  Uiso   1.00
H315   H     0.10966   0.60996   0.47303   0.00000  Uiso   1.00
H316   H     0.20941   0.46057   0.42871   0.00000  Uiso   1.00
H317   H     0.20057   0.65146   0.01455   0.00000  Uiso   1.00
H318   H     0.17158   0.34473   0.05987   0.00000  Uiso   1.00
H319   H     0.16780   0.35688   0.01283   0.00000  Uiso   1.00
H320   H     0.04586   0.52352   0.19428   0.00000  Uiso   1.00
H321   H     0.03680   0.56281   0.23163   0.00000  Uiso   1.00
N322   N     0.02206   0.53981   0.21450   0.00000  Uiso   1.00
N323   N     0.11283   0.66304   0.29105   0.00000  Uiso   1.00
N324   N     0.21781   0.39898   0.10590   0.00000  Uiso   1.00
N325   N     0.23643   0.40525   0.45822   0.00000  Uiso   1.00
N326   N     0.11888   0.60173   0.39628   0.00000  Uiso   1.00
N327   N     0.14252   0.45974   0.40658   0.00000  Uiso   1.00
O328   O     0.16667   0.50000   0.25000   0.00000  Uiso   1.00
O329   O     0.15693   0.45726   0.16625   0.00000  Uiso   1.00
O330   O     0.12687   0.53979   0.33749   0.00000  Uiso   1.00
O331   O     0.21088   0.50826   0.15877   0.00000  Uiso   1.00
O332   O     0.17198   0.49468   0.33749   0.00000  Uiso   1.00
O333   O     0.22598   0.37862   0.02654   0.00000  Uiso   1.00
O334   O     0.31285   0.45828   0.28309   0.00000  Uiso   1.00
O335   O     0.18561   0.53689   0.09584   0.00000  Uiso   1.00
O336   O     0.11563   0.53721   0.08145   0.00000  Uiso   1.00
O337   O     0.17849   0.41434   0.27821   0.00000  Uiso   1.00
O338   O     0.14581   0.59469   0.26767   0.00000  Uiso   1.00
O339   O     0.07452   0.46584   0.23607   0.00000  Uiso   1.00
O340   O     0.26785   0.52512   0.21806   0.00000  Uiso   1.00
O341   O     0.06990   0.52293   0.27820   0.00000  Uiso   1.00
O342   O     0.25440   0.48610   0.26768   0.00000  Uiso   1.00
O343   O     0.13800   0.40236   0.23607   0.00000  Uiso   1.00
O344   O     0.20437   0.58860   0.21806   0.00000  Uiso   1.00
Zn345  Zn    0.19244   0.47423   0.28278   0.00000  Uiso   1.00
Zn346  Zn    0.13459   0.45711   0.22258   0.00000  Uiso   1.00
Zn347  Zn    0.21166   0.52997   0.21188   0.00000  Uiso   1.00
Zn348  Zn    0.12798   0.53868   0.28277   0.00000  Uiso   1.00
C349   C     0.38608   0.49324   0.25852   0.00000  Uiso   1.00
C350   C     0.53089   0.46399   0.46028   0.00000  Uiso   1.00
C351   C     0.54445   0.43758   0.48038   0.00000  Uiso   1.00
C352   C     0.61425   0.50690   0.24144   0.00000  Uiso   1.00
C353   C     0.53540   0.44470   0.02165   0.00000  Uiso   1.00
C354   C     0.51718   0.48174   0.04134   0.00000  Uiso   1.00
C355   C     0.54547   0.41685   0.04377   0.00000  Uiso   1.00
C356   C     0.54143   0.42790   0.08396   0.00000  Uiso   1.00
C357   C     0.52173   0.49576   0.07958   0.00000  Uiso   1.00
C358   C     0.65985   0.51117   0.23977   0.00000  Uiso   1.00
C359   C     0.34042   0.48940   0.26238   0.00000  Uiso   1.00
C360   C     0.46036   0.57156   0.41780   0.00000  Uiso   1.00
C361   C     0.51324   0.65541   0.23913   0.00000  Uiso   1.00
C362   C     0.48370   0.34595   0.26258   0.00000  Uiso   1.00
C363   C     0.48957   0.38960   0.25851   0.00000  Uiso   1.00
C364   C     0.50992   0.61091   0.24154   0.00000  Uiso   1.00
C365   C     0.52156   0.47815   0.14411   0.00000  Uiso   1.00
C366   C     0.47900   0.52133   0.35615   0.00000  Uiso   1.00
C367   C     0.47272   0.53230   0.39894   0.00000  Uiso   1.00
C368   C     0.52993   0.46760   0.10164   0.00000  Uiso   1.00
C369   C     0.45515   0.58090   0.45824   0.00000  Uiso   1.00
C370   C     0.52291   0.34869   0.02879   0.00000  Uiso   1.00
C371   C     0.48098   0.50346   0.42086   0.00000  Uiso   1.00
C372   C     0.65709   0.45384   0.31763   0.00000  Uiso   1.00
C373   C     0.55748   0.56112   0.07853   0.00000  Uiso   1.00
C374   C     0.41471   0.50492   0.08887   0.00000  Uiso   1.00
C375   C     0.48423   0.51670   0.45975   0.00000  Uiso   1.00
C376   C     0.46653   0.55366   0.47928   0.00000  Uiso   1.00
C377   C     0.50330   0.49417   0.48027   0.00000  Uiso   1.00
C378   C     0.49675   0.50396   0.02154   0.00000  Uiso   1.00
C379   C     0.46843   0.53441   0.04143   0.00000  Uiso   1.00
C380   C     0.45789   0.56165   0.02004   0.00000  Uiso   1.00
H381   H     0.43987   0.58729   0.03570   0.00000  Uiso   1.00
H382   H     0.66126   0.48450   0.33540   0.00000  Uiso   1.00
H383   H     0.35315   0.43763   0.31043   0.00000  Uiso   1.00
H384   H     0.63039   0.43419   0.33603   0.00000  Uiso   1.00
H385   H     0.41902   0.33659   0.28433   0.00000  Uiso   1.00
H386   H     0.44656   0.34553   0.31867   0.00000  Uiso   1.00
H387   H     0.56165   0.56190   0.04661   0.00000  Uiso   1.00
H388   H     0.58589   0.54962   0.08314   0.00000  Uiso   1.00
H389   H     0.55593   0.59367   0.09287   0.00000  Uiso   1.00
H390   H     0.52351   0.39082   0.12809   0.00000  Uiso   1.00
H391   H     0.57508   0.41375   0.11900   0.00000  Uiso   1.00
H392   H     0.54070   0.33596   0.21763   0.00000  Uiso   1.00
H393   H     0.59722   0.41906   0.43903   0.00000  Uiso   1.00
H394   H     0.55177   0.38581   0.44126   0.00000  Uiso   1.00
H395   H     0.47264   0.62910   0.39981   0.00000  Uiso   1.00
H396   H     0.42051   0.60855   0.40879   0.00000  Uiso   1.00
H397   H     0.50491   0.45054   0.38817   0.00000  Uiso   1.00
H398   H     0.46429   0.44132   0.42983   0.00000  Uiso   1.00
H399   H     0.39798   0.50820   0.12075   0.00000  Uiso   1.00
H400   H     0.42655   0.47364   0.08132   0.00000  Uiso   1.00
H401   H     0.39071   0.50704   0.07275   0.00000  Uiso   1.00
H402   H     0.44299   0.60996   0.47303   0.00000  Uiso   1.00
H403   H     0.54275   0.46057   0.42871   0.00000  Uiso   1.00
H404   H     0.53390   0.65146   0.01455   0.00000  Uiso   1.00
H405   H     0.50491   0.34473   0.05987   0.00000  Uiso   1.00
H406   H     0.50113   0.35688   0.01283   0.00000  Uiso   1.00
H407   H     0.37919   0.52352   0.19428   0.00000  Uiso   1.00
H408   H     0.37013   0.56281   0.23163   0.00000  Uiso   1.00
N409   N     0.35540   0.53981   0.21450   0.00000  Uiso   1.00
N410   N     0.44617   0.66304   0.29105   0.00000  Uiso   1.00
N411   N     0.55115   0.39898   0.10590   0.00000  Uiso   1.00
N412   N     0.56976   0.40525   0.45822   0.00000  Uiso   1.00
N413   N     0.45221   0.60173   0.39628   0.00000  Uiso   1.00
N414   N     0.47586   0.45974   0.40658   0.00000  Uiso   1.00
O415   O     0.50000   0.50000   0.25000   0.00000  Uiso   1.00
O416   O     0.49027   0.45726   0.16625   0.00000  Uiso   1.00
O417   O     0.46020   0.53979   0.33749   0.00000  Uiso   1.00
O418   O     0.54421   0.50826   0.15877   0.00000  Uiso   1.00
O419   O     0.50532   0.49468   0.33749   0.00000  Uiso   1.00
O420   O     0.55931   0.37862   0.02654   0.00000  Uiso   1.00
O421   O     0.64618   0.45828   0.28309   0.00000  Uiso   1.00
O422   O     0.51894   0.53689   0.09584   0.00000  Uiso   1.00
O423   O     0.44896   0.53721   0.08145   0.00000  Uiso   1.00
O424   O     0.51182   0.41434   0.27821   0.00000  Uiso   1.00
O425   O     0.47914   0.59469   0.26767   0.00000  Uiso   1.00
O426   O     0.40785   0.46584   0.23607   0.00000  Uiso   1.00
O427   O     0.60119   0.52512   0.21806   0.00000  Uiso   1.00
O428   O     0.40323   0.52293   0.27820   0.00000  Uiso   1.00
O429   O     0.58773   0.48610   0.26768   0.00000  Uiso   1.00
O430   O     0.47133   0.40236   0.23607   0.00000  Uiso   1.00
O431   O     0.53771   0.58860   0.21806   0.00000  Uiso   1.00
Zn432  Zn    0.52577   0.47423   0.28278   0.00000  Uiso   1.00
Zn433  Zn    0.46792   0.45711   0.22258   0.00000  Uiso   1.00
Zn434  Zn    0.54500   0.52997   0.21188   0.00000  Uiso   1.00
Zn435  Zn    0.46131   0.53868   0.28277   0.00000  Uiso   1.00
C436   C     0.71942   0.49324   0.25852   0.00000  Uiso   1.00
C437   C     0.86422   0.46399   0.46028   0.00000  Uiso   1.00
C438   C     0.87779   0.43758   0.48038   0.00000  Uiso   1.00
C439   C     0.94758   0.50690   0.24144   0.00000  Uiso   1.00
C440   C     0.86873   0.44470   0.02165   0.00000  Uiso   1.00
C441   C     0.85051   0.48174   0.04134   0.00000  Uiso   1.00
C442   C     0.87880   0.41685   0.04377   0.00000  Uiso   1.00
C443   C     0.87477   0.42790   0.08396   0.00000  Uiso   1.00
C444   C     0.85506   0.49576   0.07958   0.00000  Uiso   1.00
C445   C     0.99319   0.51117   0.23977   0.00000  Uiso   1.00
C446   C     0.67376   0.48940   0.26238   0.00000  Uiso   1.00
C447   C     0.79370   0.57156   0.41780   0.00000  Uiso   1.00
C448   C     0.84657   0.65541   0.23913   0.00000  Uiso   1.00
C449   C     0.81703   0.34595   0.26258   0.00000  Uiso   1.00
C450   C     0.82291   0.38960   0.25851   0.00000  Uiso   1.00
C451   C     0.84325   0.61091   0.24154   0.00000  Uiso   1.00
C452   C     0.85490   0.47815   0.14411   0.00000  Uiso   1.00
C453   C     0.81233   0.52133   0.35615   0.00000  Uiso   1.00
C454   C     0.80605   0.53230   0.39894   0.00000  Uiso   1.00
C455   C     0.86327   0.46760   0.10164   0.00000  Uiso   1.00
C456   C     0.78848   0.58090   0.45824   0.00000  Uiso   1.00
C457   C     0.85624   0.34869   0.02879   0.00000  Uiso   1.00
C458   C     0.81432   0.50346   0.42086   0.00000  Uiso   1.00
C459   C     0.99043   0.45384   0.31763   0.00000  Uiso   1.00
C460   C     0.89081   0.56112   0.07853   0.00000  Uiso   1.00
C461   C     0.74804   0.50492   0.08887   0.00000  Uiso   1.00
C462   C     0.81757   0.51670   0.45975   0.00000  Uiso   1.00
C463   C     0.79986   0.55366   0.47928   0.00000  Uiso   1.00
C464   C     0.83664   0.49417   0.48027   0.00000  Uiso   1.00
C465   C     0.83008   0.50396   0.02154   0.00000  Uiso   1.00
C466   C     0.80177   0.53441   0.04143   0.00000  Uiso   1.00
C467   C     0.79122   0.56165   0.02004   0.00000  Uiso   1.00
H468   H     0.77321   0.58729   0.03570   0.00000  Uiso   1.00
H469   H     0.99460   0.48450   0.33540   0.00000  Uiso   1.00
H470   H     0.68648   0.43763   0.31043   0.00000  Uiso   1.00
H471   H     0.96372   0.43419   0.33603   0.00000  Uiso   1.00
H472   H     0.75235   0.33659   0.28433   0.00000  Uiso   1.00
H473   H     0.77989   0.34553   0.31867   0.00000  Uiso   1.00
H474   H     0.89499   0.56190   0.04661   0.00000  Uiso   1.00
H475   H     0.91923   0.54962   0.08314   0.00000  Uiso   1.00
H476   H     0.88927   0.59367   0.09287   0.00000  Uiso   1.00
H477   H     0.85684   0.39082   0.12809   0.00000  Uiso   1.00
H478   H     0.90841   0.41375   0.11900   0.00000  Uiso   1.00
H479   H     0.87404   0.33596   0.21763   0.00000  Uiso   1.00
H480   H     0.93056   0.41906   0.43903   0.00000  Uiso   1.00
H481   H     0.88511   0.38581   0.44126   0.00000  Uiso   1.00
H482   H     0.80597   0.62910   0.39981   0.00000  Uiso   1.00
H483   H     0.75384   0.60855   0.40879   0.00000  Uiso   1.00
H484   H     0.83824   0.45054   0.38817   0.00000  Uiso   1.00
H485   H     0.79763   0.44132   0.42983   0.00000  Uiso   1.00
H486   H     0.73132   0.50820   0.12075   0.00000  Uiso   1.00
H487   H     0.75988   0.47364   0.08132   0.00000  Uiso   1.00
H488   H     0.72404   0.50704   0.07275   0.00000  Uiso   1.00
H489   H     0.77633   0.60996   0.47303   0.00000  Uiso   1.00
H490   H     0.87608   0.46057   0.42871   0.00000  Uiso   1.00
H491   H     0.86723   0.65146   0.01455   0.00000  Uiso   1.00
H492   H     0.83824   0.34473   0.05987   0.00000  Uiso   1.00
H493   H     0.83446   0.35688   0.01283   0.00000  Uiso   1.00
H494   H     0.71252   0.52352   0.19428   0.00000  Uiso   1.00
H495   H     0.70346   0.56281   0.23163   0.00000  Uiso   1.00
N496   N     0.68873   0.53981   0.21450   0.00000  Uiso   1.00
N497   N     0.77950   0.66304   0.29105   0.00000  Uiso   1.00
N498   N     0.88448   0.39898   0.10590   0.00000  Uiso   1.00
N499   N     0.90310   0.40525   0.45822   0.00000  Uiso   1.00
N500   N     0.78554   0.60173   0.39628   0.00000  Uiso   1.00
N501   N     0.80919   0.45974   0.40658   0.00000  Uiso   1.00
O502   O     0.83333   0.50000   0.25000   0.00000  Uiso   1.00
O503   O     0.82360   0.45726   0.16625   0.00000  Uiso   1.00
O504   O     0.79354   0.53979   0.33749   0.00000  Uiso   1.00
O505   O     0.87755   0.50826   0.15877   0.00000  Uiso   1.00
O506   O     0.83865   0.49468   0.33749   0.00000  Uiso   1.00
O507   O     0.89264   0.37862   0.02654   0.00000  Uiso   1.00
O508   O     0.97951   0.45828   0.28309   0.00000  Uiso   1.00
O509   O     0.85227   0.53689   0.09584   0.00000  Uiso   1.00
O510   O     0.78229   0.53721   0.08145   0.00000  Uiso   1.00
O511   O     0.84515   0.41434   0.27821   0.00000  Uiso   1.00
O512   O     0.81247   0.59469   0.26767   0.00000  Uiso   1.00
O513   O     0.74119   0.46584   0.23607   0.00000  Uiso   1.00
O514   O     0.93452   0.52512   0.21806   0.00000  Uiso   1.00
O515   O     0.73656   0.52293   0.27820   0.00000  Uiso   1.00
O516   O     0.92106   0.48610   0.26768   0.00000  Uiso   1.00
O517   O     0.80467   0.40236   0.23607   0.00000  Uiso   1.00
O518   O     0.87104   0.58860   0.21806   0.00000  Uiso   1.00
Zn519  Zn    0.85910   0.47423   0.28278   0.00000  Uiso   1.00
Zn520  Zn    0.80125   0.45711   0.22258   0.00000  Uiso   1.00
Zn521  Zn    0.87833   0.52997   0.21188   0.00000  Uiso   1.00
Zn522  Zn    0.79465   0.53868   0.28277   0.00000  Uiso   1.00
C523   C     0.05275   0.82657   0.25852   0.00000  Uiso   1.00
C524   C     0.19755   0.79732   0.46028   0.00000  Uiso   1.00
C525   C     0.21112   0.77092   0.48038   0.00000  Uiso   1.00
C526   C     0.28092   0.84023   0.24144   0.00000  Uiso   1.00
C527   C     0.20207   0.77803   0.02165   0.00000  Uiso   1.00
C528   C     0.18384   0.81507   0.04134   0.00000  Uiso   1.00
C529   C     0.21213   0.75018   0.04377   0.00000  Uiso   1.00
C530   C     0.20810   0.76124   0.08396   0.00000  Uiso   1.00
C531   C     0.18840   0.82909   0.07958   0.00000  Uiso   1.00
C532   C     0.32652   0.84450   0.23977   0.00000  Uiso   1.00
C533   C     0.00709   0.82273   0.26238   0.00000  Uiso   1.00
C534   C     0.12703   0.90489   0.41780   0.00000  Uiso   1.00
C535   C     0.17990   0.98874   0.23913   0.00000  Uiso   1.00
C536   C     0.15037   0.67928   0.26258   0.00000  Uiso   1.00
C537   C     0.15624   0.72293   0.25851   0.00000  Uiso   1.00
C538   C     0.17658   0.94424   0.24154   0.00000  Uiso   1.00
C539   C     0.18823   0.81148   0.14411   0.00000  Uiso   1.00
C540   C     0.14567   0.85467   0.35615   0.00000  Uiso   1.00
C541   C     0.13938   0.86563   0.39894   0.00000  Uiso   1.00
C542   C     0.19660   0.80093   0.10164   0.00000  Uiso   1.00
C543   C     0.12182   0.91423   0.45824   0.00000  Uiso   1.00
C544   C     0.18957   0.68202   0.02879   0.00000  Uiso   1.00
C545   C     0.14765   0.83679   0.42086   0.00000  Uiso   1.00
C546   C     0.32376   0.78717   0.31763   0.00000  Uiso   1.00
C547   C     0.22414   0.89445   0.07853   0.00000  Uiso   1.00
C548   C     0.08138   0.83825   0.08887   0.00000  Uiso   1.00
C549   C     0.15090   0.85004   0.45975   0.00000  Uiso   1.00
C550   C     0.13320   0.88699   0.47928   0.00000  Uiso   1.00
C551   C     0.16997   0.82751   0.48027   0.00000  Uiso   1.00
C552   C     0.16341   0.83729   0.02154   0.00000  Uiso   1.00
C553   C     0.13510   0.86774   0.04143   0.00000  Uiso   1.00
C554   C     0.12455   0.89498   0.02004   0.00000  Uiso   1.00
H555   H     0.10654   0.92063   0.03570   0.00000  Uiso   1.00
H556   H     0.32793   0.81784   0.33540   0.00000  Uiso   1.00
H557   H     0.01982   0.77096   0.31043   0.00000  Uiso   1.00
H558   H     0.29705   0.76752   0.33603   0.00000  Uiso   1.00
H559   H     0.08569   0.66992   0.28433   0.00000  Uiso   1.00
H560   H     0.11323   0.67886   0.31867   0.00000  Uiso   1.00
H561   H     0.22832   0.89523   0.04661   0.00000  Uiso   1.00
H562   H     0.25256   0.88295   0.08314   0.00000  Uiso   1.00
H563   H     0.22260   0.92701   0.09287   0.00000  Uiso   1.00
H564   H     0.19017   0.72416   0.12809   0.00000  Uiso   1.00
H565   H     0.24175   0.74708   0.11900   0.00000  Uiso   1.00
H566   H     0.20737   0.66930   0.21763   0.00000  Uiso   1.00
H567   H     0.26389   0.75240   0.43903   0.00000  Uiso   1.00
H568   H     0.21844   0.71914   0.44126   0.00000  Uiso   1.00
H569   H     0.13930   0.96243   0.39981   0.00000  Uiso   1.00
H570   H     0.08717   0.94188   0.40879   0.00000  Uiso   1.00
H571   H     0.17158   0.78387   0.38817   0.00000  Uiso   1.00
H572   H     0.13096   0.77466   0.42983   0.00000  Uiso   1.00
H573   H     0.06465   0.84153   0.12075   0.00000  Uiso   1.00
H574   H     0.09322   0.80697   0.08132   0.00000  Uiso   1.00
H575   H     0.05737   0.84037   0.07275   0.00000  Uiso   1.00
H576   H     0.10966   0.94329   0.47303   0.00000  Uiso   1.00
H577   H     0.20941   0.79390   0.42871   0.00000  Uiso   1.00
H578   H     0.20057   0.98479   0.01455   0.00000  Uiso   1.00
H579   H     0.17158   0.67806   0.05987   0.00000  Uiso   1.00
H580   H     0.16780   0.69021   0.01283   0.00000  Uiso   1.00
H581   H     0.04586   0.85685   0.19428   0.00000  Uiso   1.00
H582   H     0.03680   0.89615   0.23163   0.00000  Uiso   1.00
N583   N     0.02206   0.87315   0.21450   0.00000  Uiso   1.00
N584   N     0.11283   0.99637   0.29105   0.00000  Uiso   1.00
N585   N     0.21781   0.73231   0.10590   0.00000  Uiso   1.00
N586   N     0.23643   0.73858   0.45822   0.00000  Uiso   1.00
N587   N     0.11888   0.93507   0.39628   0.00000  Uiso   1.00
N588   N     0.14252   0.79307   0.40658   0.00000  Uiso   1.00
O589   O     0.16667   0.83333   0.25000   0.00000  Uiso   1.00
O590   O     0.15693   0.79060   0.16625   0.00000  Uiso   1.00
O591   O     0.12687   0.87313   0.33749   0.00000  Uiso   1.00
O592   O     0.21088   0.84159   0.15877   0.00000  Uiso   1.00
O593   O     0.17198   0.82802   0.33749   0.00000  Uiso   1.00
O594   O     0.22598   0.71195   0.02654   0.00000  Uiso   1.00
O595   O     0.31285   0.79162   0.28309   0.00000  Uiso   1.00
O596   O     0.18561   0.87022   0.09584   0.00000  Uiso   1.00
O597   O     0.11563   0.87054   0.08145   0.00000  Uiso   1.00
O598   O     0.17849   0.74768   0.27821   0.00000  Uiso   1.00
O599   O     0.14581   0.92803   0.26767   0.00000  Uiso   1.00
O600   O     0.07452   0.79917   0.23607   0.00000  Uiso   1.00
O601   O     0.26785   0.85845   0.21806   0.00000  Uiso   1.00
O602   O     0.06990   0.85627   0.27820   0.00000  Uiso   1.00
O603   O     0.25440   0.81944   0.26768   0.00000  Uiso   1.00
O604   O     0.13800   0.73570   0.23607   0.00000  Uiso   1.00
O605   O     0.20437   0.92193   0.21806   0.00000  Uiso   1.00
Zn606  Zn    0.19244   0.80756   0.28278   0.00000  Uiso   1.00
Zn607  Zn    0.13459   0.79044   0.22258   0.00000  Uiso   1.00
Zn608  Zn    0.21166   0.86331   0.21188   0.00000  Uiso   1.00
Zn609  Zn    0.12798   0.87202   0.28277   0.00000  Uiso   1.00
C610   C     0.38608   0.82657   0.25852   0.00000  Uiso   1.00
C611   C     0.53089   0.79732   0.46028   0.00000  Uiso   1.00
C612   C     0.54445   0.77092   0.48038   0.00000  Uiso   1.00
C613   C     0.61425   0.84023   0.24144   0.00000  Uiso   1.00
C614   C     0.53540   0.77803   0.02165   0.00000  Uiso   1.00
C615   C     0.51718   0.81507   0.04134   0.00000  Uiso   1.00
C616   C     0.54547   0.75018   0.04377   0.00000  Uiso   1.00
C617   C     0.54143   0.76124   0.08396   0.00000  Uiso   1.00
C618   C     0.52173   0.82909   0.07958   0.00000  Uiso   1.00
C619   C     0.65985   0.84450   0.23977   0.00000  Uiso   1.00
C620   C     0.34042   0.82273   0.26238   0.00000  Uiso   1.00
C621   C     0.46036   0.90489   0.41780   0.00000  Uiso   1.00
C622   C     0.51324   0.98874   0.23913   0.00000  Uiso   1.00
C623   C     0.48370   0.67928   0.26258   0.00000  Uiso   1.00
C624   C     0.48957   0.72293   0.25851   0.00000  Uiso   1.00
C625   C     0.50992   0.94424   0.24154   0.00000  Uiso   1.00
C626   C     0.52156   0.81148   0.14411   0.00000  Uiso   1.00
C627   C     0.47900   0.85467   0.35615   0.00000  Uiso   1.00
C628   C     0.47272   0.86563   0.39894   0.00000  Uiso   1.00
C629   C     0.52993   0.80093   0.10164   0.00000  Uiso   1.00
C630   C     0.45515   0.91423   0.45824   0.00000  Uiso   1.00
C631   C     0.52291   0.68202   0.02879   0.00000  Uiso   1.00
C632   C     0.48098   0.83679   0.42086   0.00000  Uiso   1.00
C633   C     0.65709   0.78717   0.31763   0.00000  Uiso   1.00
C634   C     0.55748   0.89445   0.07853   0.00000  Uiso   1.00
C635   C     0.41471   0.83825   0.08887   0.00000  Uiso   1.00
C636   C     0.48423   0.85004   0.45975   0.00000  Uiso   1.00
C637   C     0.46653   0.88699   0.47928   0.00000  Uiso   1.00
C638   C     0.50330   0.82751   0.48027   0.00000  Uiso   1.00
C639   C     0.49675   0.83729   0.02154   0.00000  Uiso   1.00
C640   C     0.46843   0.86774   0.04143   0.00000  Uiso   1.00
C641   C     0.45789   0.89498   0.02004   0.00000  Uiso   1.00
H642   H     0.43987   0.92063   0.03570   0.00000  Uiso   1.00
H643   H     0.66126   0.81784   0.33540   0.00000  Uiso   1.00
H644   H     0.35315   0.77096   0.31043   0.00000  Uiso   1.00
H645   H     0.63039   0.76752   0.33603   0.00000  Uiso   1.00
H646   H     0.41902   0.66992   0.28433   0.00000  Uiso   1.00
H647   H     0.44656   0.67886   0.31867   0.00000  Uiso   1.00
H648   H     0.56165   0.89523   0.04661   0.00000  Uiso   1.00
H649   H     0.58589   0.88295   0.08314   0.00000  Uiso   1.00
H650   H     0.55593   0.92701   0.09287   0.00000  Uiso   1.00
H651   H     0.52351   0.72416   0.12809   0.00000  Uiso   1.00
H652   H     0.57508   0.74708   0.11900   0.00000  Uiso   1.00
H653   H     0.54070   0.66930   0.21763   0.00000  Uiso   1.00
H654   H     0.59722   0.75240   0.43903   0.00000  Uiso   1.00
H655   H     0.55177   0.71914   0.44126   0.00000  Uiso   1.00
H656   H     0.47264   0.96243   0.39981   0.00000  Uiso   1.00
H657   H     0.42051   0.94188   0.40879   0.00000  Uiso   1.00
H658   H     0.50491   0.78387   0.38817   0.00000  Uiso   1.00
H659   H     0.46429   0.77466   0.42983   0.00000  Uiso   1.00
H660   H     0.39798   0.84153   0.12075   0.00000  Uiso   1.00
H661   H     0.42655   0.80697   0.08132   0.00000  Uiso   1.00
H662   H     0.39071   0.84037   0.07275   0.00000  Uiso   1.00
H663   H     0.44299   0.94329   0.47303   0.00000  Uiso   1.00
H664   H     0.54275   0.79390   0.42871   0.00000  Uiso   1.00
H665   H     0.53390   0.98479   0.01455   0.00000  Uiso   1.00
H666   H     0.50491   0.67806   0.05987   0.00000  Uiso   1.00
H667   H     0.50113   0.69021   0.01283   0.00000  Uiso   1.00
H668   H     0.37919   0.85685   0.19428   0.00000  Uiso   1.00
H669   H     0.37013   0.89615   0.23163   0.00000  Uiso   1.00
N670   N     0.35540   0.87315   0.21450   0.00000  Uiso   1.00
N671   N     0.44617   0.99637   0.29105   0.00000  Uiso   1.00
N672   N     0.55115   0.73231   0.10590   0.00000  Uiso   1.00
N673   N     0.56976   0.73858   0.45822   0.00000  Uiso   1.00
N674   N     0.45221   0.93507   0.39628   0.00000  Uiso   1.00
N675   N     0.47586   0.79307   0.40658   0.00000  Uiso   1.00
O676   O     0.50000   0.83333   0.25000   0.00000  Uiso   1.00
O677   O     0.49027   0.79060   0.16625   0.00000  Uiso   1.00
O678   O     0.46020   0.87313   0.33749   0.00000  Uiso   1.00
O679   O     0.54421   0.84159   0.15877   0.00000  Uiso   1.00
O680   O     0.50532   0.82802   0.33749   0.00000  Uiso   1.00
O681   O     0.55931   0.71195   0.02654   0.00000  Uiso   1.00
O682   O     0.64618   0.79162   0.28309   0.00000  Uiso   1.00
O683   O     0.51894   0.87022   0.09584   0.00000  Uiso   1.00
O684   O     0.44896   0.87054   0.08145   0.00000  Uiso   1.00
O685   O     0.51182   0.74768   0.27821   0.00000  Uiso   1.00
O686   O     0.47914   0.92803   0.26767   0.00000  Uiso   1.00
O687   O     0.40785   0.79917   0.23607   0.00000  Uiso   1.00
O688   O     0.60119   0.85845   0.21806   0.00000  Uiso   1.00
O689   O     0.40323   0.85627   0.27820   0.00000  Uiso   1.00
O690   O     0.58773   0.81944   0.26768   0.00000  Uiso   1.00
O691   O     0.47133   0.73570   0.23607   0.00000  Uiso   1.00
O692   O     0.53771   0.92193   0.21806   0.00000  Uiso   1.00
Zn693  Zn    0.52577   0.80756   0.28278   0.00000  Uiso   1.00
Zn694  Zn    0.46792   0.79044   0.22258   0.00000  Uiso   1.00
Zn695  Zn    0.54500   0.86331   0.21188   0.00000  Uiso   1.00
Zn696  Zn    0.46131   0.87202   0.28277   0.00000  Uiso   1.00
C697   C     0.71942   0.82657   0.25852   0.00000  Uiso   1.00
C698   C     0.86422   0.79732   0.46028   0.00000  Uiso   1.00
C699   C     0.87779   0.77092   0.48038   0.00000  Uiso   1.00
C700   C     0.94758   0.84023   0.24144   0.00000  Uiso   1.00
C701   C     0.86873   0.77803   0.02165   0.00000  Uiso   1.00
C702   C     0.85051   0.81507   0.04134   0.00000  Uiso   1.00
C703   C     0.87880   0.75018   0.04377   0.00000  Uiso   1.00
C704   C     0.87477   0.76124   0.08396   0.00000  Uiso   1.00
C705   C     0.85506   0.82909   0.07958   0.00000  Uiso   1.00
C706   C     0.99319   0.84450   0.23977   0.00000  Uiso   1.00
C707   C     0.67376   0.82273   0.26238   0.00000  Uiso   1.00
C708   C     0.79370   0.90489   0.41780   0.00000  Uiso   1.00
C709   C     0.84657   0.98874   0.23913   0.00000  Uiso   1.00
C710   C     0.81703   0.67928   0.26258   0.00000  Uiso   1.00
C711   C     0.82291   0.72293   0.25851   0.00000  Uiso   1.00
C712   C     0.84325   0.94424   0.24154   0.00000  Uiso   1.00
C713   C     0.85490   0.81148   0.14411   0.00000  Uiso   1.00
C714   C     0.81233   0.85467   0.35615   0.00000  Uiso   1.00
C715   C     0.80605   0.86563   0.39894   0.00000  Uiso   1.00
C716   C     0.86327   0.80093   0.10164   0.00000  Uiso   1.00
C717   C     0.78848   0.91423   0.45824   0.00000  Uiso   1.00
C718   C     0.85624   0.68202   0.02879   0.00000  Uiso   1.00
C719   C     0.81432   0.83679   0.42086   0.00000  Uiso   1.00
C720   C     0.99043   0.78717   0.31763   0.00000  Uiso   1.00
C721   C     0.89081   0.89445   0.07853   0.00000  Uiso   1.00
C722   C     0.74804   0.83825   0.08887   0.00000  Uiso   1.00
C723   C     0.81757   0.85004   0.45975   0.00000  Uiso   1.00
C724   C     0.79986   0.88699   0.47928   0.00000  Uiso   1.00
C725   C     0.83664   0.82751   0.48027   0.00000  Uiso   1.00
C726   C     0.83008   0.83729   0.02154   0.00000  Uiso   1.00
C727   C     0.80177   0.86774   0.04143   0.00000  Uiso   1.00
C728   C     0.79122   0.89498   0.02004   0.00000  Uiso   1.00
H729   H     0.77321   0.92063   0.03570   0.00000  Uiso   1.00
H730   H     0.99460   0.81784   0.33540   0.00000  Uiso   1.00
H731   H     0.68648   0.77096   0.31043   0.00000  Uiso   1.00
H732   H     0.96372   0.76752   0.33603   0.00000  Uiso   1.00
H733   H     0.75235   0.66992   0.28433   0.00000  Uiso   1.00
H734   H     0.77989   0.67886   0.31867   0.00000  Uiso   1.00
H735   H     0.89499   0.89523   0.04661   0.00000  Uiso   1.00
H736   H     0.91923   0.88295   0.08314   0.00000  Uiso   1.00
H737   H     0.88927   0.92701   0.09287   0.00000  Uiso   1.00
H738   H     0.85684   0.72416   0.12809   0.00000  Uiso   1.00
H739   H     0.90841   0.74708   0.11900   0.00000  Uiso   1.00
H740   H     0.87404   0.66930   0.21763   0.00000  Uiso   1.00
H741   H     0.93056   0.75240   0.43903   0.00000  Uiso   1.00
H742   H     0.88511   0.71914   0.44126   0.00000  Uiso   1.00
H743   H     0.80597   0.96243   0.39981   0.00000  Uiso   1.00
H744   H     0.75384   0.94188   0.40879   0.00000  Uiso   1.00
H745   H     0.83824   0.78387   0.38817   0.00000  Uiso   1.00
H746   H     0.79763   0.77466   0.42983   0.00000  Uiso   1.00
H747   H     0.73132   0.84153   0.12075   0.00000  Uiso   1.00
H748   H     0.75988   0.80697   0.08132   0.00000  Uiso   1.00
H749   H     0.72404   0.84037   0.07275   0.00000  Uiso   1.00
H750   H     0.77633   0.94329   0.47303   0.00000  Uiso   1.00
H751   H     0.87608   0.79390   0.42871   0.00000  Uiso   1.00
H752   H     0.86723   0.98479   0.01455   0.00000  Uiso   1.00
H753   H     0.83824   0.67806   0.05987   0.00000  Uiso   1.00
H754   H     0.83446   0.69021   0.01283   0.00000  Uiso   1.00
H755   H     0.71252   0.85685   0.19428   0.00000  Uiso   1.00
H756   H     0.70346   0.89615   0.23163   0.00000  Uiso   1.00
N757   N     0.68873   0.87315   0.21450   0.00000  Uiso   1.00
N758   N     0.77950   0.99637   0.29105   0.00000  Uiso   1.00
N759   N     0.88448   0.73231   0.10590   0.00000  Uiso   1.00
N760   N     0.90310   0.73858   0.45822   0.00000  Uiso   1.00
N761   N     0.78554   0.93507   0.39628   0.00000  Uiso   1.00
N762   N     0.80919   0.79307   0.40658   0.00000  Uiso   1.00
O763   O     0.83333   0.83333   0.25000   0.00000  Uiso   1.00
O764   O     0.82360   0.79060   0.16625   0.00000  Uiso   1.00
O765   O     0.79354   0.87313   0.33749   0.00000  Uiso   1.00
O766   O     0.87755   0.84159   0.15877   0.00000  Uiso   1.00
O767   O     0.83865   0.82802   0.33749   0.00000  Uiso   1.00
O768   O     0.89264   0.71195   0.02654   0.00000  Uiso   1.00
O769   O     0.97951   0.79162   0.28309   0.00000  Uiso   1.00
O770   O     0.85227   0.87022   0.09584   0.00000  Uiso   1.00
O771   O     0.78229   0.87054   0.08145   0.00000  Uiso   1.00
O772   O     0.84515   0.74768   0.27821   0.00000  Uiso   1.00
O773   O     0.81247   0.92803   0.26767   0.00000  Uiso   1.00
O774   O     0.74119   0.79917   0.23607   0.00000  Uiso   1.00
O775   O     0.93452   0.85845   0.21806   0.00000  Uiso   1.00
O776   O     0.73656   0.85627   0.27820   0.00000  Uiso   1.00
O777   O     0.92106   0.81944   0.26768   0.00000  Uiso   1.00
O778   O     0.80467   0.73570   0.23607   0.00000  Uiso   1.00
O779   O     0.87104   0.92193   0.21806   0.00000  Uiso   1.00
Zn780  Zn    0.85910   0.80756   0.28278   0.00000  Uiso   1.00
Zn781  Zn    0.80125   0.79044   0.22258   0.00000  Uiso   1.00
Zn782  Zn    0.87833   0.86331   0.21188   0.00000  Uiso   1.00
Zn783  Zn    0.79465   0.87202   0.28277   0.00000  Uiso   1.00
C784   C     0.05275   0.15991   0.75852   0.00000  Uiso   1.00
C785   C     0.19755   0.13065   0.96028   0.00000  Uiso   1.00
C786   C     0.21112   0.10425   0.98038   0.00000  Uiso   1.00
C787   C     0.28092   0.17357   0.74144   0.00000  Uiso   1.00
C788   C     0.20207   0.11137   0.52165   0.00000  Uiso   1.00
C789   C     0.18384   0.14840   0.54134   0.00000  Uiso   1.00
C790   C     0.21213   0.08351   0.54377   0.00000  Uiso   1.00
C791   C     0.20810   0.09457   0.58396   0.00000  Uiso   1.00
C792   C     0.18840   0.16243   0.57958   0.00000  Uiso   1.00
C793   C     0.32652   0.17784   0.73977   0.00000  Uiso   1.00
C794   C     0.00709   0.15606   0.76238   0.00000  Uiso   1.00
C795   C     0.12703   0.23823   0.91780   0.00000  Uiso   1.00
C796   C     0.17990   0.32207   0.73913   0.00000  Uiso   1.00
C797   C     0.15037   0.01262   0.76258   0.00000  Uiso   1.00
C798   C     0.15624   0.05626   0.75851   0.00000  Uiso   1.00
C799   C     0.17658   0.27758   0.74154   0.00000  Uiso   1.00
C800   C     0.18823   0.14482   0.64411   0.00000  Uiso   1.00
C801   C     0.14567   0.18800   0.85615   0.00000  Uiso   1.00
C802   C     0.13938   0.19897   0.89894   0.00000  Uiso   1.00
C803   C     0.19660   0.13427   0.60164   0.00000  Uiso   1.00
C804   C     0.12182   0.24757   0.95824   0.00000  Uiso   1.00
C805   C     0.18957   0.01536   0.52879   0.00000  Uiso   1.00
C806   C     0.14765   0.17012   0.92086   0.00000  Uiso   1.00
C807   C     0.32376   0.12051   0.81763   0.00000  Uiso   1.00
C808   C     0.22414   0.22778   0.57853   0.00000  Uiso   1.00
C809   C     0.08138   0.17158   0.58887   0.00000  Uiso   1.00
C810   C     0.15090   0.18337   0.95975   0.00000  Uiso   1.00
C811   C     0.13320   0.22032   0.97928   0.00000  Uiso   1.00
C812   C     0.16997   0.16084   0.98027   0.00000  Uiso   1.00
C813   C     0.16341   0.17062   0.52154   0.00000  Uiso   1.00
C814   C     0.13510   0.20108   0.54143   0.00000  Uiso   1.00
C815   C     0.12455   0.22832   0.52004   0.00000  Uiso   1.00
H816   H     0.10654   0.25396   0.53570   0.00000  Uiso   1.00
H817   H     0.32793   0.15117   0.83540   0.00000  Uiso   1.00
H818   H     0.01982   0.10430   0.81043   0.00000  Uiso   1.00
H819   H     0.29705   0.10085   0.83603   0.00000  Uiso   1.00
H820   H     0.08569   0.00326   0.78433   0.00000  Uiso   1.00
H821   H     0.11323   0.01220   0.81867   0.00000  Uiso   1.00
H822   H     0.22832   0.22856   0.54661   0.00000  Uiso   1.00
H823   H     0.25256   0.21629   0.58314   0.00000  Uiso   1.00
H824   H     0.22260   0.26034   0.59287   0.00000  Uiso   1.00
H825   H     0.19017   0.05749   0.62809   0.00000  Uiso   1.00
H826   H     0.24175   0.08041   0.61900   0.00000  Uiso   1.00
H827   H     0.20737   0.00263   0.71763   0.00000  Uiso   1.00
H828   H     0.26389   0.08573   0.93903   0.00000  Uiso   1.00
H829   H     0.21844   0.05248   0.94126   0.00000  Uiso   1.00
H830   H     0.13930   0.29576   0.89981   0.00000  Uiso   1.00
H831   H     0.08717   0.27521   0.90879   0.00000  Uiso   1.00
H832   H     0.17158   0.11720   0.88817   0.00000  Uiso   1.00
H833   H     0.13096   0.10799   0.92983   0.00000  Uiso   1.00
H834   H     0.06465   0.17486   0.62075   0.00000  Uiso   1.00
H835   H     0.09322   0.14031   0.58132   0.00000  Uiso   1.00
H836   H     0.05737   0.17370   0.57275   0.00000  Uiso   1.00
H837   H     0.10966   0.27662   0.97303   0.00000  Uiso   1.00
H838   H     0.20941   0.12724   0.92871   0.00000  Uiso   1.00
H839   H     0.20057   0.31813   0.51455   0.00000  Uiso   1.00
H840   H     0.17158   0.01140   0.55987   0.00000  Uiso   1.00
H841   H     0.16780   0.02355   0.51283   0.00000  Uiso   1.00
H842   H     0.04586   0.19019   0.69428   0.00000  Uiso   1.00
H843   H     0.03680   0.22948   0.73163   0.00000  Uiso   1.00
N844   N     0.02206   0.20648   0.71450   0.00000  Uiso   1.00
N845   N     0.11283   0.32971   0.79105   0.00000  Uiso   1.00
N846   N     0.21781   0.06564   0.60590   0.00000  Uiso   1.00
N847   N     0.23643   0.07191   0.95822   0.00000  Uiso   1.00
N848   N     0.11888   0.26840   0.89628   0.00000  Uiso   1.00
N849   N     0.14252   0.12640   0.90658   0.00000  Uiso   1.00
O850   O     0.16667   0.16667   0.75000   0.00000  Uiso   1.00
O851   O     0.15693   0.12393   0.66625   0.00000  Uiso   1.00
O852   O     0.12687   0.20646   0.83749   0.00000  Uiso   1.00
O853   O     0.21088   0.17493   0.65877   0.00000  Uiso   1.00
O854   O     0.17198   0.16135   0.83749   0.00000  Uiso   1.00
O855   O     0.22598   0.04528   0.52654   0.00000  Uiso   1.00
O856   O     0.31285   0.12495   0.78309   0.00000  Uiso   1.00
O857   O     0.18561   0.20356   0.59584   0.00000  Uiso   1.00
O858   O     0.11563   0.20387   0.58145   0.00000  Uiso   1.00
O859   O     0.17849   0.08101   0.77821   0.00000  Uiso   1.00
O860   O     0.14581   0.26136   0.76767   0.00000  Uiso   1.00
O861   O     0.07452   0.13251   0.73607   0.00000  Uiso   1.00
O862   O     0.26785   0.19179   0.71806   0.00000  Uiso   1.00
O863   O     0.06990   0.18960   0.77820   0.00000  Uiso   1.00
O864   O     0.25440   0.15277   0.76768   0.00000  Uiso   1.00
O865   O     0.13800   0.06903   0.73607   0.00000  Uiso   1.00
O866   O     0.20437   0.25527   0.71806   0.00000  Uiso   1.00
Zn867  Zn    0.19244   0.14090   0.78278   0.00000  Uiso   1.00
Zn868  Zn    0.13459   0.12378   0.72258   0.00000  Uiso   1.00
Zn869  Zn    0.21166   0.19664   0.71188   0.00000  Uiso   1.00
Zn870  Zn    0.12798   0.20535   0.78277   0.00000  Uiso   1.00
C871   C     0.38608   0.15991   0.75852   0.00000  Uiso   1.00
C872   C     0.53089   0.13065   0.96028   0.00000  Uiso   1.00
C873   C     0.54445   0.10425   0.98038   0.00000  Uiso   1.00
C874   C     0.61425   0.17357   0.74144   0.00000  Uiso   1.00
C875   C     0.53540   0.11137   0.52165   0.00000  Uiso   1.00
C876   C     0.51718   0.14840   0.54134   0.00000  Uiso   1.00
C877   C     0.54547   0.08351   0.54377   0.00000  Uiso   1.00
C878   C     0.54143   0.09457   0.58396   0.00000  Uiso   1.00
C879   C     0.52173   0.16243   0.57958   0.00000  Uiso   1.00
C880   C     0.65985   0.17784   0.73977   0.00000  Uiso   1.00
C881   C     0.34042   0.15606   0.76238   0.00000  Uiso   1.00
C882   C     0.46036   0.23823   0.91780   0.00000  Uiso   1.00
C883   C     0.51324   0.32207   0.73913   0.00000  Uiso   1.00
C884   C     0.48370   0.01262   0.76258   0.00000  Uiso   1.00
C885   C     0.48957   0.05626   0.75851   0.00000  Uiso   1.00
C886   C     0.50992   0.27758   0.74154   0.00000  Uiso   1.00
C887   C     0.52156   0.14482   0.64411   0.00000  Uiso   1.00
C888   C     0.47900   0.18800   0.85615   0.00000  Uiso   1.00
C889   C     0.47272   0.19897   0.89894   0.00000  Uiso   1.00
C890   C     0.52993   0.13427   0.60164   0.00000  Uiso   1.00
C891   C     0.45515   0.24757   0.95824   0.00000  Uiso   1.00
C892   C     0.52291   0.01536   0.52879   0.00000  Uiso   1.00
C893   C     0.48098   0.17012   0.92086   0.00000  Uiso   1.00
C894   C     0.65709   0.12051   0.81763   0.00000  Uiso   1.00
C895   C     0.55748   0.22778   0.57853   0.00000  Uiso   1.00
C896   C     0.41471   0.17158   0.58887   0.00000  Uiso   1.00
C897   C     0.48423   0.18337   0.95975   0.00000  Uiso   1.00
C898   C     0.46653   0.22032   0.97928   0.00000  Uiso   1.00
C899   C     0.50330   0.16084   0.98027   0.00000  Uiso   1.00
C900   C     0.49675   0.17062   0.52154   0.00000  Uiso   1.00
C901   C     0.46843   0.20108   0.54143   0.00000  Uiso   1.00
C902   C     0.45789   0.22832   0.52004   0.00000  Uiso   1.00
H903   H     0.43987   0.25396   0.53570   0.00000  Uiso   1.00
H904   H     0.66126   0.15117   0.83540   0.00000  Uiso   1.00
H905   H     0.35315   0.10430   0.81043   0.00000  Uiso   1.00
H906   H     0.63039   0.10085   0.83603   0.00000  Uiso   1.00
H907   H     0.41902   0.00326   0.78433   0.00000  Uiso   1.00
H908   H     0.44656   0.01220   0.81867   0.00000  Uiso   1.00
H909   H     0.56165   0.22856   0.54661   0.00000  Uiso   1.00
H910   H     0.58589   0.21629   0.58314   0.00000  Uiso   1.00
H911   H     0.55593   0.26034   0.59287   0.00000  Uiso   1.00
H912   H     0.52351   0.05749   0.62809   0.00000  Uiso   1.00
H913   H     0.57508   0.08041   0.61900   0.00000  Uiso   1.00
H914   H     0.54070   0.00263   0.71763   0.00000  Uiso   1.00
H915   H     0.59722   0.08573   0.93903   0.00000  Uiso   1.00
H916   H     0.55177   0.05248   0.94126   0.00000  Uiso   1.00
H917   H     0.47264   0.29576   0.89981   0.00000  Uiso   1.00
H918   H     0.42051   0.27521   0.90879   0.00000  Uiso   1.00
H919   H     0.50491   0.11720   0.88817   0.00000  Uiso   1.00
H920   H     0.46429   0.10799   0.92983   0.00000  Uiso   1.00
H921   H     0.39798   0.17486   0.62075   0.00000  Uiso   1.00
H922   H     0.42655   0.14031   0.58132   0.00000  Uiso   1.00
H923   H     0.39071   0.17370   0.57275   0.00000  Uiso   1.00
H924   H     0.44299   0.27662   0.97303   0.00000  Uiso   1.00
H925   H     0.54275   0.12724   0.92871   0.00000  Uiso   1.00
H926   H     0.53390   0.31813   0.51455   0.00000  Uiso   1.00
H927   H     0.50491   0.01140   0.55987   0.00000  Uiso   1.00
H928   H     0.50113   0.02355   0.51283   0.00000  Uiso   1.00
H929   H     0.37919   0.19019   0.69428   0.00000  Uiso   1.00
H930   H     0.37013   0.22948   0.73163   0.00000  Uiso   1.00
N931   N     0.35540   0.20648   0.71450   0.00000  Uiso   1.00
N932   N     0.44617   0.32971   0.79105   0.00000  Uiso   1.00
N933   N     0.55115   0.06564   0.60590   0.00000  Uiso   1.00
N934   N     0.56976   0.07191   0.95822   0.00000  Uiso   1.00
N935   N     0.45221   0.26840   0.89628   0.00000  Uiso   1.00
N936   N     0.47586   0.12640   0.90658   0.00000  Uiso   1.00
O937   O     0.50000   0.16667   0.75000   0.00000  Uiso   1.00
O938   O     0.49027   0.12393   0.66625   0.00000  Uiso   1.00
O939   O     0.46020   0.20646   0.83749   0.00000  Uiso   1.00
O940   O     0.54421   0.17493   0.65877   0.00000  Uiso   1.00
O941   O     0.50532   0.16135   0.83749   0.00000  Uiso   1.00
O942   O     0.55931   0.04528   0.52654   0.00000  Uiso   1.00
O943   O     0.64618   0.12495   0.78309   0.00000  Uiso   1.00
O944   O     0.51894   0.20356   0.59584   0.00000  Uiso   1.00
O945   O     0.44896   0.20387   0.58145   0.00000  Uiso   1.00
O946   O     0.51182   0.08101   0.77821   0.00000  Uiso   1.00
O947   O     0.47914   0.26136   0.76767   0.00000  Uiso   1.00
O948   O     0.40785   0.13251   0.73607   0.00000  Uiso   1.00
O949   O     0.60119   0.19179   0.71806   0.00000  Uiso   1.00
O950   O     0.40323   0.18960   0.77820   0.00000  Uiso   1.00
O951   O     0.58773   0.15277   0.76768   0.00000  Uiso   1.00
O952   O     0.47133   0.06903   0.73607   0.00000  Uiso   1.00
O953   O     0.53771   0.25527   0.71806   0.00000  Uiso   1.00
Zn954  Zn    0.52577   0.14090   0.78278   0.00000  Uiso   1.00
Zn955  Zn    0.46792   0.12378   0.72258   0.00000  Uiso   1.00
Zn956  Zn    0.54500   0.19664   0.71188   0.00000  Uiso   1.00
Zn957  Zn    0.46131   0.20535   0.78277   0.00000  Uiso   1.00
C958   C     0.71942   0.15991   0.75852   0.00000  Uiso   1.00
C959   C     0.86422   0.13065   0.96028   0.00000  Uiso   1.00
C960   C     0.87779   0.10425   0.98038   0.00000  Uiso   1.00
C961   C     0.94758   0.17357   0.74144   0.00000  Uiso   1.00
C962   C     0.86873   0.11137   0.52165   0.00000  Uiso   1.00
C963   C     0.85051   0.14840   0.54134   0.00000  Uiso   1.00
C964   C     0.87880   0.08351   0.54377   0.00000  Uiso   1.00
C965   C     0.87477   0.09457   0.58396   0.00000  Uiso   1.00
C966   C     0.85506   0.16243   0.57958   0.00000  Uiso   1.00
C967   C     0.99319   0.17784   0.73977   0.00000  Uiso   1.00
C968   C     0.67376   0.15606   0.76238   0.00000  Uiso   1.00
C969   C     0.79370   0.23823   0.91780   0.00000  Uiso   1.00
C970   C     0.84657   0.32207   0.73913   0.00000  Uiso   1.00
C971   C     0.81703   0.01262   0.76258   0.00000  Uiso   1.00
C972   C     0.82291   0.05626   0.75851   0.00000  Uiso   1.00
C973   C     0.84325   0.27758   0.74154   0.00000  Uiso   1.00
C974   C     0.85490   0.14482   0.64411   0.00000  Uiso   1.00
C975   C     0.81233   0.18800   0.85615   0.00000  Uiso   1.00
C976   C     0.80605   0.19897   0.89894   0.00000  Uiso   1.00
C977   C     0.86327   0.13427   0.60164   0.00000  Uiso   1.00
C978   C     0.78848   0.24757   0.95824   0.00000  Uiso   1.00
C979   C     0.85624   0.01536   0.52879   0.00000  Uiso   1.00
C980   C     0.81432   0.17012   0.92086   0.00000  Uiso   1.00
C981   C     0.99043   0.12051   0.81763   0.00000  Uiso   1.00
C982   C     0.89081   0.22778   0.57853   0.00000  Uiso   1.00
C983   C     0.74804   0.17158   0.58887   0.00000  Uiso   1.00
C984   C     0.81757   0.18337   0.95975   0.00000  Uiso   1.00
C985   C     0.79986   0.22032   0.97928   0.00000  Uiso   1.00
C986   C     0.83664   0.16084   0.98027   0.00000  Uiso   1.00
C987   C     0.83008   0.17062   0.52154   0.00000  Uiso   1.00
C988   C     0.80177   0.20108   0.54143   0.00000  Uiso   1.00
C989   C     0.79122   0.22832   0.52004   0.00000  Uiso   1.00
H990   H     0.77321   0.25396   0.53570   0.00000  Uiso   1.00
H991   H     0.99460   0.15117   0.83540   0.00000  Uiso   1.00
H992   H     0.68648   0.10430   0.81043   0.00000  Uiso   1.00
H993   H     0.96372   0.10085   0.83603   0.00000  Uiso   1.00
H994   H     0.75235   0.00326   0.78433   0.00000  Uiso   1.00
H995   H     0.77989   0.01220   0.81867   0.00000  Uiso   1.00
H996   H     0.89499   0.22856   0.54661   0.00000  Uiso   1.00
H997   H     0.91923   0.21629   0.58314   0.00000  Uiso   1.00
H998   H     0.88927   0.26034   0.59287   0.00000  Uiso   1.00
H999   H     0.85684   0.05749   0.62809   0.00000  Uiso   1.00
H1000  H     0.90841   0.08041   0.61900   0.00000  Uiso   1.00
H1001  H     0.87404   0.00263   0.71763   0.00000  Uiso   1.00
H1002  H     0.93056   0.08573   0.93903   0.00000  Uiso   1.00
H1003  H     0.88511   0.05248   0.94126   0.00000  Uiso   1.00
H1004  H     0.80597   0.29576   0.89981   0.00000  Uiso   1.00
H1005  H     0.75384   0.27521   0.90879   0.00000  Uiso   1.00
H1006  H     0.83824   0.11720   0.88817   0.00000  Uiso   1.00
H1007  H     0.79763   0.10799   0.92983   0.00000  Uiso   1.00
H1008  H     0.73132   0.17486   0.62075   0.00000  Uiso   1.00
H1009  H     0.75988   0.14031   0.58132   0.00000  Uiso   1.00
H1010  H     0.72404   0.17370   0.57275   0.00000  Uiso   1.00
H1011  H     0.77633   0.27662   0.97303   0.00000  Uiso   1.00
H1012  H     0.87608   0.12724   0.92871   0.00000  Uiso   1.00
H1013  H     0.86723   0.31813   0.51455   0.00000  Uiso   1.00
H1014  H     0.83824   0.01140   0.55987   0.00000  Uiso   1.00
H1015  H     0.83446   0.02355   0.51283   0.00000  Uiso   1.00
H1016  H     0.71252   0.19019   0.69428   0.00000  Uiso   1.00
H1017  H     0.70346   0.22948   0.73163   0.00000  Uiso   1.00
N1018  N     0.68873   0.20648   0.71450   0.00000  Uiso   1.00
N1019  N     0.77950   0.32971   0.79105   0.00000  Uiso   1.00
N1020  N     0.88448   0.06564   0.60590   0.00000  Uiso   1.00
N1021  N     0.90310   0.07191   0.95822   0.00000  Uiso   1.00
N1022  N     0.78554   0.26840   0.89628   0.00000  Uiso   1.00
N1023  N     0.80919   0.12640   0.90658   0.00000  Uiso   1.00
O1024  O     0.83333   0.16667   0.75000   0.00000  Uiso   1.00
O1025  O     0.82360   0.12393   0.66625   0.00000  Uiso   1.00
O1026  O     0.79354   0.20646   0.83749   0.00000  Uiso   1.00
O1027  O     0.87755   0.17493   0.65877   0.00000  Uiso   1.00
O1028  O     0.83865   0.16135   0.83749   0.00000  Uiso   1.00
O1029  O     0.89264   0.04528   0.52654   0.00000  Uiso   1.00
O1030  O     0.97951   0.12495   0.78309   0.00000  Uiso   1.00
O1031  O     0.85227   0.20356   0.59584   0.00000  Uiso   1.00
O1032  O     0.78229   0.20387   0.58145   0.00000  Uiso   1.00
O1033  O     0.84515   0.08101   0.77821   0.00000  Uiso   1.00
O1034  O     0.81247   0.26136   0.76767   0.00000  Uiso   1.00
O1035  O     0.74119   0.13251   0.73607   0.00000  Uiso   1.00
O1036  O     0.93452   0.19179   0.71806   0.00000  Uiso   1.00
O1037  O     0.73656   0.18960   0.77820   0.00000  Uiso   1.00
O1038  O     0.92106   0.15277   0.76768   0.00000  Uiso   1.00
O1039  O     0.80467   0.06903   0.73607   0.00000  Uiso   1.00
O1040  O     0.87104   0.25527   0.71806   0.00000  Uiso   1.00
Zn1041 Zn    0.85910   0.14090   0.78278   0.00000  Uiso   1.00
Zn1042 Zn    0.80125   0.12378   0.72258   0.00000  Uiso   1.00
Zn1043 Zn    0.87833   0.19664   0.71188   0.00000  Uiso   1.00
Zn1044 Zn    0.79465   0.20535   0.78277   0.00000  Uiso   1.00
C1045  C     0.05275   0.49324   0.75852   0.00000  Uiso   1.00
C1046  C     0.19755   0.46399   0.96028   0.00000  Uiso   1.00
C1047  C     0.21112   0.43758   0.98038   0.00000  Uiso   1.00
C1048  C     0.28092   0.50690   0.74144   0.00000  Uiso   1.00
C1049  C     0.20207   0.44470   0.52165   0.00000  Uiso   1.00
C1050  C     0.18384   0.48174   0.54134   0.00000  Uiso   1.00
C1051  C     0.21213   0.41685   0.54377   0.00000  Uiso   1.00
C1052  C     0.20810   0.42790   0.58396   0.00000  Uiso   1.00
C1053  C     0.18840   0.49576   0.57958   0.00000  Uiso   1.00
C1054  C     0.32652   0.51117   0.73977   0.00000  Uiso   1.00
C1055  C     0.00709   0.48940   0.76238   0.00000  Uiso   1.00
C1056  C     0.12703   0.57156   0.91780   0.00000  Uiso   1.00
C1057  C     0.17990   0.65541   0.73913   0.00000  Uiso   1.00
C1058  C     0.15037   0.34595   0.76258   0.00000  Uiso   1.00
C1059  C     0.15624   0.38960   0.75851   0.00000  Uiso   1.00
C1060  C     0.17658   0.61091   0.74154   0.00000  Uiso   1.00
C1061  C     0.18823   0.47815   0.64411   0.00000  Uiso   1.00
C1062  C     0.14567   0.52133   0.85615   0.00000  Uiso   1.00
C1063  C     0.13938   0.53230   0.89894   0.00000  Uiso   1.00
C1064  C     0.19660   0.46760   0.60164   0.00000  Uiso   1.00
C1065  C     0.12182   0.58090   0.95824   0.00000  Uiso   1.00
C1066  C     0.18957   0.34869   0.52879   0.00000  Uiso   1.00
C1067  C     0.14765   0.50346   0.92086   0.00000  Uiso   1.00
C1068  C     0.32376   0.45384   0.81763   0.00000  Uiso   1.00
C1069  C     0.22414   0.56112   0.57853   0.00000  Uiso   1.00
C1070  C     0.08138   0.50492   0.58887   0.00000  Uiso   1.00
C1071  C     0.15090   0.51670   0.95975   0.00000  Uiso   1.00
C1072  C     0.13320   0.55366   0.97928   0.00000  Uiso   1.00
C1073  C     0.16997   0.49417   0.98027   0.00000  Uiso   1.00
C1074  C     0.16341   0.50396   0.52154   0.00000  Uiso   1.00
C1075  C     0.13510   0.53441   0.54143   0.00000  Uiso   1.00
C1076  C     0.12455   0.56165   0.52004   0.00000  Uiso   1.00
H1077  H     0.10654   0.58729   0.53570   0.00000  Uiso   1.00
H1078  H     0.32793   0.48450   0.83540   0.00000  Uiso   1.00
H1079  H     0.01982   0.43763   0.81043   0.00000  Uiso   1.00
H1080  H     0.29705   0.43419   0.83603   0.00000  Uiso   1.00
H1081  H     0.08569   0.33659   0.78433   0.00000  Uiso   1.00
H1082  H     0.11323   0.34553   0.81867   0.00000  Uiso   1.00
H1083  H     0.22832   0.56190   0.54661   0.00000  Uiso   1.00
H1084  H     0.25256   0.54962   0.58314   0.00000  Uiso   1.00
H1085  H     0.22260   0.59367   0.59287   0.00000  Uiso   1.00
H1086  H     0.19017   0.39082   0.62809   0.00000  Uiso   1.00
H1087  H     0.24175   0.41375   0.61900   0.00000  Uiso   1.00
H1088  H     0.20737   0.33596   0.71763   0.00000  Uiso   1.00
H1089  H     0.26389   0.41906   0.93903   0.00000  Uiso   1.00
H1090  H     0.21844   0.38581   0.94126   0.00000  Uiso   1.00
H1091  H     0.13930   0.62910   0.89981   0.00000  Uiso   1.00
H1092  H     0.08717   0.60855   0.90879   0.00000  Uiso   1.00
H1093  H     0.17158   0.45054   0.88817   0.00000  Uiso   1.00
H1094  H     0.13096   0.44132   0.92983   0.00000  Uiso   1.00
H1095  H     0.06465   0.50820   0.62075   0.00000  Uiso   1.00
H1096  H     0.09322   0.47364   0.58132   0.00000  Uiso   1.00
H1097  H     0.05737   0.50704   0.57275   0.00000  Uiso   1.00
H1098  H     0.10966   0.60996   0.97303   0.00000  Uiso   1.00
H1099  H     0.20941   0.46057   0.92871   0.00000  Uiso   1.00
H1100  H     0.20057   0.65146   0.51455   0.00000  Uiso   1.00
H1101  H     0.17158   0.34473   0.55987   0.00000  Uiso   1.00
H1102  H     0.16780   0.35688   0.51283   0.00000  Uiso   1.00
H1103  H     0.04586   0.52352   0.69428   0.00000  Uiso   1.00
H1104  H     0.03680   0.56281   0.73163   0.00000  Uiso   1.00
N1105  N     0.02206   0.53981   0.71450   0.00000  Uiso   1.00
N1106  N     0.11283   0.66304   0.79105   0.00000  Uiso   1.00
N1107  N     0.21781   0.39898   0.60590   0.00000  Uiso   1.00
N1108  N     0.23643   0.40525   0.95822   0.00000  Uiso   1.00
N1109  N     0.11888   0.60173   0.89628   0.00000  Uiso   1.00
N1110  N     0.14252   0.45974   0.90658   0.00000  Uiso   1.00
O1111  O     0.16667   0.50000   0.75000   0.00000  Uiso   1.00
O1112  O     0.15693   0.45726   0.66625   0.00000  Uiso   1.00
O1113  O     0.12687   0.53979   0.83749   0.00000  Uiso   1.00
O1114  O     0.21088   0.50826   0.65877   0.00000  Uiso   1.00
O1115  O     0.17198   0.49468   0.83749   0.00000  Uiso   1.00
O1116  O     0.22598   0.37862   0.52654   0.00000  Uiso   1.00
O1117  O     0.31285   0.45828   0.78309   0.00000  Uiso   1.00
O1118  O     0.18561   0.53689   0.59584   0.00000  Uiso   1.00
O1119  O     0.11563   0.53721   0.58145   0.00000  Uiso   1.00
O1120  O     0.17849   0.41434   0.77821   0.00000  Uiso   1.00
O1121  O     0.14581   0.59469   0.76767   0.00000  Uiso   1.00
O1122  O     0.07452   0.46584   0.73607   0.00000  Uiso   1.00
O1123  O     0.26785   0.52512   0.71806   0.00000  Uiso   1.00
O1124  O     0.06990   0.52293   0.77820   0.00000  Uiso   1.00
O1125  O     0.25440   0.48610   0.76768   0.00000  Uiso   1.00
O1126  O     0.13800   0.40236   0.73607   0.00000  Uiso   1.00
O1127  O     0.20437   0.58860   0.71806   0.00000  Uiso   1.00
Zn1128 Zn    0.19244   0.47423   0.78278   0.00000  Uiso   1.00
Zn1129 Zn    0.13459   0.45711   0.72258   0.00000  Uiso   1.00
Zn1130 Zn    0.21166   0.52997   0.71188   0.00000  Uiso   1.00
Zn1131 Zn    0.12798   0.53868   0.78277   0.00000  Uiso   1.00
C1132  C     0.38608   0.49324   0.75852   0.00000  Uiso   1.00
C1133  C     0.53089   0.46399   0.96028   0.00000  Uiso   1.00
C1134  C     0.54445   0.43758   0.98038   0.00000  Uiso   1.00
C1135  C     0.61425   0.50690   0.74144   0.00000  Uiso   1.00
C1136  C     0.53540   0.44470   0.52165   0.00000  Uiso   1.00
C1137  C     0.51718   0.48174   0.54134   0.00000  Uiso   1.00
C1138  C     0.54547   0.41685   0.54377   0.00000  Uiso   1.00
C1139  C     0.54143   0.42790   0.58396   0.00000  Uiso   1.00
C1140  C     0.52173   0.49576   0.57958   0.00000  Uiso   1.00
C1141  C     0.65985   0.51117   0.73977   0.00000  Uiso   1.00
C1142  C     0.34042   0.48940   0.76238   0.00000  Uiso   1.00
C1143  C     0.46036   0.57156   0.91780   0.00000  Uiso   1.00
C1144  C     0.51324   0.65541   0.73913   0.00000  Uiso   1.00
C1145  C     0.48370   0.34595   0.76258   0.00000  Uiso   1.00
C1146  C     0.48957   0.38960   0.75851   0.00000  Uiso   1.00
C1147  C     0.50992   0.61091   0.74154   0.00000  Uiso   1.00
C1148  C     0.52156   0.47815   0.64411   0.00000  Uiso   1.00
C1149  C     0.47900   0.52133   0.85615   0.00000  Uiso   1.00
C1150  C     0.47272   0.53230   0.89894   0.00000  Uiso   1.00
C1151  C     0.52993   0.46760   0.60164   0.00000  Uiso   1.00
C1152  C     0.45515   0.58090   0.95824   0.00000  Uiso   1.00
C1153  C     0.52291   0.34869   0.52879   0.00000  Uiso   1.00
C1154  C     0.48098   0.50346   0.92086   0.00000  Uiso   1.00
C1155  C     0.65709   0.45384   0.81763   0.00000  Uiso   1.00
C1156  C     0.55748   0.56112   0.57853   0.00000  Uiso   1.00
C1157  C     0.41471   0.50492   0.58887   0.00000  Uiso   1.00
C1158  C     0.48423   0.51670   0.95975   0.00000  Uiso   1.00
C1159  C     0.46653   0.55366   0.97928   0.00000  Uiso   1.00
C1160  C     0.50330   0.49417   0.98027   0.00000  Uiso   1.00
C1161  C     0.49675   0.50396   0.52154   0.00000  Uiso   1.00
C1162  C     0.46843   0.53441   0.54143   0.00000  Uiso   1.00
C1163  C     0.45789   0.56165   0.52004   0.00000  Uiso   1.00
H1164  H     0.43987   0.58729   0.53570   0.00000  Uiso   1.00
H1165  H     0.66126   0.48450   0.83540   0.00000  Uiso   1.00
H1166  H     0.35315   0.43763   0.81043   0.00000  Uiso   1.00
H1167  H     0.63039   0.43419   0.83603   0.00000  Uiso   1.00
H1168  H     0.41902   0.33659   0.78433   0.00000  Uiso   1.00
H1169  H     0.44656   0.34553   0.81867   0.00000  Uiso   1.00
H1170  H     0.56165   0.56190   0.54661   0.00000  Uiso   1.00
H1171  H     0.58589   0.54962   0.58314   0.00000  Uiso   1.00
H1172  H     0.55593   0.59367   0.59287   0.00000  Uiso   1.00
H1173  H     0.52351   0.39082   0.62809   0.00000  Uiso   1.00
H1174  H     0.57508   0.41375   0.61900   0.00000  Uiso   1.00
H1175  H     0.54070   0.33596   0.71763   0.00000  Uiso   1.00
H1176  H     0.59722   0.41906   0.93903   0.00000  Uiso   1.00
H1177  H     0.55177   0.38581   0.94126   0.00000  Uiso   1.00
H1178  H     0.47264   0.62910   0.89981   0.00000  Uiso   1.00
H1179  H     0.42051   0.60855   0.90879   0.00000  Uiso   1.00
H1180  H     0.50491   0.45054   0.88817   0.00000  Uiso   1.00
H1181  H     0.46429   0.44132   0.92983   0.00000  Uiso   1.00
H1182  H     0.39798   0.50820   0.62075   0.00000  Uiso   1.00
H1183  H     0.42655   0.47364   0.58132   0.00000  Uiso   1.00
H1184  H     0.39071   0.50704   0.57275   0.00000  Uiso   1.00
H1185  H     0.44299   0.60996   0.97303   0.00000  Uiso   1.00
H1186  H     0.54275   0.46057   0.92871   0.00000  Uiso   1.00
H1187  H     0.53390   0.65146   0.51455   0.00000  Uiso   1.00
H1188  H     0.50491   0.34473   0.55987   0.00000  Uiso   1.00
H1189  H     0.50113   0.35688   0.51283   0.00000  Uiso   1.00
H1190  H     0.37919   0.52352   0.69428   0.00000  Uiso   1.00
H1191  H     0.37013   0.56281   0.73163   0.00000  Uiso   1.00
N1192  N     0.35540   0.53981   0.71450   0.00000  Uiso   1.00
N1193  N     0.44617   0.66304   0.79105   0.00000  Uiso   1.00
N1194  N     0.55115   0.39898   0.60590   0.00000  Uiso   1.00
N1195  N     0.56976   0.40525   0.95822   0.00000  Uiso   1.00
N1196  N     0.45221   0.60173   0.89628   0.00000  Uiso   1.00
N1197  N     0.47586   0.45974   0.90658   0.00000  Uiso   1.00
O1198  O     0.50000   0.50000   0.75000   0.00000  Uiso   1.00
O1199  O     0.49027   0.45726   0.66625   0.00000  Uiso   1.00
O1200  O     0.46020   0.53979   0.83749   0.00000  Uiso   1.00
O1201  O     0.54421   0.50826   0.65877   0.00000  Uiso   1.00
O1202  O     0.50532   0.49468   0.83749   0.00000  Uiso   1.00
O1203  O     0.55931   0.37862   0.52654   0.00000  Uiso   1.00
O1204  O     0.64618   0.45828   0.78309   0.00000  Uiso   1.00
O1205  O     0.51894   0.53689   0.59584   0.00000  Uiso   1.00
O1206  O     0.44896   0.53721   0.58145   0.00000  Uiso   1.00
O1207  O     0.51182   0.41434   0.77821   0.00000  Uiso   1.00
O1208  O     0.47914   0.59469   0.76767   0.00000  Uiso   1.00
O1209  O     0.40785   0.46584   0.73607   0.00000  Uiso   1.00
O1210  O     0.60119   0.52512   0.71806   0.00000  Uiso   1.00
O1211  O     0.40323   0.52293   0.77820   0.00000  Uiso   1.00
O1212  O     0.58773   0.48610   0.76768   0.00000  Uiso   1.00
O1213  O     0.47133   0.40236   0.73607   0.00000  Uiso   1.00
O1214  O     0.53771   0.58860   0.71806   0.00000  Uiso   1.00
Zn1215 Zn    0.52577   0.47423   0.78278   0.00000  Uiso   1.00
Zn1216 Zn    0.46792   0.45711   0.72258   0.00000  Uiso   1.00
Zn1217 Zn    0.54500   0.52997   0.71188   0.00000  Uiso   1.00
Zn1218 Zn    0.46131   0.53868   0.78277   0.00000  Uiso   1.00
C1219  C     0.71942   0.49324   0.75852   0.00000  Uiso   1.00
C1220  C     0.86422   0.46399   0.96028   0.00000  Uiso   1.00
C1221  C     0.87779   0.43758   0.98038   0.00000  Uiso   1.00
C1222  C     0.94758   0.50690   0.74144   0.00000  Uiso   1.00
C1223  C     0.86873   0.44470   0.52165   0.00000  Uiso   1.00
C1224  C     0.85051   0.48174   0.54134   0.00000  Uiso   1.00
C1225  C     0.87880   0.41685   0.54377   0.00000  Uiso   1.00
C1226  C     0.87477   0.42790   0.58396   0.00000  Uiso   1.00
C1227  C     0.85506   0.49576   0.57958   0.00000  Uiso   1.00
C1228  C     0.99319   0.51117   0.73977   0.00000  Uiso   1.00
C1229  C     0.67376   0.48940   0.76238   0.00000  Uiso   1.00
C1230  C     0.79370   0.57156   0.91780   0.00000  Uiso   1.00
C1231  C     0.84657   0.65541   0.73913   0.00000  Uiso   1.00
C1232  C     0.81703   0.34595   0.76258   0.00000  Uiso   1.00
C1233  C     0.82291   0.38960   0.75851   0.00000  Uiso   1.00
C1234  C     0.84325   0.61091   0.74154   0.00000  Uiso   1.00
C1235  C     0.85490   0.47815   0.64411   0.00000  Uiso   1.00
C1236  C     0.81233   0.52133   0.85615   0.00000  Uiso   1.00
C1237  C     0.80605   0.53230   0.89894   0.00000  Uiso   1.00
C1238  C     0.86327   0.46760   0.60164   0.00000  Uiso   1.00
C1239  C     0.78848   0.58090   0.95824   0.00000  Uiso   1.00
C1240  C     0.85624   0.34869   0.52879   0.00000  Uiso   1.00
C1241  C     0.81432   0.50346   0.92086   0.00000  Uiso   1.00
C1242  C     0.99043   0.45384   0.81763   0.00000  Uiso   1.00
C1243  C     0.89081   0.56112   0.57853   0.00000  Uiso   1.00
C1244  C     0.74804   0.50492   0.58887   0.00000  Uiso   1.00
C1245  C     0.81757   0.51670   0.95975   0.00000  Uiso   1.00
C1246  C     0.79986   0.55366   0.97928   0.00000  Uiso   1.00
C1247  C     0.83664   0.49417   0.98027   0.00000  Uiso   1.00
C1248  C     0.83008   0.50396   0.52154   0.00000  Uiso   1.00
C1249  C     0.80177   0.53441   0.54143   0.00000  Uiso   1.00
C1250  C     0.79122   0.56165   0.52004   0.00000  Uiso   1.00
H1251  H     0.77321   0.58729   0.53570   0.00000  Uiso   1.00
H1252  H     0.99460   0.48450   0.83540   0.00000  Uiso   1.00
H1253  H     0.68648   0.43763   0.81043   0.00000  Uiso   1.00
H1254  H     0.96372   0.43419   0.83603   0.00000  Uiso   1.00
H1255  H     0.75235   0.33659   0.78433   0.00000  Uiso   1.00
H1256  H     0.77989   0.34553   0.81867   0.00000  Uiso   1.00
H1257  H     0.89499   0.56190   0.54661   0.00000  Uiso   1.00
H1258  H     0.91923   0.54962   0.58314   0.00000  Uiso   1.00
H1259  H     0.88927   0.59367   0.59287   0.00000  Uiso   1.00
H1260  H     0.85684   0.39082   0.62809   0.00000  Uiso   1.00
H1261  H     0.90841   0.41375   0.61900   0.00000  Uiso   1.00
H1262  H     0.87404   0.33596   0.71763   0.00000  Uiso   1.00
H1263  H     0.93056   0.41906   0.93903   0.00000  Uiso   1.00
H1264  H     0.88511   0.38581   0.94126   0.00000  Uiso   1.00
H1265  H     0.80597   0.62910   0.89981   0.00000  Uiso   1.00
H1266  H     0.75384   0.60855   0.90879   0.00000  Uiso   1.00
H1267  H     0.83824   0.45054   0.88817   0.00000  Uiso   1.00
H1268  H     0.79763   0.44132   0.92983   0.00000  Uiso   1.00
H1269  H     0.73132   0.50820   0.62075   0.00000  Uiso   1.00
H1270  H     0.75988   0.47364   0.58132   0.00000  Uiso   1.00
H1271  H     0.72404   0.50704   0.57275   0.00000  Uiso   1.00
H1272  H     0.77633   0.60996   0.97303   0.00000  Uiso   1.00
H1273  H     0.87608   0.46057   0.92871   0.00000  Uiso   1.00
H1274  H     0.86723   0.65146   0.51455   0.00000  Uiso   1.00
H1275  H     0.83824   0.34473   0.55987   0.00000  Uiso   1.00
H1276  H     0.83446   0.35688   0.51283   0.00000  Uiso   1.00
H1277  H     0.71252   0.52352   0.69428   0.00000  Uiso   1.00
H1278  H     0.70346   0.56281   0.73163   0.00000  Uiso   1.00
N1279  N     0.68873   0.53981   0.71450   0.00000  Uiso   1.00
N1280  N     0.77950   0.66304   0.79105   0.00000  Uiso   1.00
N1281  N     0.88448   0.39898   0.60590   0.00000  Uiso   1.00
N1282  N     0.90310   0.40525   0.95822   0.00000  Uiso   1.00
N1283  N     0.78554   0.60173   0.89628   0.00000  Uiso   1.00
N1284  N     0.80919   0.45974   0.90658   0.00000  Uiso   1.00
O1285  O     0.83333   0.50000   0.75000   0.00000  Uiso   1.00
O1286  O     0.82360   0.45726   0.66625   0.00000  Uiso   1.00
O1287  O     0.79354   0.53979   0.83749   0.00000  Uiso   1.00
O1288  O     0.87755   0.50826   0.65877   0.00000  Uiso   1.00
O1289  O     0.83865   0.49468   0.83749   0.00000  Uiso   1.00
O1290  O     0.89264   0.37862   0.52654   0.00000  Uiso   1.00
O1291  O     0.97951   0.45828   0.78309   0.00000  Uiso   1.00
O1292  O     0.85227   0.53689   0.59584   0.00000  Uiso   1.00
O1293  O     0.78229   0.53721   0.58145   0.00000  Uiso   1.00
O1294  O     0.84515   0.41434   0.77821   0.00000  Uiso   1.00
O1295  O     0.81247   0.59469   0.76767   0.00000  Uiso   1.00
O1296  O     0.74119   0.46584   0.73607   0.00000  Uiso   1.00
O1297  O     0.93452   0.52512   0.71806   0.00000  Uiso   1.00
O1298  O     0.73656   0.52293   0.77820   0.00000  Uiso   1.00
O1299  O     0.92106   0.48610   0.76768   0.00000  Uiso   1.00
O1300  O     0.80467   0.40236   0.73607   0.00000  Uiso   1.00
O1301  O     0.87104   0.58860   0.71806   0.00000  Uiso   1.00
Zn1302 Zn    0.85910   0.47423   0.78278   0.00000  Uiso   1.00
Zn1303 Zn    0.80125   0.45711   0.72258   0.00000  Uiso   1.00
Zn1304 Zn    0.87833   0.52997   0.71188   0.00000  Uiso   1.00
Zn1305 Zn    0.79465   0.53868   0.78277   0.00000  Uiso   1.00
C1306  C     0.05275   0.82657   0.75852   0.00000  Uiso   1.00
C1307  C     0.19755   0.79732   0.96028   0.00000  Uiso   1.00
C1308  C     0.21112   0.77092   0.98038   0.00000  Uiso   1.00
C1309  C     0.28092   0.84023   0.74144   0.00000  Uiso   1.00
C1310  C     0.20207   0.77803   0.52165   0.00000  Uiso   1.00
C1311  C     0.18384   0.81507   0.54134   0.00000  Uiso   1.00
C1312  C     0.21213   0.75018   0.54377   0.00000  Uiso   1.00
C1313  C     0.20810   0.76124   0.58396   0.00000  Uiso   1.00
C1314  C     0.18840   0.82909   0.57958   0.00000  Uiso   1.00
C1315  C     0.32652   0.84450   0.73977   0.00000  Uiso   1.00
C1316  C     0.00709   0.82273   0.76238   0.00000  Uiso   1.00
C1317  C     0.12703   0.90489   0.91780   0.00000  Uiso   1.00
C1318  C     0.17990   0.98874   0.73913   0.00000  Uiso   1.00
C1319  C     0.15037   0.67928   0.76258   0.00000  Uiso   1.00
C1320  C     0.15624   0.72293   0.75851   0.00000  Uiso   1.00
C1321  C     0.17658   0.94424   0.74154   0.00000  Uiso   1.00
C1322  C     0.18823   0.81148   0.64411   0.00000  Uiso   1.00
C1323  C     0.14567   0.85467   0.85615   0.00000  Uiso   1.00
C1324  C     0.13938   0.86563   0.89894   0.00000  Uiso   1.00
C1325  C     0.19660   0.80093   0.60164   0.00000  Uiso   1.00
C1326  C     0.12182   0.91423   0.95824   0.00000  Uiso   1.00
C1327  C     0.18957   0.68202   0.52879   0.00000  Uiso   1.00
C1328  C     0.14765   0.83679   0.92086   0.00000  Uiso   1.00
C1329  C     0.32376   0.78717   0.81763   0.00000  Uiso   1.00
C1330  C     0.22414   0.89445   0.57853   0.00000  Uiso   1.00
C1331  C     0.08138   0.83825   0.58887   0.00000  Uiso   1.00
C1332  C     0.15090   0.85004   0.95975   0.00000  Uiso   1.00
C1333  C     0.13320   0.88699   0.97928   0.00000  Uiso   1.00
C1334  C     0.16997   0.82751   0.98027   0.00000  Uiso   1.00
C1335  C     0.16341   0.83729   0.52154   0.00000  Uiso   1.00
C1336  C     0.13510   0.86774   0.54143   0.00000  Uiso   1.00
C1337  C     0.12455   0.89498   0.52004   0.00000  Uiso   1.00
H1338  H     0.10654   0.92063   0.53570   0.00000  Uiso   1.00
H1339  H     0.32793   0.81784   0.83540   0.00000  Uiso   1.00
H1340  H     0.01982   0.77096   0.81043   0.00000  Uiso   1.00
H1341  H     0.29705   0.76752   0.83603   0.00000  Uiso   1.00
H1342  H     0.08569   0.66992   0.78433   0.00000  Uiso   1.00
H1343  H     0.11323   0.67886   0.81867   0.00000  Uiso   1.00
H1344  H     0.22832   0.89523   0.54661   0.00000  Uiso   1.00
H1345  H     0.25256   0.88295   0.58314   0.00000  Uiso   1.00
H1346  H     0.22260   0.92701   0.59287   0.00000  Uiso   1.00
H1347  H     0.19017   0.72416   0.62809   0.00000  Uiso   1.00
H1348  H     0.24175   0.74708   0.61900   0.00000  Uiso   1.00
H1349  H     0.20737   0.66930   0.71763   0.00000  Uiso   1.00
H1350  H     0.26389   0.75240   0.93903   0.00000  Uiso   1.00
H1351  H     0.21844   0.71914   0.94126   0.00000  Uiso   1.00
H1352  H     0.13930   0.96243   0.89981   0.00000  Uiso   1.00
H1353  H     0.08717   0.94188   0.90879   0.00000  Uiso   1.00
H1354  H     0.17158   0.78387   0.88817   0.00000  Uiso   1.00
H1355  H     0.13096   0.77466   0.92983   0.00000  Uiso   1.00
H1356  H     0.06465   0.84153   0.62075   0.00000  Uiso   1.00
H1357  H     0.09322   0.80697   0.58132   0.00000  Uiso   1.00
H1358  H     0.05737   0.84037   0.57275   0.00000  Uiso   1.00
H1359  H     0.10966   0.94329   0.97303   0.00000  Uiso   1.00
H1360  H     0.20941   0.79390   0.92871   0.00000  Uiso   1.00
H1361  H     0.20057   0.98479   0.51455   0.00000  Uiso   1.00
H1362  H     0.17158   0.67806   0.55987   0.00000  Uiso   1.00
H1363  H     0.16780   0.69021   0.51283   0.00000  Uiso   1.00
H1364  H     0.04586   0.85685   0.69428   0.00000  Uiso   1.00
H1365  H     0.03680   0.89615   0.73163   0.00000  Uiso   1.00
N1366  N     0.02206   0.87315   0.71450   0.00000  Uiso   1.00
N1367  N     0.11283   0.99637   0.79105   0.00000  Uiso   1.00
N1368  N     0.21781   0.73231   0.60590   0.00000  Uiso   1.00
N1369  N     0.23643   0.73858   0.95822   0.00000  Uiso   1.00
N1370  N     0.11888   0.93507   0.89628   0.00000  Uiso   1.00
N1371  N     0.14252   0.79307   0.90658   0.00000  Uiso   1.00
O1372  O     0.16667   0.83333   0.75000   0.00000  Uiso   1.00
O1373  O     0.15693   0.79060   0.66625   0.00000  Uiso   1.00
O1374  O     0.12687   0.87313   0.83749   0.00000  Uiso   1.00
O1375  O     0.21088   0.84159   0.65877   0.00000  Uiso   1.00
O1376  O     0.17198   0.82802   0.83749   0.00000  Uiso   1.00
O1377  O     0.22598   0.71195   0.52654   0.00000  Uiso   1.00
O1378  O     0.31285   0.79162   0.78309   0.00000  Uiso   1.00
O1379  O     0.18561   0.87022   0.59584   0.00000  Uiso   1.00
O1380  O     0.11563   0.87054   0.58145   0.00000  Uiso   1.00
O1381  O     0.17849   0.74768   0.77821   0.00000  Uiso   1.00
O1382  O     0.14581   0.92803   0.76767   0.00000  Uiso   1.00
O1383  O     0.07452   0.79917   0.73607   0.00000  Uiso   1.00
O1384  O     0.26785   0.85845   0.71806   0.00000  Uiso   1.00
O1385  O     0.06990   0.85627   0.77820   0.00000  Uiso   1.00
O1386  O     0.25440   0.81944   0.76768   0.00000  Uiso   1.00
O1387  O     0.13800   0.73570   0.73607   0.00000  Uiso   1.00
O1388  O     0.20437   0.92193   0.71806   0.00000  Uiso   1.00
Zn1389 Zn    0.19244   0.80756   0.78278   0.00000  Uiso   1.00
Zn1390 Zn    0.13459   0.79044   0.72258   0.00000  Uiso   1.00
Zn1391 Zn    0.21166   0.86331   0.71188   0.00000  Uiso   1.00
Zn1392 Zn    0.12798   0.87202   0.78277   0.00000  Uiso   1.00
C1393  C     0.38608   0.82657   0.75852   0.00000  Uiso   1.00
C1394  C     0.53089   0.79732   0.96028   0.00000  Uiso   1.00
C1395  C     0.54445   0.77092   0.98038   0.00000  Uiso   1.00
C1396  C     0.61425   0.84023   0.74144   0.00000  Uiso   1.00
C1397  C     0.53540   0.77803   0.52165   0.00000  Uiso   1.00
C1398  C     0.51718   0.81507   0.54134   0.00000  Uiso   1.00
C1399  C     0.54547   0.75018   0.54377   0.00000  Uiso   1.00
C1400  C     0.54143   0.76124   0.58396   0.00000  Uiso   1.00
C1401  C     0.52173   0.82909   0.57958   0.00000  Uiso   1.00
C1402  C     0.65985   0.84450   0.73977   0.00000  Uiso   1.00
C1403  C     0.34042   0.82273   0.76238   0.00000  Uiso   1.00
C1404  C     0.46036   0.90489   0.91780   0.00000  Uiso   1.00
C1405  C     0.51324   0.98874   0.73913   0.00000  Uiso   1.00
C1406  C     0.48370   0.67928   0.76258   0.00000  Uiso   1.00
C1407  C     0.48957   0.72293   0.75851   0.00000  Uiso   1.00
C1408  C     0.50992   0.94424   0.74154   0.00000  Uiso   1.00
C1409  C     0.52156   0.81148   0.64411   0.00000  Uiso   1.00
C1410  C     0.47900   0.85467   0.85615   0.00000  Uiso   1.00
C1411  C     0.47272   0.86563   0.89894   0.00000  Uiso   1.00
C1412  C     0.52993   0.80093   0.60164   0.00000  Uiso   1.00
C1413  C     0.45515   0.91423   0.95824   0.00000  Uiso   1.00
C1414  C     0.52291   0.68202   0.52879   0.00000  Uiso   1.00
C1415  C     0.48098   0.83679   0.92086   0.00000  Uiso   1.00
C1416  C     0.65709   0.78717   0.81763   0.00000  Uiso   1.00
C1417  C     0.55748   0.89445   0.57853   0.00000  Uiso   1.00
C1418  C     0.41471   0.83825   0.58887   0.00000  Uiso   1.00
C1419  C     0.48423   0.85004   0.95975   0.00000  Uiso   1.00
C1420  C     0.46653   0.88699   0.97928   0.00000  Uiso   1.00
C1421  C     0.50330   0.82751   0.98027   0.00000  Uiso   1.00
C1422  C     0.49675   0.83729   0.52154   0.00000  Uiso   1.00
C1423  C     0.46843   0.86774   0.54143   0.00000  Uiso   1.00
C1424  C     0.45789   0.89498   0.52004   0.00000  Uiso   1.00
H1425  H     0.43987   0.92063   0.53570   0.00000  Uiso   1.00
H1426  H     0.66126   0.81784   0.83540   0.00000  Uiso   1.00
H1427  H     0.35315   0.77096   0.81043   0.00000  Uiso   1.00
H1428  H     0.63039   0.76752   0.83603   0.00000  Uiso   1.00
H1429  H     0.41902   0.66992   0.78433   0.00000  Uiso   1.00
H1430  H     0.44656   0.67886   0.81867   0.00000  Uiso   1.00
H1431  H     0.56165   0.89523   0.54661   0.00000  Uiso   1.00
H1432  H     0.58589   0.88295   0.58314   0.00000  Uiso   1.00
H1433  H     0.55593   0.92701   0.59287   0.00000  Uiso   1.00
H1434  H     0.52351   0.72416   0.62809   0.00000  Uiso   1.00
H1435  H     0.57508   0.74708   0.61900   0.00000  Uiso   1.00
H1436  H     0.54070   0.66930   0.71763   0.00000  Uiso   1.00
H1437  H     0.59722   0.75240   0.93903   0.00000  Uiso   1.00
H1438  H     0.55177   0.71914   0.94126   0.00000  Uiso   1.00
H1439  H     0.47264   0.96243   0.89981   0.00000  Uiso   1.00
H1440  H     0.42051   0.94188   0.90879   0.00000  Uiso   1.00
H1441  H     0.50491   0.78387   0.88817   0.00000  Uiso   1.00
H1442  H     0.46429   0.77466   0.92983   0.00000  Uiso   1.00
H1443  H     0.39798   0.84153   0.62075   0.00000  Uiso   1.00
H1444  H     0.42655   0.80697   0.58132   0.00000  Uiso   1.00
H1445  H     0.39071   0.84037   0.57275   0.00000  Uiso   1.00
H1446  H     0.44299   0.94329   0.97303   0.00000  Uiso   1.00
H1447  H     0.54275   0.79390   0.92871   0.00000  Uiso   1.00
H1448  H     0.53390   0.98479   0.51455   0.00000  Uiso   1.00
H1449  H     0.50491   0.67806   0.55987   0.00000  Uiso   1.00
H1450  H     0.50113   0.69021   0.51283   0.00000  Uiso   1.00
H1451  H     0.37919   0.85685   0.69428   0.00000  Uiso   1.00
H1452  H     0.37013   0.89615   0.73163   0.00000  Uiso   1.00
N1453  N     0.35540   0.87315   0.71450   0.00000  Uiso   1.00
N1454  N     0.44617   0.99637   0.79105   0.00000  Uiso   1.00
N1455  N     0.55115   0.73231   0.60590   0.00000  Uiso   1.00
N1456  N     0.56976   0.73858   0.95822   0.00000  Uiso   1.00
N1457  N     0.45221   0.93507   0.89628   0.00000  Uiso   1.00
N1458  N     0.47586   0.79307   0.90658   0.00000  Uiso   1.00
O1459  O     0.50000   0.83333   0.75000   0.00000  Uiso   1.00
O1460  O     0.49027   0.79060   0.66625   0.00000  Uiso   1.00
O1461  O     0.46020   0.87313   0.83749   0.00000  Uiso   1.00
O1462  O     0.54421   0.84159   0.65877   0.00000  Uiso   1.00
O1463  O     0.50532   0.82802   0.83749   0.00000  Uiso   1.00
O1464  O     0.55931   0.71195   0.52654   0.00000  Uiso   1.00
O1465  O     0.64618   0.79162   0.78309   0.00000  Uiso   1.00
O1466  O     0.51894   0.87022   0.59584   0.00000  Uiso   1.00
O1467  O     0.44896   0.87054   0.58145   0.00000  Uiso   1.00
O1468  O     0.51182   0.74768   0.77821   0.00000  Uiso   1.00
O1469  O     0.47914   0.92803   0.76767   0.00000  Uiso   1.00
O1470  O     0.40785   0.79917   0.73607   0.00000  Uiso   1.00
O1471  O     0.60119   0.85845   0.71806   0.00000  Uiso   1.00
O1472  O     0.40323   0.85627   0.77820   0.00000  Uiso   1.00
O1473  O     0.58773   0.81944   0.76768   0.00000  Uiso   1.00
O1474  O     0.47133   0.73570   0.73607   0.00000  Uiso   1.00
O1475  O     0.53771   0.92193   0.71806   0.00000  Uiso   1.00
Zn1476 Zn    0.52577   0.80756   0.78278   0.00000  Uiso   1.00
Zn1477 Zn    0.46792   0.79044   0.72258   0.00000  Uiso   1.00
Zn1478 Zn    0.54500   0.86331   0.71188   0.00000  Uiso   1.00
Zn1479 Zn    0.46131   0.87202   0.78277   0.00000  Uiso   1.00
C1480  C     0.71942   0.82657   0.75852   0.00000  Uiso   1.00
C1481  C     0.86422   0.79732   0.96028   0.00000  Uiso   1.00
C1482  C     0.87779   0.77092   0.98038   0.00000  Uiso   1.00
C1483  C     0.94758   0.84023   0.74144   0.00000  Uiso   1.00
C1484  C     0.86873   0.77803   0.52165   0.00000  Uiso   1.00
C1485  C     0.85051   0.81507   0.54134   0.00000  Uiso   1.00
C1486  C     0.87880   0.75018   0.54377   0.00000  Uiso   1.00
C1487  C     0.87477   0.76124   0.58396   0.00000  Uiso   1.00
C1488  C     0.85506   0.82909   0.57958   0.00000  Uiso   1.00
C1489  C     0.99319   0.84450   0.73977   0.00000  Uiso   1.00
C1490  C     0.67376   0.82273   0.76238   0.00000  Uiso   1.00
C1491  C     0.79370   0.90489   0.91780   0.00000  Uiso   1.00
C1492  C     0.84657   0.98874   0.73913   0.00000  Uiso   1.00
C1493  C     0.81703   0.67928   0.76258   0.00000  Uiso   1.00
C1494  C     0.82291   0.72293   0.75851   0.00000  Uiso   1.00
C1495  C     0.84325   0.94424   0.74154   0.00000  Uiso   1.00
C1496  C     0.85490   0.81148   0.64411   0.00000  Uiso   1.00
C1497  C     0.81233   0.85467   0.85615   0.00000  Uiso   1.00
C1498  C     0.80605   0.86563   0.89894   0.00000  Uiso   1.00
C1499  C     0.86327   0.80093   0.60164   0.00000  Uiso   1.00
C1500  C     0.78848   0.91423   0.95824   0.00000  Uiso   1.00
C1501  C     0.85624   0.68202   0.52879   0.00000  Uiso   1.00
C1502  C     0.81432   0.83679   0.92086   0.00000  Uiso   1.00
C1503  C     0.99043   0.78717   0.81763   0.00000  Uiso   1.00
C1504  C     0.89081   0.89445   0.57853   0.00000  Uiso   1.00
C1505  C     0.74804   0.83825   0.58887   0.00000  Uiso   1.00
C1506  C     0.81757   0.85004   0.95975   0.00000  Uiso   1.00
C1507  C     0.79986   0.88699   0.97928   0.00000  Uiso   1.00
C1508  C     0.83664   0.82751   0.98027   0.00000  Uiso   1.00
C1509  C     0.83008   0.83729   0.52154   0.00000  Uiso   1.00
C1510  C     0.80177   0.86774   0.54143   0.00000  Uiso   1.00
C1511  C     0.79122   0.89498   0.52004   0.00000  Uiso   1.00
H1512  H     0.77321   0.92063   0.53570   0.00000  Uiso   1.00
H1513  H     0.99460   0.81784   0.83540   0.00000  Uiso   1.00
H1514  H     0.68648   0.77096   0.81043   0.00000  Uiso   1.00
H1515  H     0.96372   0.76752   0.83603   0.00000  Uiso   1.00
H1516  H     0.75235   0.66992   0.78433   0.00000  Uiso   1.00
H1517  H     0.77989   0.67886   0.81867   0.00000  Uiso   1.00
H1518  H     0.89499   0.89523   0.54661   0.00000  Uiso   1.00
H1519  H     0.91923   0.88295   0.58314   0.00000  Uiso   1.00
H1520  H     0.88927   0.92701   0.59287   0.00000  Uiso   1.00
H1521  H     0.85684   0.72416   0.62809   0.00000  Uiso   1.00
H1522  H     0.90841   0.74708   0.61900   0.00000  Uiso   1.00
H1523  H     0.87404   0.66930   0.71763   0.00000  Uiso   1.00
H1524  H     0.93056   0.75240   0.93903   0.00000  Uiso   1.00
H1525  H     0.88511   0.71914   0.94126   0.00000  Uiso   1.00
H1526  H     0.80597   0.96243   0.89981   0.00000  Uiso   1.00
H1527  H     0.75384   0.94188   0.90879   0.00000  Uiso   1.00
H1528  H     0.83824   0.78387   0.88817   0.00000  Uiso   1.00
H1529  H     0.79763   0.77466   0.92983   0.00000  Uiso   1.00
H1530  H     0.73132   0.84153   0.62075   0.00000  Uiso   1.00
H1531  H     0.75988   0.80697   0.58132   0.00000  Uiso   1.00
H1532  H     0.72404   0.84037   0.57275   0.00000  Uiso   1.00
H1533  H     0.77633   0.94329   0.97303   0.00000  Uiso   1.00
H1534  H     0.87608   0.79390   0.92871   0.00000  Uiso   1.00
H1535  H     0.86723   0.98479   0.51455   0.00000  Uiso   1.00
H1536  H     0.83824   0.67806   0.55987   0.00000  Uiso   1.00
H1537  H     0.83446   0.69021   0.51283   0.00000  Uiso   1.00
H1538  H     0.71252   0.85685   0.69428   0.00000  Uiso   1.00
H1539  H     0.70346   0.89615   0.73163   0.00000  Uiso   1.00
N1540  N     0.68873   0.87315   0.71450   0.00000  Uiso   1.00
N1541  N     0.77950   0.99637   0.79105   0.00000  Uiso   1.00
N1542  N     0.88448   0.73231   0.60590   0.00000  Uiso   1.00
N1543  N     0.90310   0.73858   0.95822   0.00000  Uiso   1.00
N1544  N     0.78554   0.93507   0.89628   0.00000  Uiso   1.00
N1545  N     0.80919   0.79307   0.90658   0.00000  Uiso   1.00
O1546  O     0.83333   0.83333   0.75000   0.00000  Uiso   1.00
O1547  O     0.82360   0.79060   0.66625   0.00000  Uiso   1.00
O1548  O     0.79354   0.87313   0.83749   0.00000  Uiso   1.00
O1549  O     0.87755   0.84159   0.65877   0.00000  Uiso   1.00
O1550  O     0.83865   0.82802   0.83749   0.00000  Uiso   1.00
O1551  O     0.89264   0.71195   0.52654   0.00000  Uiso   1.00
O1552  O     0.97951   0.79162   0.78309   0.00000  Uiso   1.00
O1553  O     0.85227   0.87022   0.59584   0.00000  Uiso   1.00
O1554  O     0.78229   0.87054   0.58145   0.00000  Uiso   1.00
O1555  O     0.84515   0.74768   0.77821   0.00000  Uiso   1.00
O1556  O     0.81247   0.92803   0.76767   0.00000  Uiso   1.00
O1557  O     0.74119   0.79917   0.73607   0.00000  Uiso   1.00
O1558  O     0.93452   0.85845   0.71806   0.00000  Uiso   1.00
O1559  O     0.73656   0.85627   0.77820   0.00000  Uiso   1.00
O1560  O     0.92106   0.81944   0.76768   0.00000  Uiso   1.00
O1561  O     0.80467   0.73570   0.73607   0.00000  Uiso   1.00
O1562  O     0.87104   0.92193   0.71806   0.00000  Uiso   1.00
Zn1563 Zn    0.85910   0.80756   0.78278   0.00000  Uiso   1.00
Zn1564 Zn    0.80125   0.79044   0.72258   0.00000  Uiso   1.00
Zn1565 Zn    0.87833   0.86331   0.71188   0.00000  Uiso   1.00
Zn1566 Zn    0.79465   0.87202   0.78277   0.00000  Uiso   1.00
loop_
_geom_bond_atom_site_label_1
_geom_bond_atom_site_label_2
_geom_bond_distance
_geom_bond_site_symmetry_2
_ccdc_geom_bond_type
C1     C11     1.446   .     S
C1     O78     1.263   .     A
C1     O80     1.268   .     A
C2     C29     1.405   .     A
C2     H55     1.076   .     S
C2     C3      1.392   .     A
C3     N64     1.434   .     S
C3     C788    1.408   .     S
C4     O81     1.278   .     A
C4     O79     1.290   .     A
C4     C10     1.460   .     S
C5     C7      1.418   .     A
C5     C6      1.424   .     A
C5     C786    1.408   1_554 S
C6     C9      1.417   .     A
C6     C30     1.429   .     A
C7     C8      1.400   .     A
C7     O72     1.384   .     S
C8     C20     1.407   .     A
C8     N63     1.435   .     S
C9     C20     1.396   .     A
C9     O74     1.385   .     S
C10    C98     1.358   .     S
C10    N148    1.440   .     S
C11    C184    1.358   1_455 S
C11    O247    1.398   1_455 S
C12    C21     1.397   .     A
C12    N65     1.433   .     S
C12    C19     1.413   .     A
C13    C16     1.452   .     S
C13    C275    1.342   .     S
C13    H305    1.088   .     S
C14    C15     1.431   .     S
C14    C535    1.342   1_545 S
C14    N584    1.437   1_545 S
C15    O76     1.275   .     A
C15    O82     1.273   .     A
C16    O77     1.268   .     A
C16    O83     1.278   .     A
C17    C20     1.459   .     S
C17    O68     1.273   .     A
C17    O70     1.280   .     A
C18    O69     1.285   .     A
C18    C19     1.478   .     S
C18    O71     1.288   .     A
C19    C23     1.410   .     A
C21    H54     1.085   .     S
C21    C28     1.397   .     A
C22    H57     1.113   .     S
C22    O72     1.412   .     S
C22    H58     1.113   .     S
C22    H578    1.110   1_545 S
C23    N66     1.442   .     S
C23    C27     1.421   .     A
C24    H36     1.109   .     S
C24    O73     1.412   .     S
C24    H34     1.114   .     S
C24    H122    1.112   .     S
C25    O74     1.410   .     S
C25    H40     1.114   .     S
C25    H41     1.109   .     S
C25    H39     1.112   .     S
C26    H52     1.113   .     S
C26    O75     1.410   .     S
C26    H53     1.114   .     S
C26    H51     1.108   .     S
C27    C29     1.424   .     A
C27    C28     1.413   .     A
C28    C815    1.393   .     S
C29    C813    1.421   .     S
C30    C31     1.425   .     A
C30    C812    1.421   1_554 S
C31    O75     1.382   .     S
C31    C32     1.392   .     A
C32    H33     1.084   .     S
C32    C811    1.393   1_554 S
H35    C198    1.112   1_455 S
H37    N584    1.046   1_545 S
H38    N584    1.046   1_545 S
H42    N63     1.045   .     S
H43    N63     1.046   .     S
H44    C535    1.088   1_545 S
H45    N64     1.046   .     S
H46    N64     1.046   .     S
H47    N65     1.046   .     S
H48    N65     1.046   .     S
H49    N66     1.044   .     S
H50    N66     1.045   .     S
H56    C283    1.110   .     S
H59    N61     1.045   .     S
H60    N61     1.046   .     S
N61    C184    1.440   1_455 S
N62    C275    1.437   .     S
N62    H299    1.046   .     S
N62    H298    1.046   .     S
O67    Zn85    1.939   .     S
O67    Zn86    1.944   .     S
O67    Zn87    1.934   .     S
O67    Zn84    1.965   .     S
O68    Zn85    1.933   .     S
O69    Zn87    1.940   .     S
O70    Zn86    1.930   .     S
O71    Zn84    1.924   .     S
O73    C98     1.398   .     S
O76    Zn84    1.931   .     S
O77    Zn87    1.939   .     S
O78    Zn85    1.935   .     S
O79    Zn86    1.943   .     S
O80    Zn87    1.937   .     S
O81    Zn84    1.932   .     S
O82    Zn85    1.944   .     S
O83    Zn86    1.934   .     S
C88    C98     1.446   .     S
C88    O165    1.263   .     A
C88    O167    1.268   .     A
C89    C116    1.405   .     A
C89    H142    1.076   .     S
C89    C90     1.392   .     A
C90    N151    1.434   .     S
C90    C875    1.408   .     S
C91    O168    1.278   .     A
C91    O166    1.290   .     A
C91    C97     1.460   .     S
C92    C94     1.418   .     A
C92    C93     1.424   .     A
C92    C873    1.408   1_554 S
C93    C96     1.417   .     A
C93    C117    1.429   .     A
C94    C95     1.400   .     A
C94    O159    1.384   .     S
C95    C107    1.407   .     A
C95    N150    1.435   .     S
C96    C107    1.396   .     A
C96    O161    1.385   .     S
C97    C185    1.358   .     S
C97    N235    1.440   .     S
C99    C108    1.397   .     A
C99    N152    1.433   .     S
C99    C106    1.413   .     A
C100   C103    1.452   .     S
C100   C362    1.342   .     S
C100   H392    1.088   .     S
C101   C102    1.431   .     S
C101   C622    1.342   1_545 S
C101   N671    1.437   1_545 S
C102   O163    1.275   .     A
C102   O169    1.273   .     A
C103   O164    1.268   .     A
C103   O170    1.278   .     A
C104   C107    1.459   .     S
C104   O155    1.273   .     A
C104   O157    1.280   .     A
C105   O156    1.285   .     A
C105   C106    1.478   .     S
C105   O158    1.288   .     A
C106   C110    1.410   .     A
C108   H141    1.085   .     S
C108   C115    1.397   .     A
C109   H144    1.113   .     S
C109   O159    1.412   .     S
C109   H145    1.113   .     S
C109   H665    1.110   1_545 S
C110   N153    1.442   .     S
C110   C114    1.421   .     A
C111   H123    1.109   .     S
C111   O160    1.412   .     S
C111   H121    1.114   .     S
C111   H209    1.112   .     S
C112   O161    1.410   .     S
C112   H127    1.114   .     S
C112   H128    1.109   .     S
C112   H126    1.112   .     S
C113   H139    1.113   .     S
C113   O162    1.410   .     S
C113   H140    1.114   .     S
C113   H138    1.108   .     S
C114   C116    1.424   .     A
C114   C115    1.413   .     A
C115   C902    1.393   .     S
C116   C900    1.421   .     S
C117   C118    1.425   .     A
C117   C899    1.421   1_554 S
C118   O162    1.382   .     S
C118   C119    1.392   .     A
C119   H120    1.084   .     S
C119   C898    1.393   1_554 S
H124   N671    1.046   1_545 S
H125   N671    1.046   1_545 S
H129   N150    1.045   .     S
H130   N150    1.046   .     S
H131   C622    1.088   1_545 S
H132   N151    1.046   .     S
H133   N151    1.046   .     S
H134   N152    1.046   .     S
H135   N152    1.046   .     S
H136   N153    1.044   .     S
H137   N153    1.045   .     S
H143   C370    1.110   .     S
H146   N148    1.045   .     S
H147   N148    1.046   .     S
N149   C362    1.437   .     S
N149   H386    1.046   .     S
N149   H385    1.046   .     S
O154   Zn172   1.939   .     S
O154   Zn173   1.944   .     S
O154   Zn174   1.934   .     S
O154   Zn171   1.965   .     S
O155   Zn172   1.933   .     S
O156   Zn174   1.940   .     S
O157   Zn173   1.930   .     S
O158   Zn171   1.924   .     S
O160   C185    1.398   .     S
O163   Zn171   1.931   .     S
O164   Zn174   1.939   .     S
O165   Zn172   1.935   .     S
O166   Zn173   1.943   .     S
O167   Zn174   1.937   .     S
O168   Zn171   1.932   .     S
O169   Zn172   1.944   .     S
O170   Zn173   1.934   .     S
C175   C185    1.446   .     S
C175   O252    1.263   .     A
C175   O254    1.268   .     A
C176   C203    1.405   .     A
C176   H229    1.076   .     S
C176   C177    1.392   .     A
C177   N238    1.434   .     S
C177   C962    1.408   .     S
C178   O255    1.278   .     A
C178   O253    1.290   .     A
C178   C184    1.460   .     S
C179   C181    1.418   .     A
C179   C180    1.424   .     A
C179   C960    1.408   1_554 S
C180   C183    1.417   .     A
C180   C204    1.429   .     A
C181   C182    1.400   .     A
C181   O246    1.384   .     S
C182   C194    1.407   .     A
C182   N237    1.435   .     S
C183   C194    1.396   .     A
C183   O248    1.385   .     S
C184   C11     1.358   1_655 S
C184   N61     1.440   1_655 S
C186   C195    1.397   .     A
C186   N239    1.433   .     S
C186   C193    1.413   .     A
C187   C190    1.452   .     S
C187   C449    1.342   .     S
C187   H479    1.088   .     S
C188   C189    1.431   .     S
C188   C709    1.342   1_545 S
C188   N758    1.437   1_545 S
C189   O250    1.275   .     A
C189   O256    1.273   .     A
C190   O251    1.268   .     A
C190   O257    1.278   .     A
C191   C194    1.459   .     S
C191   O242    1.273   .     A
C191   O244    1.280   .     A
C192   O243    1.285   .     A
C192   C193    1.478   .     S
C192   O245    1.288   .     A
C193   C197    1.410   .     A
C195   H228    1.085   .     S
C195   C202    1.397   .     A
C196   H231    1.113   .     S
C196   O246    1.412   .     S
C196   H232    1.113   .     S
C196   H752    1.110   1_545 S
C197   N240    1.442   .     S
C197   C201    1.421   .     A
C198   H210    1.109   .     S
C198   O247    1.412   .     S
C198   H208    1.114   .     S
C198   H35     1.112   1_655 S
C199   O248    1.410   .     S
C199   H214    1.114   .     S
C199   H215    1.109   .     S
C199   H213    1.112   .     S
C200   H226    1.113   .     S
C200   O249    1.410   .     S
C200   H227    1.114   .     S
C200   H225    1.108   .     S
C201   C203    1.424   .     A
C201   C202    1.413   .     A
C202   C989    1.393   .     S
C203   C987    1.421   .     S
C204   C205    1.425   .     A
C204   C986    1.421   1_554 S
C205   O249    1.382   .     S
C205   C206    1.392   .     A
C206   H207    1.084   .     S
C206   C985    1.393   1_554 S
H211   N758    1.046   1_545 S
H212   N758    1.046   1_545 S
H216   N237    1.045   .     S
H217   N237    1.046   .     S
H218   C709    1.088   1_545 S
H219   N238    1.046   .     S
H220   N238    1.046   .     S
H221   N239    1.046   .     S
H222   N239    1.046   .     S
H223   N240    1.044   .     S
H224   N240    1.045   .     S
H230   C457    1.110   .     S
H233   N235    1.045   .     S
H234   N235    1.046   .     S
N236   C449    1.437   .     S
N236   H473    1.046   .     S
N236   H472    1.046   .     S
O241   Zn259   1.939   .     S
O241   Zn260   1.944   .     S
O241   Zn261   1.934   .     S
O241   Zn258   1.965   .     S
O242   Zn259   1.933   .     S
O243   Zn261   1.940   .     S
O244   Zn260   1.930   .     S
O245   Zn258   1.924   .     S
O247   C11     1.398   1_655 S
O250   Zn258   1.931   .     S
O251   Zn261   1.939   .     S
O252   Zn259   1.935   .     S
O253   Zn260   1.943   .     S
O254   Zn261   1.937   .     S
O255   Zn258   1.932   .     S
O256   Zn259   1.944   .     S
O257   Zn260   1.934   .     S
C262   C272    1.446   .     S
C262   O339    1.263   .     A
C262   O341    1.268   .     A
C263   C290    1.405   .     A
C263   H316    1.076   .     S
C263   C264    1.392   .     A
C264   N325    1.434   .     S
C264   C1049   1.408   .     S
C265   O342    1.278   .     A
C265   O340    1.290   .     A
C265   C271    1.460   .     S
C266   C268    1.418   .     A
C266   C267    1.424   .     A
C266   C1047   1.408   1_554 S
C267   C270    1.417   .     A
C267   C291    1.429   .     A
C268   C269    1.400   .     A
C268   O333    1.384   .     S
C269   C281    1.407   .     A
C269   N324    1.435   .     S
C270   C281    1.396   .     A
C270   O335    1.385   .     S
C271   C359    1.358   .     S
C271   N409    1.440   .     S
C272   C445    1.358   1_455 S
C272   O508    1.398   1_455 S
C273   C282    1.397   .     A
C273   N326    1.433   .     S
C273   C280    1.413   .     A
C274   C277    1.452   .     S
C274   C536    1.342   .     S
C274   H566    1.088   .     S
C275   C276    1.431   .     S
C276   O337    1.275   .     A
C276   O343    1.273   .     A
C277   O338    1.268   .     A
C277   O344    1.278   .     A
C278   C281    1.459   .     S
C278   O329    1.273   .     A
C278   O331    1.280   .     A
C279   O330    1.285   .     A
C279   C280    1.478   .     S
C279   O332    1.288   .     A
C280   C284    1.410   .     A
C282   H315    1.085   .     S
C282   C289    1.397   .     A
C283   H318    1.113   .     S
C283   O333    1.412   .     S
C283   H319    1.113   .     S
C284   N327    1.442   .     S
C284   C288    1.421   .     A
C285   H297    1.109   .     S
C285   O334    1.412   .     S
C285   H295    1.114   .     S
C285   H383    1.112   .     S
C286   O335    1.410   .     S
C286   H301    1.114   .     S
C286   H302    1.109   .     S
C286   H300    1.112   .     S
C287   H313    1.113   .     S
C287   O336    1.410   .     S
C287   H314    1.114   .     S
C287   H312    1.108   .     S
C288   C290    1.424   .     A
C288   C289    1.413   .     A
C289   C1076   1.393   .     S
C290   C1074   1.421   .     S
C291   C292    1.425   .     A
C291   C1073   1.421   1_554 S
C292   O336    1.382   .     S
C292   C293    1.392   .     A
C293   H294    1.084   .     S
C293   C1072   1.393   1_554 S
H296   C459    1.112   1_455 S
H303   N324    1.045   .     S
H304   N324    1.046   .     S
H306   N325    1.046   .     S
H307   N325    1.046   .     S
H308   N326    1.046   .     S
H309   N326    1.046   .     S
H310   N327    1.044   .     S
H311   N327    1.045   .     S
H317   C544    1.110   .     S
H320   N322    1.045   .     S
H321   N322    1.046   .     S
N322   C445    1.440   1_455 S
N323   C536    1.437   .     S
N323   H560    1.046   .     S
N323   H559    1.046   .     S
O328   Zn346   1.939   .     S
O328   Zn347   1.944   .     S
O328   Zn348   1.934   .     S
O328   Zn345   1.965   .     S
O329   Zn346   1.933   .     S
O330   Zn348   1.940   .     S
O331   Zn347   1.930   .     S
O332   Zn345   1.924   .     S
O334   C359    1.398   .     S
O337   Zn345   1.931   .     S
O338   Zn348   1.939   .     S
O339   Zn346   1.935   .     S
O340   Zn347   1.943   .     S
O341   Zn348   1.937   .     S
O342   Zn345   1.932   .     S
O343   Zn346   1.944   .     S
O344   Zn347   1.934   .     S
C349   C359    1.446   .     S
C349   O426    1.263   .     A
C349   O428    1.268   .     A
C350   C377    1.405   .     A
C350   H403    1.076   .     S
C350   C351    1.392   .     A
C351   N412    1.434   .     S
C351   C1136   1.408   .     S
C352   O429    1.278   .     A
C352   O427    1.290   .     A
C352   C358    1.460   .     S
C353   C355    1.418   .     A
C353   C354    1.424   .     A
C353   C1134   1.408   1_554 S
C354   C357    1.417   .     A
C354   C378    1.429   .     A
C355   C356    1.400   .     A
C355   O420    1.384   .     S
C356   C368    1.407   .     A
C356   N411    1.435   .     S
C357   C368    1.396   .     A
C357   O422    1.385   .     S
C358   C446    1.358   .     S
C358   N496    1.440   .     S
C360   C369    1.397   .     A
C360   N413    1.433   .     S
C360   C367    1.413   .     A
C361   C364    1.452   .     S
C361   C623    1.342   .     S
C361   H653    1.088   .     S
C362   C363    1.431   .     S
C363   O424    1.275   .     A
C363   O430    1.273   .     A
C364   O425    1.268   .     A
C364   O431    1.278   .     A
C365   C368    1.459   .     S
C365   O416    1.273   .     A
C365   O418    1.280   .     A
C366   O417    1.285   .     A
C366   C367    1.478   .     S
C366   O419    1.288   .     A
C367   C371    1.410   .     A
C369   H402    1.085   .     S
C369   C376    1.397   .     A
C370   H405    1.113   .     S
C370   O420    1.412   .     S
C370   H406    1.113   .     S
C371   N414    1.442   .     S
C371   C375    1.421   .     A
C372   H384    1.109   .     S
C372   O421    1.412   .     S
C372   H382    1.114   .     S
C372   H470    1.112   .     S
C373   O422    1.410   .     S
C373   H388    1.114   .     S
C373   H389    1.109   .     S
C373   H387    1.112   .     S
C374   H400    1.113   .     S
C374   O423    1.410   .     S
C374   H401    1.114   .     S
C374   H399    1.108   .     S
C375   C377    1.424   .     A
C375   C376    1.413   .     A
C376   C1163   1.393   .     S
C377   C1161   1.421   .     S
C378   C379    1.425   .     A
C378   C1160   1.421   1_554 S
C379   O423    1.382   .     S
C379   C380    1.392   .     A
C380   H381    1.084   .     S
C380   C1159   1.393   1_554 S
H390   N411    1.045   .     S
H391   N411    1.046   .     S
H393   N412    1.046   .     S
H394   N412    1.046   .     S
H395   N413    1.046   .     S
H396   N413    1.046   .     S
H397   N414    1.044   .     S
H398   N414    1.045   .     S
H404   C631    1.110   .     S
H407   N409    1.045   .     S
H408   N409    1.046   .     S
N410   C623    1.437   .     S
N410   H647    1.046   .     S
N410   H646    1.046   .     S
O415   Zn433   1.939   .     S
O415   Zn434   1.944   .     S
O415   Zn435   1.934   .     S
O415   Zn432   1.965   .     S
O416   Zn433   1.933   .     S
O417   Zn435   1.940   .     S
O418   Zn434   1.930   .     S
O419   Zn432   1.924   .     S
O421   C446    1.398   .     S
O424   Zn432   1.931   .     S
O425   Zn435   1.939   .     S
O426   Zn433   1.935   .     S
O427   Zn434   1.943   .     S
O428   Zn435   1.937   .     S
O429   Zn432   1.932   .     S
O430   Zn433   1.944   .     S
O431   Zn434   1.934   .     S
C436   C446    1.446   .     S
C436   O513    1.263   .     A
C436   O515    1.268   .     A
C437   C464    1.405   .     A
C437   H490    1.076   .     S
C437   C438    1.392   .     A
C438   N499    1.434   .     S
C438   C1223   1.408   .     S
C439   O516    1.278   .     A
C439   O514    1.290   .     A
C439   C445    1.460   .     S
C440   C442    1.418   .     A
C440   C441    1.424   .     A
C440   C1221   1.408   1_554 S
C441   C444    1.417   .     A
C441   C465    1.429   .     A
C442   C443    1.400   .     A
C442   O507    1.384   .     S
C443   C455    1.407   .     A
C443   N498    1.435   .     S
C444   C455    1.396   .     A
C444   O509    1.385   .     S
C445   C272    1.358   1_655 S
C445   N322    1.440   1_655 S
C447   C456    1.397   .     A
C447   N500    1.433   .     S
C447   C454    1.413   .     A
C448   C451    1.452   .     S
C448   C710    1.342   .     S
C448   H740    1.088   .     S
C449   C450    1.431   .     S
C450   O511    1.275   .     A
C450   O517    1.273   .     A
C451   O512    1.268   .     A
C451   O518    1.278   .     A
C452   C455    1.459   .     S
C452   O503    1.273   .     A
C452   O505    1.280   .     A
C453   O504    1.285   .     A
C453   C454    1.478   .     S
C453   O506    1.288   .     A
C454   C458    1.410   .     A
C456   H489    1.085   .     S
C456   C463    1.397   .     A
C457   H492    1.113   .     S
C457   O507    1.412   .     S
C457   H493    1.113   .     S
C458   N501    1.442   .     S
C458   C462    1.421   .     A
C459   H471    1.109   .     S
C459   O508    1.412   .     S
C459   H469    1.114   .     S
C459   H296    1.112   1_655 S
C460   O509    1.410   .     S
C460   H475    1.114   .     S
C460   H476    1.109   .     S
C460   H474    1.112   .     S
C461   H487    1.113   .     S
C461   O510    1.410   .     S
C461   H488    1.114   .     S
C461   H486    1.108   .     S
C462   C464    1.424   .     A
C462   C463    1.413   .     A
C463   C1250   1.393   .     S
C464   C1248   1.421   .     S
C465   C466    1.425   .     A
C465   C1247   1.421   1_554 S
C466   O510    1.382   .     S
C466   C467    1.392   .     A
C467   H468    1.084   .     S
C467   C1246   1.393   1_554 S
H477   N498    1.045   .     S
H478   N498    1.046   .     S
H480   N499    1.046   .     S
H481   N499    1.046   .     S
H482   N500    1.046   .     S
H483   N500    1.046   .     S
H484   N501    1.044   .     S
H485   N501    1.045   .     S
H491   C718    1.110   .     S
H494   N496    1.045   .     S
H495   N496    1.046   .     S
N497   C710    1.437   .     S
N497   H734    1.046   .     S
N497   H733    1.046   .     S
O502   Zn520   1.939   .     S
O502   Zn521   1.944   .     S
O502   Zn522   1.934   .     S
O502   Zn519   1.965   .     S
O503   Zn520   1.933   .     S
O504   Zn522   1.940   .     S
O505   Zn521   1.930   .     S
O506   Zn519   1.924   .     S
O508   C272    1.398   1_655 S
O511   Zn519   1.931   .     S
O512   Zn522   1.939   .     S
O513   Zn520   1.935   .     S
O514   Zn521   1.943   .     S
O515   Zn522   1.937   .     S
O516   Zn519   1.932   .     S
O517   Zn520   1.944   .     S
O518   Zn521   1.934   .     S
C523   C533    1.446   .     S
C523   O600    1.263   .     A
C523   O602    1.268   .     A
C524   C551    1.405   .     A
C524   H577    1.076   .     S
C524   C525    1.392   .     A
C525   N586    1.434   .     S
C525   C1310   1.408   .     S
C526   O603    1.278   .     A
C526   O601    1.290   .     A
C526   C532    1.460   .     S
C527   C529    1.418   .     A
C527   C528    1.424   .     A
C527   C1308   1.408   1_554 S
C528   C531    1.417   .     A
C528   C552    1.429   .     A
C529   C530    1.400   .     A
C529   O594    1.384   .     S
C530   C542    1.407   .     A
C530   N585    1.435   .     S
C531   C542    1.396   .     A
C531   O596    1.385   .     S
C532   C620    1.358   .     S
C532   N670    1.440   .     S
C533   C706    1.358   1_455 S
C533   O769    1.398   1_455 S
C534   C543    1.397   .     A
C534   N587    1.433   .     S
C534   C541    1.413   .     A
C535   C538    1.452   .     S
C535   C14     1.342   1_565 S
C535   H44     1.088   1_565 S
C536   C537    1.431   .     S
C537   O598    1.275   .     A
C537   O604    1.273   .     A
C538   O599    1.268   .     A
C538   O605    1.278   .     A
C539   C542    1.459   .     S
C539   O590    1.273   .     A
C539   O592    1.280   .     A
C540   O591    1.285   .     A
C540   C541    1.478   .     S
C540   O593    1.288   .     A
C541   C545    1.410   .     A
C543   H576    1.085   .     S
C543   C550    1.397   .     A
C544   H579    1.113   .     S
C544   O594    1.412   .     S
C544   H580    1.113   .     S
C545   N588    1.442   .     S
C545   C549    1.421   .     A
C546   H558    1.109   .     S
C546   O595    1.412   .     S
C546   H556    1.114   .     S
C546   H644    1.112   .     S
C547   O596    1.410   .     S
C547   H562    1.114   .     S
C547   H563    1.109   .     S
C547   H561    1.112   .     S
C548   H574    1.113   .     S
C548   O597    1.410   .     S
C548   H575    1.114   .     S
C548   H573    1.108   .     S
C549   C551    1.424   .     A
C549   C550    1.413   .     A
C550   C1337   1.393   .     S
C551   C1335   1.421   .     S
C552   C553    1.425   .     A
C552   C1334   1.421   1_554 S
C553   O597    1.382   .     S
C553   C554    1.392   .     A
C554   H555    1.084   .     S
C554   C1333   1.393   1_554 S
H557   C720    1.112   1_455 S
H564   N585    1.045   .     S
H565   N585    1.046   .     S
H567   N586    1.046   .     S
H568   N586    1.046   .     S
H569   N587    1.046   .     S
H570   N587    1.046   .     S
H571   N588    1.044   .     S
H572   N588    1.045   .     S
H578   C22     1.110   1_565 S
H581   N583    1.045   .     S
H582   N583    1.046   .     S
N583   C706    1.440   1_455 S
N584   C14     1.437   1_565 S
N584   H38     1.046   1_565 S
N584   H37     1.046   1_565 S
O589   Zn607   1.939   .     S
O589   Zn608   1.944   .     S
O589   Zn609   1.934   .     S
O589   Zn606   1.965   .     S
O590   Zn607   1.933   .     S
O591   Zn609   1.940   .     S
O592   Zn608   1.930   .     S
O593   Zn606   1.924   .     S
O595   C620    1.398   .     S
O598   Zn606   1.931   .     S
O599   Zn609   1.939   .     S
O600   Zn607   1.935   .     S
O601   Zn608   1.943   .     S
O602   Zn609   1.937   .     S
O603   Zn606   1.932   .     S
O604   Zn607   1.944   .     S
O605   Zn608   1.934   .     S
C610   C620    1.446   .     S
C610   O687    1.263   .     A
C610   O689    1.268   .     A
C611   C638    1.405   .     A
C611   H664    1.076   .     S
C611   C612    1.392   .     A
C612   N673    1.434   .     S
C612   C1397   1.408   .     S
C613   O690    1.278   .     A
C613   O688    1.290   .     A
C613   C619    1.460   .     S
C614   C616    1.418   .     A
C614   C615    1.424   .     A
C614   C1395   1.408   1_554 S
C615   C618    1.417   .     A
C615   C639    1.429   .     A
C616   C617    1.400   .     A
C616   O681    1.384   .     S
C617   C629    1.407   .     A
C617   N672    1.435   .     S
C618   C629    1.396   .     A
C618   O683    1.385   .     S
C619   C707    1.358   .     S
C619   N757    1.440   .     S
C621   C630    1.397   .     A
C621   N674    1.433   .     S
C621   C628    1.413   .     A
C622   C625    1.452   .     S
C622   C101    1.342   1_565 S
C622   H131    1.088   1_565 S
C623   C624    1.431   .     S
C624   O685    1.275   .     A
C624   O691    1.273   .     A
C625   O686    1.268   .     A
C625   O692    1.278   .     A
C626   C629    1.459   .     S
C626   O677    1.273   .     A
C626   O679    1.280   .     A
C627   O678    1.285   .     A
C627   C628    1.478   .     S
C627   O680    1.288   .     A
C628   C632    1.410   .     A
C630   H663    1.085   .     S
C630   C637    1.397   .     A
C631   H666    1.113   .     S
C631   O681    1.412   .     S
C631   H667    1.113   .     S
C632   N675    1.442   .     S
C632   C636    1.421   .     A
C633   H645    1.109   .     S
C633   O682    1.412   .     S
C633   H643    1.114   .     S
C633   H731    1.112   .     S
C634   O683    1.410   .     S
C634   H649    1.114   .     S
C634   H650    1.109   .     S
C634   H648    1.112   .     S
C635   H661    1.113   .     S
C635   O684    1.410   .     S
C635   H662    1.114   .     S
C635   H660    1.108   .     S
C636   C638    1.424   .     A
C636   C637    1.413   .     A
C637   C1424   1.393   .     S
C638   C1422   1.421   .     S
C639   C640    1.425   .     A
C639   C1421   1.421   1_554 S
C640   O684    1.382   .     S
C640   C641    1.392   .     A
C641   H642    1.084   .     S
C641   C1420   1.393   1_554 S
H651   N672    1.045   .     S
H652   N672    1.046   .     S
H654   N673    1.046   .     S
H655   N673    1.046   .     S
H656   N674    1.046   .     S
H657   N674    1.046   .     S
H658   N675    1.044   .     S
H659   N675    1.045   .     S
H665   C109    1.110   1_565 S
H668   N670    1.045   .     S
H669   N670    1.046   .     S
N671   C101    1.437   1_565 S
N671   H125    1.046   1_565 S
N671   H124    1.046   1_565 S
O676   Zn694   1.939   .     S
O676   Zn695   1.944   .     S
O676   Zn696   1.934   .     S
O676   Zn693   1.965   .     S
O677   Zn694   1.933   .     S
O678   Zn696   1.940   .     S
O679   Zn695   1.930   .     S
O680   Zn693   1.924   .     S
O682   C707    1.398   .     S
O685   Zn693   1.931   .     S
O686   Zn696   1.939   .     S
O687   Zn694   1.935   .     S
O688   Zn695   1.943   .     S
O689   Zn696   1.937   .     S
O690   Zn693   1.932   .     S
O691   Zn694   1.944   .     S
O692   Zn695   1.934   .     S
C697   C707    1.446   .     S
C697   O774    1.263   .     A
C697   O776    1.268   .     A
C698   C725    1.405   .     A
C698   H751    1.076   .     S
C698   C699    1.392   .     A
C699   N760    1.434   .     S
C699   C1484   1.408   .     S
C700   O777    1.278   .     A
C700   O775    1.290   .     A
C700   C706    1.460   .     S
C701   C703    1.418   .     A
C701   C702    1.424   .     A
C701   C1482   1.408   1_554 S
C702   C705    1.417   .     A
C702   C726    1.429   .     A
C703   C704    1.400   .     A
C703   O768    1.384   .     S
C704   C716    1.407   .     A
C704   N759    1.435   .     S
C705   C716    1.396   .     A
C705   O770    1.385   .     S
C706   C533    1.358   1_655 S
C706   N583    1.440   1_655 S
C708   C717    1.397   .     A
C708   N761    1.433   .     S
C708   C715    1.413   .     A
C709   C712    1.452   .     S
C709   C188    1.342   1_565 S
C709   H218    1.088   1_565 S
C710   C711    1.431   .     S
C711   O772    1.275   .     A
C711   O778    1.273   .     A
C712   O773    1.268   .     A
C712   O779    1.278   .     A
C713   C716    1.459   .     S
C713   O764    1.273   .     A
C713   O766    1.280   .     A
C714   O765    1.285   .     A
C714   C715    1.478   .     S
C714   O767    1.288   .     A
C715   C719    1.410   .     A
C717   H750    1.085   .     S
C717   C724    1.397   .     A
C718   H753    1.113   .     S
C718   O768    1.412   .     S
C718   H754    1.113   .     S
C719   N762    1.442   .     S
C719   C723    1.421   .     A
C720   H732    1.109   .     S
C720   O769    1.412   .     S
C720   H730    1.114   .     S
C720   H557    1.112   1_655 S
C721   O770    1.410   .     S
C721   H736    1.114   .     S
C721   H737    1.109   .     S
C721   H735    1.112   .     S
C722   H748    1.113   .     S
C722   O771    1.410   .     S
C722   H749    1.114   .     S
C722   H747    1.108   .     S
C723   C725    1.424   .     A
C723   C724    1.413   .     A
C724   C1511   1.393   .     S
C725   C1509   1.421   .     S
C726   C727    1.425   .     A
C726   C1508   1.421   1_554 S
C727   O771    1.382   .     S
C727   C728    1.392   .     A
C728   H729    1.084   .     S
C728   C1507   1.393   1_554 S
H738   N759    1.045   .     S
H739   N759    1.046   .     S
H741   N760    1.046   .     S
H742   N760    1.046   .     S
H743   N761    1.046   .     S
H744   N761    1.046   .     S
H745   N762    1.044   .     S
H746   N762    1.045   .     S
H752   C196    1.110   1_565 S
H755   N757    1.045   .     S
H756   N757    1.046   .     S
N758   C188    1.437   1_565 S
N758   H212    1.046   1_565 S
N758   H211    1.046   1_565 S
O763   Zn781   1.939   .     S
O763   Zn782   1.944   .     S
O763   Zn783   1.934   .     S
O763   Zn780   1.965   .     S
O764   Zn781   1.933   .     S
O765   Zn783   1.940   .     S
O766   Zn782   1.930   .     S
O767   Zn780   1.924   .     S
O769   C533    1.398   1_655 S
O772   Zn780   1.931   .     S
O773   Zn783   1.939   .     S
O774   Zn781   1.935   .     S
O775   Zn782   1.943   .     S
O776   Zn783   1.937   .     S
O777   Zn780   1.932   .     S
O778   Zn781   1.944   .     S
O779   Zn782   1.934   .     S
C784   C794    1.446   .     S
C784   O861    1.263   .     A
C784   O863    1.268   .     A
C785   C812    1.405   .     A
C785   H838    1.076   .     S
C785   C786    1.392   .     A
C786   N847    1.434   .     S
C786   C5      1.408   1_556 S
C787   O864    1.278   .     A
C787   O862    1.290   .     A
C787   C793    1.460   .     S
C788   C790    1.418   .     A
C788   C789    1.424   .     A
C789   C792    1.417   .     A
C789   C813    1.429   .     A
C790   C791    1.400   .     A
C790   O855    1.384   .     S
C791   C803    1.407   .     A
C791   N846    1.435   .     S
C792   C803    1.396   .     A
C792   O857    1.385   .     S
C793   C881    1.358   .     S
C793   N931    1.440   .     S
C794   C967    1.358   1_455 S
C794   O1030   1.398   1_455 S
C795   C804    1.397   .     A
C795   N848    1.433   .     S
C795   C802    1.413   .     A
C796   C799    1.452   .     S
C796   C1058   1.342   .     S
C796   H1088   1.088   .     S
C797   C798    1.431   .     S
C797   C1318   1.342   1_545 S
C797   N1367   1.437   1_545 S
C798   O859    1.275   .     A
C798   O865    1.273   .     A
C799   O860    1.268   .     A
C799   O866    1.278   .     A
C800   C803    1.459   .     S
C800   O851    1.273   .     A
C800   O853    1.280   .     A
C801   O852    1.285   .     A
C801   C802    1.478   .     S
C801   O854    1.288   .     A
C802   C806    1.410   .     A
C804   H837    1.085   .     S
C804   C811    1.397   .     A
C805   H840    1.113   .     S
C805   O855    1.412   .     S
C805   H841    1.113   .     S
C805   H1361   1.110   1_545 S
C806   N849    1.442   .     S
C806   C810    1.421   .     A
C807   H819    1.109   .     S
C807   O856    1.412   .     S
C807   H817    1.114   .     S
C807   H905    1.112   .     S
C808   O857    1.410   .     S
C808   H823    1.114   .     S
C808   H824    1.109   .     S
C808   H822    1.112   .     S
C809   H835    1.113   .     S
C809   O858    1.410   .     S
C809   H836    1.114   .     S
C809   H834    1.108   .     S
C810   C812    1.424   .     A
C810   C811    1.413   .     A
C811   C32     1.393   1_556 S
C812   C30     1.421   1_556 S
C813   C814    1.425   .     A
C814   O858    1.382   .     S
C814   C815    1.392   .     A
C815   H816    1.084   .     S
H818   C981    1.112   1_455 S
H820   N1367   1.046   1_545 S
H821   N1367   1.046   1_545 S
H825   N846    1.045   .     S
H826   N846    1.046   .     S
H827   C1318   1.088   1_545 S
H828   N847    1.046   .     S
H829   N847    1.046   .     S
H830   N848    1.046   .     S
H831   N848    1.046   .     S
H832   N849    1.044   .     S
H833   N849    1.045   .     S
H839   C1066   1.110   .     S
H842   N844    1.045   .     S
H843   N844    1.046   .     S
N844   C967    1.440   1_455 S
N845   C1058   1.437   .     S
N845   H1082   1.046   .     S
N845   H1081   1.046   .     S
O850   Zn868   1.939   .     S
O850   Zn869   1.944   .     S
O850   Zn870   1.934   .     S
O850   Zn867   1.965   .     S
O851   Zn868   1.933   .     S
O852   Zn870   1.940   .     S
O853   Zn869   1.930   .     S
O854   Zn867   1.924   .     S
O856   C881    1.398   .     S
O859   Zn867   1.931   .     S
O860   Zn870   1.939   .     S
O861   Zn868   1.935   .     S
O862   Zn869   1.943   .     S
O863   Zn870   1.937   .     S
O864   Zn867   1.932   .     S
O865   Zn868   1.944   .     S
O866   Zn869   1.934   .     S
C871   C881    1.446   .     S
C871   O948    1.263   .     A
C871   O950    1.268   .     A
C872   C899    1.405   .     A
C872   H925    1.076   .     S
C872   C873    1.392   .     A
C873   N934    1.434   .     S
C873   C92     1.408   1_556 S
C874   O951    1.278   .     A
C874   O949    1.290   .     A
C874   C880    1.460   .     S
C875   C877    1.418   .     A
C875   C876    1.424   .     A
C876   C879    1.417   .     A
C876   C900    1.429   .     A
C877   C878    1.400   .     A
C877   O942    1.384   .     S
C878   C890    1.407   .     A
C878   N933    1.435   .     S
C879   C890    1.396   .     A
C879   O944    1.385   .     S
C880   C968    1.358   .     S
C880   N1018   1.440   .     S
C882   C891    1.397   .     A
C882   N935    1.433   .     S
C882   C889    1.413   .     A
C883   C886    1.452   .     S
C883   C1145   1.342   .     S
C883   H1175   1.088   .     S
C884   C885    1.431   .     S
C884   C1405   1.342   1_545 S
C884   N1454   1.437   1_545 S
C885   O946    1.275   .     A
C885   O952    1.273   .     A
C886   O947    1.268   .     A
C886   O953    1.278   .     A
C887   C890    1.459   .     S
C887   O938    1.273   .     A
C887   O940    1.280   .     A
C888   O939    1.285   .     A
C888   C889    1.478   .     S
C888   O941    1.288   .     A
C889   C893    1.410   .     A
C891   H924    1.085   .     S
C891   C898    1.397   .     A
C892   H927    1.113   .     S
C892   O942    1.412   .     S
C892   H928    1.113   .     S
C892   H1448   1.110   1_545 S
C893   N936    1.442   .     S
C893   C897    1.421   .     A
C894   H906    1.109   .     S
C894   O943    1.412   .     S
C894   H904    1.114   .     S
C894   H992    1.112   .     S
C895   O944    1.410   .     S
C895   H910    1.114   .     S
C895   H911    1.109   .     S
C895   H909    1.112   .     S
C896   H922    1.113   .     S
C896   O945    1.410   .     S
C896   H923    1.114   .     S
C896   H921    1.108   .     S
C897   C899    1.424   .     A
C897   C898    1.413   .     A
C898   C119    1.393   1_556 S
C899   C117    1.421   1_556 S
C900   C901    1.425   .     A
C901   O945    1.382   .     S
C901   C902    1.392   .     A
C902   H903    1.084   .     S
H907   N1454   1.046   1_545 S
H908   N1454   1.046   1_545 S
H912   N933    1.045   .     S
H913   N933    1.046   .     S
H914   C1405   1.088   1_545 S
H915   N934    1.046   .     S
H916   N934    1.046   .     S
H917   N935    1.046   .     S
H918   N935    1.046   .     S
H919   N936    1.044   .     S
H920   N936    1.045   .     S
H926   C1153   1.110   .     S
H929   N931    1.045   .     S
H930   N931    1.046   .     S
N932   C1145   1.437   .     S
N932   H1169   1.046   .     S
N932   H1168   1.046   .     S
O937   Zn955   1.939   .     S
O937   Zn956   1.944   .     S
O937   Zn957   1.934   .     S
O937   Zn954   1.965   .     S
O938   Zn955   1.933   .     S
O939   Zn957   1.940   .     S
O940   Zn956   1.930   .     S
O941   Zn954   1.924   .     S
O943   C968    1.398   .     S
O946   Zn954   1.931   .     S
O947   Zn957   1.939   .     S
O948   Zn955   1.935   .     S
O949   Zn956   1.943   .     S
O950   Zn957   1.937   .     S
O951   Zn954   1.932   .     S
O952   Zn955   1.944   .     S
O953   Zn956   1.934   .     S
C958   C968    1.446   .     S
C958   O1035   1.263   .     A
C958   O1037   1.268   .     A
C959   C986    1.405   .     A
C959   H1012   1.076   .     S
C959   C960    1.392   .     A
C960   N1021   1.434   .     S
C960   C179    1.408   1_556 S
C961   O1038   1.278   .     A
C961   O1036   1.290   .     A
C961   C967    1.460   .     S
C962   C964    1.418   .     A
C962   C963    1.424   .     A
C963   C966    1.417   .     A
C963   C987    1.429   .     A
C964   C965    1.400   .     A
C964   O1029   1.384   .     S
C965   C977    1.407   .     A
C965   N1020   1.435   .     S
C966   C977    1.396   .     A
C966   O1031   1.385   .     S
C967   C794    1.358   1_655 S
C967   N844    1.440   1_655 S
C969   C978    1.397   .     A
C969   N1022   1.433   .     S
C969   C976    1.413   .     A
C970   C973    1.452   .     S
C970   C1232   1.342   .     S
C970   H1262   1.088   .     S
C971   C972    1.431   .     S
C971   C1492   1.342   1_545 S
C971   N1541   1.437   1_545 S
C972   O1033   1.275   .     A
C972   O1039   1.273   .     A
C973   O1034   1.268   .     A
C973   O1040   1.278   .     A
C974   C977    1.459   .     S
C974   O1025   1.273   .     A
C974   O1027   1.280   .     A
C975   O1026   1.285   .     A
C975   C976    1.478   .     S
C975   O1028   1.288   .     A
C976   C980    1.410   .     A
C978   H1011   1.085   .     S
C978   C985    1.397   .     A
C979   H1014   1.113   .     S
C979   O1029   1.412   .     S
C979   H1015   1.113   .     S
C979   H1535   1.110   1_545 S
C980   N1023   1.442   .     S
C980   C984    1.421   .     A
C981   H993    1.109   .     S
C981   O1030   1.412   .     S
C981   H991    1.114   .     S
C981   H818    1.112   1_655 S
C982   O1031   1.410   .     S
C982   H997    1.114   .     S
C982   H998    1.109   .     S
C982   H996    1.112   .     S
C983   H1009   1.113   .     S
C983   O1032   1.410   .     S
C983   H1010   1.114   .     S
C983   H1008   1.108   .     S
C984   C986    1.424   .     A
C984   C985    1.413   .     A
C985   C206    1.393   1_556 S
C986   C204    1.421   1_556 S
C987   C988    1.425   .     A
C988   O1032   1.382   .     S
C988   C989    1.392   .     A
C989   H990    1.084   .     S
H994   N1541   1.046   1_545 S
H995   N1541   1.046   1_545 S
H999   N1020   1.045   .     S
H1000  N1020   1.046   .     S
H1001  C1492   1.088   1_545 S
H1002  N1021   1.046   .     S
H1003  N1021   1.046   .     S
H1004  N1022   1.046   .     S
H1005  N1022   1.046   .     S
H1006  N1023   1.044   .     S
H1007  N1023   1.045   .     S
H1013  C1240   1.110   .     S
H1016  N1018   1.045   .     S
H1017  N1018   1.046   .     S
N1019  C1232   1.437   .     S
N1019  H1256   1.046   .     S
N1019  H1255   1.046   .     S
O1024  Zn1042  1.939   .     S
O1024  Zn1043  1.944   .     S
O1024  Zn1044  1.934   .     S
O1024  Zn1041  1.965   .     S
O1025  Zn1042  1.933   .     S
O1026  Zn1044  1.940   .     S
O1027  Zn1043  1.930   .     S
O1028  Zn1041  1.924   .     S
O1030  C794    1.398   1_655 S
O1033  Zn1041  1.931   .     S
O1034  Zn1044  1.939   .     S
O1035  Zn1042  1.935   .     S
O1036  Zn1043  1.943   .     S
O1037  Zn1044  1.937   .     S
O1038  Zn1041  1.932   .     S
O1039  Zn1042  1.944   .     S
O1040  Zn1043  1.934   .     S
C1045  C1055   1.446   .     S
C1045  O1122   1.263   .     A
C1045  O1124   1.268   .     A
C1046  C1073   1.405   .     A
C1046  H1099   1.076   .     S
C1046  C1047   1.392   .     A
C1047  N1108   1.434   .     S
C1047  C266    1.408   1_556 S
C1048  O1125   1.278   .     A
C1048  O1123   1.290   .     A
C1048  C1054   1.460   .     S
C1049  C1051   1.418   .     A
C1049  C1050   1.424   .     A
C1050  C1053   1.417   .     A
C1050  C1074   1.429   .     A
C1051  C1052   1.400   .     A
C1051  O1116   1.384   .     S
C1052  C1064   1.407   .     A
C1052  N1107   1.435   .     S
C1053  C1064   1.396   .     A
C1053  O1118   1.385   .     S
C1054  C1142   1.358   .     S
C1054  N1192   1.440   .     S
C1055  C1228   1.358   1_455 S
C1055  O1291   1.398   1_455 S
C1056  C1065   1.397   .     A
C1056  N1109   1.433   .     S
C1056  C1063   1.413   .     A
C1057  C1060   1.452   .     S
C1057  C1319   1.342   .     S
C1057  H1349   1.088   .     S
C1058  C1059   1.431   .     S
C1059  O1120   1.275   .     A
C1059  O1126   1.273   .     A
C1060  O1121   1.268   .     A
C1060  O1127   1.278   .     A
C1061  C1064   1.459   .     S
C1061  O1112   1.273   .     A
C1061  O1114   1.280   .     A
C1062  O1113   1.285   .     A
C1062  C1063   1.478   .     S
C1062  O1115   1.288   .     A
C1063  C1067   1.410   .     A
C1065  H1098   1.085   .     S
C1065  C1072   1.397   .     A
C1066  H1101   1.113   .     S
C1066  O1116   1.412   .     S
C1066  H1102   1.113   .     S
C1067  N1110   1.442   .     S
C1067  C1071   1.421   .     A
C1068  H1080   1.109   .     S
C1068  O1117   1.412   .     S
C1068  H1078   1.114   .     S
C1068  H1166   1.112   .     S
C1069  O1118   1.410   .     S
C1069  H1084   1.114   .     S
C1069  H1085   1.109   .     S
C1069  H1083   1.112   .     S
C1070  H1096   1.113   .     S
C1070  O1119   1.410   .     S
C1070  H1097   1.114   .     S
C1070  H1095   1.108   .     S
C1071  C1073   1.424   .     A
C1071  C1072   1.413   .     A
C1072  C293    1.393   1_556 S
C1073  C291    1.421   1_556 S
C1074  C1075   1.425   .     A
C1075  O1119   1.382   .     S
C1075  C1076   1.392   .     A
C1076  H1077   1.084   .     S
H1079  C1242   1.112   1_455 S
H1086  N1107   1.045   .     S
H1087  N1107   1.046   .     S
H1089  N1108   1.046   .     S
H1090  N1108   1.046   .     S
H1091  N1109   1.046   .     S
H1092  N1109   1.046   .     S
H1093  N1110   1.044   .     S
H1094  N1110   1.045   .     S
H1100  C1327   1.110   .     S
H1103  N1105   1.045   .     S
H1104  N1105   1.046   .     S
N1105  C1228   1.440   1_455 S
N1106  C1319   1.437   .     S
N1106  H1343   1.046   .     S
N1106  H1342   1.046   .     S
O1111  Zn1129  1.939   .     S
O1111  Zn1130  1.944   .     S
O1111  Zn1131  1.934   .     S
O1111  Zn1128  1.965   .     S
O1112  Zn1129  1.933   .     S
O1113  Zn1131  1.940   .     S
O1114  Zn1130  1.930   .     S
O1115  Zn1128  1.924   .     S
O1117  C1142   1.398   .     S
O1120  Zn1128  1.931   .     S
O1121  Zn1131  1.939   .     S
O1122  Zn1129  1.935   .     S
O1123  Zn1130  1.943   .     S
O1124  Zn1131  1.937   .     S
O1125  Zn1128  1.932   .     S
O1126  Zn1129  1.944   .     S
O1127  Zn1130  1.934   .     S
C1132  C1142   1.446   .     S
C1132  O1209   1.263   .     A
C1132  O1211   1.268   .     A
C1133  C1160   1.405   .     A
C1133  H1186   1.076   .     S
C1133  C1134   1.392   .     A
C1134  N1195   1.434   .     S
C1134  C353    1.408   1_556 S
C1135  O1212   1.278   .     A
C1135  O1210   1.290   .     A
C1135  C1141   1.460   .     S
C1136  C1138   1.418   .     A
C1136  C1137   1.424   .     A
C1137  C1140   1.417   .     A
C1137  C1161   1.429   .     A
C1138  C1139   1.400   .     A
C1138  O1203   1.384   .     S
C1139  C1151   1.407   .     A
C1139  N1194   1.435   .     S
C1140  C1151   1.396   .     A
C1140  O1205   1.385   .     S
C1141  C1229   1.358   .     S
C1141  N1279   1.440   .     S
C1143  C1152   1.397   .     A
C1143  N1196   1.433   .     S
C1143  C1150   1.413   .     A
C1144  C1147   1.452   .     S
C1144  C1406   1.342   .     S
C1144  H1436   1.088   .     S
C1145  C1146   1.431   .     S
C1146  O1207   1.275   .     A
C1146  O1213   1.273   .     A
C1147  O1208   1.268   .     A
C1147  O1214   1.278   .     A
C1148  C1151   1.459   .     S
C1148  O1199   1.273   .     A
C1148  O1201   1.280   .     A
C1149  O1200   1.285   .     A
C1149  C1150   1.478   .     S
C1149  O1202   1.288   .     A
C1150  C1154   1.410   .     A
C1152  H1185   1.085   .     S
C1152  C1159   1.397   .     A
C1153  H1188   1.113   .     S
C1153  O1203   1.412   .     S
C1153  H1189   1.113   .     S
C1154  N1197   1.442   .     S
C1154  C1158   1.421   .     A
C1155  H1167   1.109   .     S
C1155  O1204   1.412   .     S
C1155  H1165   1.114   .     S
C1155  H1253   1.112   .     S
C1156  O1205   1.410   .     S
C1156  H1171   1.114   .     S
C1156  H1172   1.109   .     S
C1156  H1170   1.112   .     S
C1157  H1183   1.113   .     S
C1157  O1206   1.410   .     S
C1157  H1184   1.114   .     S
C1157  H1182   1.108   .     S
C1158  C1160   1.424   .     A
C1158  C1159   1.413   .     A
C1159  C380    1.393   1_556 S
C1160  C378    1.421   1_556 S
C1161  C1162   1.425   .     A
C1162  O1206   1.382   .     S
C1162  C1163   1.392   .     A
C1163  H1164   1.084   .     S
H1173  N1194   1.045   .     S
H1174  N1194   1.046   .     S
H1176  N1195   1.046   .     S
H1177  N1195   1.046   .     S
H1178  N1196   1.046   .     S
H1179  N1196   1.046   .     S
H1180  N1197   1.044   .     S
H1181  N1197   1.045   .     S
H1187  C1414   1.110   .     S
H1190  N1192   1.045   .     S
H1191  N1192   1.046   .     S
N1193  C1406   1.437   .     S
N1193  H1430   1.046   .     S
N1193  H1429   1.046   .     S
O1198  Zn1216  1.939   .     S
O1198  Zn1217  1.944   .     S
O1198  Zn1218  1.934   .     S
O1198  Zn1215  1.965   .     S
O1199  Zn1216  1.933   .     S
O1200  Zn1218  1.940   .     S
O1201  Zn1217  1.930   .     S
O1202  Zn1215  1.924   .     S
O1204  C1229   1.398   .     S
O1207  Zn1215  1.931   .     S
O1208  Zn1218  1.939   .     S
O1209  Zn1216  1.935   .     S
O1210  Zn1217  1.943   .     S
O1211  Zn1218  1.937   .     S
O1212  Zn1215  1.932   .     S
O1213  Zn1216  1.944   .     S
O1214  Zn1217  1.934   .     S
C1219  C1229   1.446   .     S
C1219  O1296   1.263   .     A
C1219  O1298   1.268   .     A
C1220  C1247   1.405   .     A
C1220  H1273   1.076   .     S
C1220  C1221   1.392   .     A
C1221  N1282   1.434   .     S
C1221  C440    1.408   1_556 S
C1222  O1299   1.278   .     A
C1222  O1297   1.290   .     A
C1222  C1228   1.460   .     S
C1223  C1225   1.418   .     A
C1223  C1224   1.424   .     A
C1224  C1227   1.417   .     A
C1224  C1248   1.429   .     A
C1225  C1226   1.400   .     A
C1225  O1290   1.384   .     S
C1226  C1238   1.407   .     A
C1226  N1281   1.435   .     S
C1227  C1238   1.396   .     A
C1227  O1292   1.385   .     S
C1228  C1055   1.358   1_655 S
C1228  N1105   1.440   1_655 S
C1230  C1239   1.397   .     A
C1230  N1283   1.433   .     S
C1230  C1237   1.413   .     A
C1231  C1234   1.452   .     S
C1231  C1493   1.342   .     S
C1231  H1523   1.088   .     S
C1232  C1233   1.431   .     S
C1233  O1294   1.275   .     A
C1233  O1300   1.273   .     A
C1234  O1295   1.268   .     A
C1234  O1301   1.278   .     A
C1235  C1238   1.459   .     S
C1235  O1286   1.273   .     A
C1235  O1288   1.280   .     A
C1236  O1287   1.285   .     A
C1236  C1237   1.478   .     S
C1236  O1289   1.288   .     A
C1237  C1241   1.410   .     A
C1239  H1272   1.085   .     S
C1239  C1246   1.397   .     A
C1240  H1275   1.113   .     S
C1240  O1290   1.412   .     S
C1240  H1276   1.113   .     S
C1241  N1284   1.442   .     S
C1241  C1245   1.421   .     A
C1242  H1254   1.109   .     S
C1242  O1291   1.412   .     S
C1242  H1252   1.114   .     S
C1242  H1079   1.112   1_655 S
C1243  O1292   1.410   .     S
C1243  H1258   1.114   .     S
C1243  H1259   1.109   .     S
C1243  H1257   1.112   .     S
C1244  H1270   1.113   .     S
C1244  O1293   1.410   .     S
C1244  H1271   1.114   .     S
C1244  H1269   1.108   .     S
C1245  C1247   1.424   .     A
C1245  C1246   1.413   .     A
C1246  C467    1.393   1_556 S
C1247  C465    1.421   1_556 S
C1248  C1249   1.425   .     A
C1249  O1293   1.382   .     S
C1249  C1250   1.392   .     A
C1250  H1251   1.084   .     S
H1260  N1281   1.045   .     S
H1261  N1281   1.046   .     S
H1263  N1282   1.046   .     S
H1264  N1282   1.046   .     S
H1265  N1283   1.046   .     S
H1266  N1283   1.046   .     S
H1267  N1284   1.044   .     S
H1268  N1284   1.045   .     S
H1274  C1501   1.110   .     S
H1277  N1279   1.045   .     S
H1278  N1279   1.046   .     S
N1280  C1493   1.437   .     S
N1280  H1517   1.046   .     S
N1280  H1516   1.046   .     S
O1285  Zn1303  1.939   .     S
O1285  Zn1304  1.944   .     S
O1285  Zn1305  1.934   .     S
O1285  Zn1302  1.965   .     S
O1286  Zn1303  1.933   .     S
O1287  Zn1305  1.940   .     S
O1288  Zn1304  1.930   .     S
O1289  Zn1302  1.924   .     S
O1291  C1055   1.398   1_655 S
O1294  Zn1302  1.931   .     S
O1295  Zn1305  1.939   .     S
O1296  Zn1303  1.935   .     S
O1297  Zn1304  1.943   .     S
O1298  Zn1305  1.937   .     S
O1299  Zn1302  1.932   .     S
O1300  Zn1303  1.944   .     S
O1301  Zn1304  1.934   .     S
C1306  C1316   1.446   .     S
C1306  O1383   1.263   .     A
C1306  O1385   1.268   .     A
C1307  C1334   1.405   .     A
C1307  H1360   1.076   .     S
C1307  C1308   1.392   .     A
C1308  N1369   1.434   .     S
C1308  C527    1.408   1_556 S
C1309  O1386   1.278   .     A
C1309  O1384   1.290   .     A
C1309  C1315   1.460   .     S
C1310  C1312   1.418   .     A
C1310  C1311   1.424   .     A
C1311  C1314   1.417   .     A
C1311  C1335   1.429   .     A
C1312  C1313   1.400   .     A
C1312  O1377   1.384   .     S
C1313  C1325   1.407   .     A
C1313  N1368   1.435   .     S
C1314  C1325   1.396   .     A
C1314  O1379   1.385   .     S
C1315  C1403   1.358   .     S
C1315  N1453   1.440   .     S
C1316  C1489   1.358   1_455 S
C1316  O1552   1.398   1_455 S
C1317  C1326   1.397   .     A
C1317  N1370   1.433   .     S
C1317  C1324   1.413   .     A
C1318  C1321   1.452   .     S
C1318  C797    1.342   1_565 S
C1318  H827    1.088   1_565 S
C1319  C1320   1.431   .     S
C1320  O1381   1.275   .     A
C1320  O1387   1.273   .     A
C1321  O1382   1.268   .     A
C1321  O1388   1.278   .     A
C1322  C1325   1.459   .     S
C1322  O1373   1.273   .     A
C1322  O1375   1.280   .     A
C1323  O1374   1.285   .     A
C1323  C1324   1.478   .     S
C1323  O1376   1.288   .     A
C1324  C1328   1.410   .     A
C1326  H1359   1.085   .     S
C1326  C1333   1.397   .     A
C1327  H1362   1.113   .     S
C1327  O1377   1.412   .     S
C1327  H1363   1.113   .     S
C1328  N1371   1.442   .     S
C1328  C1332   1.421   .     A
C1329  H1341   1.109   .     S
C1329  O1378   1.412   .     S
C1329  H1339   1.114   .     S
C1329  H1427   1.112   .     S
C1330  O1379   1.410   .     S
C1330  H1345   1.114   .     S
C1330  H1346   1.109   .     S
C1330  H1344   1.112   .     S
C1331  H1357   1.113   .     S
C1331  O1380   1.410   .     S
C1331  H1358   1.114   .     S
C1331  H1356   1.108   .     S
C1332  C1334   1.424   .     A
C1332  C1333   1.413   .     A
C1333  C554    1.393   1_556 S
C1334  C552    1.421   1_556 S
C1335  C1336   1.425   .     A
C1336  O1380   1.382   .     S
C1336  C1337   1.392   .     A
C1337  H1338   1.084   .     S
H1340  C1503   1.112   1_455 S
H1347  N1368   1.045   .     S
H1348  N1368   1.046   .     S
H1350  N1369   1.046   .     S
H1351  N1369   1.046   .     S
H1352  N1370   1.046   .     S
H1353  N1370   1.046   .     S
H1354  N1371   1.044   .     S
H1355  N1371   1.045   .     S
H1361  C805    1.110   1_565 S
H1364  N1366   1.045   .     S
H1365  N1366   1.046   .     S
N1366  C1489   1.440   1_455 S
N1367  C797    1.437   1_565 S
N1367  H821    1.046   1_565 S
N1367  H820    1.046   1_565 S
O1372  Zn1390  1.939   .     S
O1372  Zn1391  1.944   .     S
O1372  Zn1392  1.934   .     S
O1372  Zn1389  1.965   .     S
O1373  Zn1390  1.933   .     S
O1374  Zn1392  1.940   .     S
O1375  Zn1391  1.930   .     S
O1376  Zn1389  1.924   .     S
O1378  C1403   1.398   .     S
O1381  Zn1389  1.931   .     S
O1382  Zn1392  1.939   .     S
O1383  Zn1390  1.935   .     S
O1384  Zn1391  1.943   .     S
O1385  Zn1392  1.937   .     S
O1386  Zn1389  1.932   .     S
O1387  Zn1390  1.944   .     S
O1388  Zn1391  1.934   .     S
C1393  C1403   1.446   .     S
C1393  O1470   1.263   .     A
C1393  O1472   1.268   .     A
C1394  C1421   1.405   .     A
C1394  H1447   1.076   .     S
C1394  C1395   1.392   .     A
C1395  N1456   1.434   .     S
C1395  C614    1.408   1_556 S
C1396  O1473   1.278   .     A
C1396  O1471   1.290   .     A
C1396  C1402   1.460   .     S
C1397  C1399   1.418   .     A
C1397  C1398   1.424   .     A
C1398  C1401   1.417   .     A
C1398  C1422   1.429   .     A
C1399  C1400   1.400   .     A
C1399  O1464   1.384   .     S
C1400  C1412   1.407   .     A
C1400  N1455   1.435   .     S
C1401  C1412   1.396   .     A
C1401  O1466   1.385   .     S
C1402  C1490   1.358   .     S
C1402  N1540   1.440   .     S
C1404  C1413   1.397   .     A
C1404  N1457   1.433   .     S
C1404  C1411   1.413   .     A
C1405  C1408   1.452   .     S
C1405  C884    1.342   1_565 S
C1405  H914    1.088   1_565 S
C1406  C1407   1.431   .     S
C1407  O1468   1.275   .     A
C1407  O1474   1.273   .     A
C1408  O1469   1.268   .     A
C1408  O1475   1.278   .     A
C1409  C1412   1.459   .     S
C1409  O1460   1.273   .     A
C1409  O1462   1.280   .     A
C1410  O1461   1.285   .     A
C1410  C1411   1.478   .     S
C1410  O1463   1.288   .     A
C1411  C1415   1.410   .     A
C1413  H1446   1.085   .     S
C1413  C1420   1.397   .     A
C1414  H1449   1.113   .     S
C1414  O1464   1.412   .     S
C1414  H1450   1.113   .     S
C1415  N1458   1.442   .     S
C1415  C1419   1.421   .     A
C1416  H1428   1.109   .     S
C1416  O1465   1.412   .     S
C1416  H1426   1.114   .     S
C1416  H1514   1.112   .     S
C1417  O1466   1.410   .     S
C1417  H1432   1.114   .     S
C1417  H1433   1.109   .     S
C1417  H1431   1.112   .     S
C1418  H1444   1.113   .     S
C1418  O1467   1.410   .     S
C1418  H1445   1.114   .     S
C1418  H1443   1.108   .     S
C1419  C1421   1.424   .     A
C1419  C1420   1.413   .     A
C1420  C641    1.393   1_556 S
C1421  C639    1.421   1_556 S
C1422  C1423   1.425   .     A
C1423  O1467   1.382   .     S
C1423  C1424   1.392   .     A
C1424  H1425   1.084   .     S
H1434  N1455   1.045   .     S
H1435  N1455   1.046   .     S
H1437  N1456   1.046   .     S
H1438  N1456   1.046   .     S
H1439  N1457   1.046   .     S
H1440  N1457   1.046   .     S
H1441  N1458   1.044   .     S
H1442  N1458   1.045   .     S
H1448  C892    1.110   1_565 S
H1451  N1453   1.045   .     S
H1452  N1453   1.046   .     S
N1454  C884    1.437   1_565 S
N1454  H908    1.046   1_565 S
N1454  H907    1.046   1_565 S
O1459  Zn1477  1.939   .     S
O1459  Zn1478  1.944   .     S
O1459  Zn1479  1.934   .     S
O1459  Zn1476  1.965   .     S
O1460  Zn1477  1.933   .     S
O1461  Zn1479  1.940   .     S
O1462  Zn1478  1.930   .     S
O1463  Zn1476  1.924   .     S
O1465  C1490   1.398   .     S
O1468  Zn1476  1.931   .     S
O1469  Zn1479  1.939   .     S
O1470  Zn1477  1.935   .     S
O1471  Zn1478  1.943   .     S
O1472  Zn1479  1.937   .     S
O1473  Zn1476  1.932   .     S
O1474  Zn1477  1.944   .     S
O1475  Zn1478  1.934   .     S
C1480  C1490   1.446   .     S
C1480  O1557   1.263   .     A
C1480  O1559   1.268   .     A
C1481  C1508   1.405   .     A
C1481  H1534   1.076   .     S
C1481  C1482   1.392   .     A
C1482  N1543   1.434   .     S
C1482  C701    1.408   1_556 S
C1483  O1560   1.278   .     A
C1483  O1558   1.290   .     A
C1483  C1489   1.460   .     S
C1484  C1486   1.418   .     A
C1484  C1485   1.424   .     A
C1485  C1488   1.417   .     A
C1485  C1509   1.429   .     A
C1486  C1487   1.400   .     A
C1486  O1551   1.384   .     S
C1487  C1499   1.407   .     A
C1487  N1542   1.435   .     S
C1488  C1499   1.396   .     A
C1488  O1553   1.385   .     S
C1489  C1316   1.358   1_655 S
C1489  N1366   1.440   1_655 S
C1491  C1500   1.397   .     A
C1491  N1544   1.433   .     S
C1491  C1498   1.413   .     A
C1492  C1495   1.452   .     S
C1492  C971    1.342   1_565 S
C1492  H1001   1.088   1_565 S
C1493  C1494   1.431   .     S
C1494  O1555   1.275   .     A
C1494  O1561   1.273   .     A
C1495  O1556   1.268   .     A
C1495  O1562   1.278   .     A
C1496  C1499   1.459   .     S
C1496  O1547   1.273   .     A
C1496  O1549   1.280   .     A
C1497  O1548   1.285   .     A
C1497  C1498   1.478   .     S
C1497  O1550   1.288   .     A
C1498  C1502   1.410   .     A
C1500  H1533   1.085   .     S
C1500  C1507   1.397   .     A
C1501  H1536   1.113   .     S
C1501  O1551   1.412   .     S
C1501  H1537   1.113   .     S
C1502  N1545   1.442   .     S
C1502  C1506   1.421   .     A
C1503  H1515   1.109   .     S
C1503  O1552   1.412   .     S
C1503  H1513   1.114   .     S
C1503  H1340   1.112   1_655 S
C1504  O1553   1.410   .     S
C1504  H1519   1.114   .     S
C1504  H1520   1.109   .     S
C1504  H1518   1.112   .     S
C1505  H1531   1.113   .     S
C1505  O1554   1.410   .     S
C1505  H1532   1.114   .     S
C1505  H1530   1.108   .     S
C1506  C1508   1.424   .     A
C1506  C1507   1.413   .     A
C1507  C728    1.393   1_556 S
C1508  C726    1.421   1_556 S
C1509  C1510   1.425   .     A
C1510  O1554   1.382   .     S
C1510  C1511   1.392   .     A
C1511  H1512   1.084   .     S
H1521  N1542   1.045   .     S
H1522  N1542   1.046   .     S
H1524  N1543   1.046   .     S
H1525  N1543   1.046   .     S
H1526  N1544   1.046   .     S
H1527  N1544   1.046   .     S
H1528  N1545   1.044   .     S
H1529  N1545   1.045   .     S
H1535  C979    1.110   1_565 S
H1538  N1540   1.045   .     S
H1539  N1540   1.046   .     S
N1541  C971    1.437   1_565 S
N1541  H995    1.046   1_565 S
N1541  H994    1.046   1_565 S
O1546  Zn1564  1.939   .     S
O1546  Zn1565  1.944   .     S
O1546  Zn1566  1.934   .     S
O1546  Zn1563  1.965   .     S
O1547  Zn1564  1.933   .     S
O1548  Zn1566  1.940   .     S
O1549  Zn1565  1.930   .     S
O1550  Zn1563  1.924   .     S
O1552  C1316   1.398   1_655 S
O1555  Zn1563  1.931   .     S
O1556  Zn1566  1.939   .     S
O1557  Zn1564  1.935   .     S
O1558  Zn1565  1.943   .     S
O1559  Zn1566  1.937   .     S
O1560  Zn1563  1.932   .     S
O1561  Zn1564  1.944   .     S
O1562  Zn1565  1.934   .     S
