data_str_m1_o10_o16_pcu_sym.193
_audit_creation_date              2020-01-03
_audit_creation_method            'Materials Studio'
_symmetry_space_group_name_H-M    'P1'
_symmetry_Int_Tables_number       1
_symmetry_cell_setting            triclinic
loop_
_symmetry_equiv_pos_as_xyz
  x,y,z
_cell_length_a                    32.7319
_cell_length_b                    32.5491
_cell_length_c                    31.1271
_cell_angle_alpha                 96.7431
_cell_angle_beta                  74.0964
_cell_angle_gamma                 98.3459
loop_
_atom_site_label
_atom_site_type_symbol
_atom_site_fract_x
_atom_site_fract_y
_atom_site_fract_z
_atom_site_U_iso_or_equiv
_atom_site_adp_type
_atom_site_occupancy
C1     C     0.05297   0.15999   0.25997   0.00000  Uiso   1.00
C2     C     0.17625   0.16902   0.05875   0.00000  Uiso   1.00
C3     C     0.21264   0.10817   0.05763   0.00000  Uiso   1.00
C4     C     0.28084   0.17369   0.23988   0.00000  Uiso   1.00
C5     C     0.14222   0.19497   0.42055   0.00000  Uiso   1.00
C6     C     0.32709   0.17545   0.23534   0.00000  Uiso   1.00
C7     C     0.00754   0.15776   0.26515   0.00000  Uiso   1.00
C8     C     0.18043   0.32294   0.23715   0.00000  Uiso   1.00
C9     C     0.15045   0.01207   0.26389   0.00000  Uiso   1.00
C10    C     0.15590   0.05621   0.26026   0.00000  Uiso   1.00
C11    C     0.17643   0.27797   0.24019   0.00000  Uiso   1.00
C12    C     0.09676   0.22067   0.49200   0.00000  Uiso   1.00
C13    C     0.18515   0.14847   0.12946   0.00000  Uiso   1.00
C14    C     0.14938   0.18579   0.37103   0.00000  Uiso   1.00
C15    C     0.21715   0.10029   0.01149   0.00000  Uiso   1.00
C16    C     0.19202   0.14224   0.08116   0.00000  Uiso   1.00
C17    C     0.10699   0.21616   0.44507   0.00000  Uiso   1.00
C18    C     0.26731   0.09864   0.08748   0.00000  Uiso   1.00
C19    C     0.30452   0.08819   0.04723   0.00000  Uiso   1.00
C20    C     0.01383   0.09687   0.05951   0.00000  Uiso   1.00
C21    C     0.22175   0.33117   0.16448   0.00000  Uiso   1.00
C22    C     0.26682   0.31902   0.14320   0.00000  Uiso   1.00
C23    C     0.11535   0.19675   0.01487   0.00000  Uiso   1.00
C24    C     0.27286   0.30336   0.09400   0.00000  Uiso   1.00
C25    C     0.23025   0.08149   0.37693   0.00000  Uiso   1.00
C26    C     0.18470   0.05739   0.38652   0.00000  Uiso   1.00
C27    C     0.18428   0.01365   0.36256   0.00000  Uiso   1.00
C28    C     0.21090   0.03139   0.48471   0.00000  Uiso   1.00
C29    C     0.21919   0.33052   0.00986   0.00000  Uiso   1.00
C30    C     0.19366   0.28897   0.00039   0.00000  Uiso   1.00
C31    C     0.04089   0.21202   0.43034   0.00000  Uiso   1.00
C32    C     0.03982   0.16763   0.40715   0.00000  Uiso   1.00
C33    C     0.32762   0.14597   0.41592   0.00000  Uiso   1.00
C34    C     0.15305   0.17873   0.49157   0.00000  Uiso   1.00
C35    C     0.16725   0.17904   0.44434   0.00000  Uiso   1.00
C36    C     0.17618   0.15821   0.01361   0.00000  Uiso   1.00
C37    C     0.20196   0.12747   0.48856   0.00000  Uiso   1.00
C38    C     0.21452   0.12726   0.44143   0.00000  Uiso   1.00
C39    C     0.20483   0.16035   0.42232   0.00000  Uiso   1.00
H40    H     0.27047   0.08472   0.11715   0.00000  Uiso   1.00
H41    H     0.19757   0.30520   0.15738   0.00000  Uiso   1.00
H42    H     0.29074   0.01319   0.14589   0.00000  Uiso   1.00
H43    H     0.27276   0.29411   0.16148   0.00000  Uiso   1.00
H44    H     0.24931   0.27580   0.09039   0.00000  Uiso   1.00
H45    H     0.30562   0.29428   0.07992   0.00000  Uiso   1.00
H46    H     0.26883   0.32839   0.07485   0.00000  Uiso   1.00
H47    H     0.09562   0.01582   0.30767   0.00000  Uiso   1.00
H48    H     0.25419   0.05994   0.35969   0.00000  Uiso   1.00
H49    H     0.23371   0.10495   0.35266   0.00000  Uiso   1.00
H50    H     0.17068   0.05460   0.42291   0.00000  Uiso   1.00
H51    H     0.26966   0.13298   0.09598   0.00000  Uiso   1.00
H52    H     0.16344   0.07498   0.37515   0.00000  Uiso   1.00
H53    H     0.20213   0.32755   0.37631   0.00000  Uiso   1.00
H54    H     0.15079   0.33200   0.36752   0.00000  Uiso   1.00
H55    H     0.19935   0.01518   0.32615   0.00000  Uiso   1.00
H56    H     0.21774   0.02036   0.44867   0.00000  Uiso   1.00
H57    H     0.17626   0.03602   0.49630   0.00000  Uiso   1.00
H58    H     0.25383   0.32672   0.49936   0.00000  Uiso   1.00
H59    H     0.20984   0.00612   0.04644   0.00000  Uiso   1.00
H60    H     0.15884   0.29161   0.01211   0.00000  Uiso   1.00
H61    H     0.20111   0.26476   0.01845   0.00000  Uiso   1.00
H62    H     0.29963   0.05487   0.03509   0.00000  Uiso   1.00
H63    H     0.20218   0.27911   0.46395   0.00000  Uiso   1.00
H64    H     0.16770   0.21281   0.10902   0.00000  Uiso   1.00
H65    H     0.02197   0.23001   0.41623   0.00000  Uiso   1.00
H66    H     0.02436   0.21118   0.46658   0.00000  Uiso   1.00
H67    H     0.05317   0.16881   0.37043   0.00000  Uiso   1.00
H68    H     0.05905   0.14878   0.41983   0.00000  Uiso   1.00
H69    H     0.31298   0.14455   0.45246   0.00000  Uiso   1.00
H70    H     0.32792   0.11371   0.39971   0.00000  Uiso   1.00
H71    H     0.30812   0.16309   0.40168   0.00000  Uiso   1.00
H72    H     0.06481   0.19352   0.06603   0.00000  Uiso   1.00
H73    H     0.30585   0.10746   0.01962   0.00000  Uiso   1.00
H74    H     0.07192   0.25596   0.04468   0.00000  Uiso   1.00
H75    H     0.22941   0.20534   0.38399   0.00000  Uiso   1.00
H76    H     0.00877   0.20520   0.18119   0.00000  Uiso   1.00
H77    H     0.01849   0.12957   0.07364   0.00000  Uiso   1.00
H78    H     0.04040   0.09178   0.02912   0.00000  Uiso   1.00
H79    H     0.01462   0.07561   0.08463   0.00000  Uiso   1.00
H80    H     0.32969   0.12765   0.31832   0.00000  Uiso   1.00
H81    H     0.21750   0.02500   0.14830   0.00000  Uiso   1.00
O82    O     0.16667   0.16667   0.25000   0.00000  Uiso   1.00
O83    O     0.15451   0.12637   0.15459   0.00000  Uiso   1.00
O84    O     0.12940   0.20391   0.34968   0.00000  Uiso   1.00
O85    O     0.20824   0.17759   0.14606   0.00000  Uiso   1.00
O86    O     0.17451   0.15880   0.34968   0.00000  Uiso   1.00
O87    O     0.22740   0.08127   0.07977   0.00000  Uiso   1.00
O88    O     0.31286   0.13908   0.30139   0.00000  Uiso   1.00
O89    O     0.21749   0.00994   0.21058   0.00000  Uiso   1.00
O90    O     0.11313   0.32694   0.29129   0.00000  Uiso   1.00
O91    O     0.24212   0.09947   0.41624   0.00000  Uiso   1.00
O92    O     0.23953   0.06780   0.48892   0.00000  Uiso   1.00
O93    O     0.17930   0.08019   0.28214   0.00000  Uiso   1.00
O94    O     0.16432   0.20753   0.07825   0.00000  Uiso   1.00
O95    O     0.08302   0.23330   0.42268   0.00000  Uiso   1.00
O96    O     0.09469   0.18689   0.05816   0.00000  Uiso   1.00
O97    O     0.06740   0.24749   0.01452   0.00000  Uiso   1.00
O98    O     0.23498   0.17656   0.38599   0.00000  Uiso   1.00
O99    O     0.02372   0.19477   0.20065   0.00000  Uiso   1.00
O100   O     0.14632   0.26085   0.27014   0.00000  Uiso   1.00
O101   O     0.07412   0.13291   0.23413   0.00000  Uiso   1.00
O102   O     0.26693   0.19272   0.21361   0.00000  Uiso   1.00
O103   O     0.07071   0.18878   0.28213   0.00000  Uiso   1.00
O104   O     0.25491   0.15226   0.27014   0.00000  Uiso   1.00
O105   O     0.13760   0.06944   0.23413   0.00000  Uiso   1.00
O106   O     0.20345   0.25620   0.21361   0.00000  Uiso   1.00
Zn107  Zn    0.19338   0.13994   0.28734   0.00000  Uiso   1.00
Zn108  Zn    0.13379   0.12458   0.21876   0.00000  Uiso   1.00
Zn109  Zn    0.21056   0.19775   0.20657   0.00000  Uiso   1.00
Zn110  Zn    0.12893   0.20439   0.28734   0.00000  Uiso   1.00
C111   C     0.38630   0.15999   0.25997   0.00000  Uiso   1.00
C112   C     0.50958   0.16902   0.05875   0.00000  Uiso   1.00
C113   C     0.54597   0.10817   0.05763   0.00000  Uiso   1.00
C114   C     0.61418   0.17369   0.23988   0.00000  Uiso   1.00
C115   C     0.47555   0.19497   0.42055   0.00000  Uiso   1.00
C116   C     0.66043   0.17545   0.23534   0.00000  Uiso   1.00
C117   C     0.34087   0.15776   0.26515   0.00000  Uiso   1.00
C118   C     0.51377   0.32294   0.23715   0.00000  Uiso   1.00
C119   C     0.48378   0.01207   0.26389   0.00000  Uiso   1.00
C120   C     0.48924   0.05621   0.26026   0.00000  Uiso   1.00
C121   C     0.50976   0.27797   0.24019   0.00000  Uiso   1.00
C122   C     0.43010   0.22067   0.49200   0.00000  Uiso   1.00
C123   C     0.51849   0.14847   0.12946   0.00000  Uiso   1.00
C124   C     0.48271   0.18579   0.37103   0.00000  Uiso   1.00
C125   C     0.55048   0.10029   0.01149   0.00000  Uiso   1.00
C126   C     0.52536   0.14224   0.08116   0.00000  Uiso   1.00
C127   C     0.44032   0.21616   0.44507   0.00000  Uiso   1.00
C128   C     0.60064   0.09864   0.08748   0.00000  Uiso   1.00
C129   C     0.63786   0.08819   0.04723   0.00000  Uiso   1.00
C130   C     0.34716   0.09687   0.05951   0.00000  Uiso   1.00
C131   C     0.55509   0.33117   0.16448   0.00000  Uiso   1.00
C132   C     0.60016   0.31902   0.14320   0.00000  Uiso   1.00
C133   C     0.44868   0.19675   0.01487   0.00000  Uiso   1.00
C134   C     0.60620   0.30336   0.09400   0.00000  Uiso   1.00
C135   C     0.56359   0.08149   0.37693   0.00000  Uiso   1.00
C136   C     0.51803   0.05739   0.38652   0.00000  Uiso   1.00
C137   C     0.51761   0.01365   0.36256   0.00000  Uiso   1.00
C138   C     0.54423   0.03139   0.48471   0.00000  Uiso   1.00
C139   C     0.55252   0.33052   0.00986   0.00000  Uiso   1.00
C140   C     0.52700   0.28897   0.00039   0.00000  Uiso   1.00
C141   C     0.37422   0.21202   0.43034   0.00000  Uiso   1.00
C142   C     0.37316   0.16763   0.40715   0.00000  Uiso   1.00
C143   C     0.66095   0.14597   0.41592   0.00000  Uiso   1.00
C144   C     0.48639   0.17873   0.49157   0.00000  Uiso   1.00
C145   C     0.50058   0.17904   0.44434   0.00000  Uiso   1.00
C146   C     0.50952   0.15821   0.01361   0.00000  Uiso   1.00
C147   C     0.53530   0.12747   0.48856   0.00000  Uiso   1.00
C148   C     0.54785   0.12726   0.44143   0.00000  Uiso   1.00
C149   C     0.53817   0.16035   0.42232   0.00000  Uiso   1.00
H150   H     0.60381   0.08472   0.11715   0.00000  Uiso   1.00
H151   H     0.53090   0.30520   0.15738   0.00000  Uiso   1.00
H152   H     0.62408   0.01319   0.14589   0.00000  Uiso   1.00
H153   H     0.60610   0.29411   0.16148   0.00000  Uiso   1.00
H154   H     0.58264   0.27580   0.09039   0.00000  Uiso   1.00
H155   H     0.63895   0.29428   0.07992   0.00000  Uiso   1.00
H156   H     0.60217   0.32839   0.07485   0.00000  Uiso   1.00
H157   H     0.42895   0.01582   0.30767   0.00000  Uiso   1.00
H158   H     0.58752   0.05994   0.35969   0.00000  Uiso   1.00
H159   H     0.56705   0.10495   0.35266   0.00000  Uiso   1.00
H160   H     0.50402   0.05460   0.42291   0.00000  Uiso   1.00
H161   H     0.60300   0.13298   0.09598   0.00000  Uiso   1.00
H162   H     0.49678   0.07498   0.37515   0.00000  Uiso   1.00
H163   H     0.53546   0.32755   0.37631   0.00000  Uiso   1.00
H164   H     0.48412   0.33200   0.36752   0.00000  Uiso   1.00
H165   H     0.53268   0.01518   0.32615   0.00000  Uiso   1.00
H166   H     0.55107   0.02036   0.44867   0.00000  Uiso   1.00
H167   H     0.50959   0.03602   0.49630   0.00000  Uiso   1.00
H168   H     0.58716   0.32672   0.49936   0.00000  Uiso   1.00
H169   H     0.54317   0.00612   0.04644   0.00000  Uiso   1.00
H170   H     0.49217   0.29161   0.01211   0.00000  Uiso   1.00
H171   H     0.53444   0.26476   0.01845   0.00000  Uiso   1.00
H172   H     0.63296   0.05487   0.03509   0.00000  Uiso   1.00
H173   H     0.53551   0.27911   0.46395   0.00000  Uiso   1.00
H174   H     0.50103   0.21281   0.10902   0.00000  Uiso   1.00
H175   H     0.35530   0.23001   0.41623   0.00000  Uiso   1.00
H176   H     0.35770   0.21118   0.46658   0.00000  Uiso   1.00
H177   H     0.38651   0.16881   0.37043   0.00000  Uiso   1.00
H178   H     0.39239   0.14878   0.41983   0.00000  Uiso   1.00
H179   H     0.64631   0.14455   0.45246   0.00000  Uiso   1.00
H180   H     0.66125   0.11371   0.39971   0.00000  Uiso   1.00
H181   H     0.64145   0.16309   0.40168   0.00000  Uiso   1.00
H182   H     0.39814   0.19352   0.06603   0.00000  Uiso   1.00
H183   H     0.63918   0.10746   0.01962   0.00000  Uiso   1.00
H184   H     0.40526   0.25596   0.04468   0.00000  Uiso   1.00
H185   H     0.56274   0.20534   0.38399   0.00000  Uiso   1.00
H186   H     0.34211   0.20520   0.18119   0.00000  Uiso   1.00
H187   H     0.35183   0.12957   0.07364   0.00000  Uiso   1.00
H188   H     0.37374   0.09178   0.02912   0.00000  Uiso   1.00
H189   H     0.34795   0.07561   0.08463   0.00000  Uiso   1.00
H190   H     0.66303   0.12765   0.31832   0.00000  Uiso   1.00
H191   H     0.55083   0.02500   0.14830   0.00000  Uiso   1.00
O192   O     0.50000   0.16667   0.25000   0.00000  Uiso   1.00
O193   O     0.48784   0.12637   0.15459   0.00000  Uiso   1.00
O194   O     0.46274   0.20391   0.34968   0.00000  Uiso   1.00
O195   O     0.54157   0.17759   0.14606   0.00000  Uiso   1.00
O196   O     0.50785   0.15880   0.34968   0.00000  Uiso   1.00
O197   O     0.56073   0.08127   0.07977   0.00000  Uiso   1.00
O198   O     0.64620   0.13908   0.30139   0.00000  Uiso   1.00
O199   O     0.55082   0.00994   0.21058   0.00000  Uiso   1.00
O200   O     0.44647   0.32694   0.29129   0.00000  Uiso   1.00
O201   O     0.57545   0.09947   0.41624   0.00000  Uiso   1.00
O202   O     0.57286   0.06780   0.48892   0.00000  Uiso   1.00
O203   O     0.51264   0.08019   0.28214   0.00000  Uiso   1.00
O204   O     0.49765   0.20753   0.07825   0.00000  Uiso   1.00
O205   O     0.41635   0.23330   0.42268   0.00000  Uiso   1.00
O206   O     0.42802   0.18689   0.05816   0.00000  Uiso   1.00
O207   O     0.40073   0.24749   0.01452   0.00000  Uiso   1.00
O208   O     0.56831   0.17656   0.38599   0.00000  Uiso   1.00
O209   O     0.35705   0.19477   0.20065   0.00000  Uiso   1.00
O210   O     0.47965   0.26085   0.27014   0.00000  Uiso   1.00
O211   O     0.40745   0.13291   0.23413   0.00000  Uiso   1.00
O212   O     0.60026   0.19272   0.21361   0.00000  Uiso   1.00
O213   O     0.40405   0.18878   0.28213   0.00000  Uiso   1.00
O214   O     0.58824   0.15226   0.27014   0.00000  Uiso   1.00
O215   O     0.47093   0.06944   0.23413   0.00000  Uiso   1.00
O216   O     0.53678   0.25620   0.21361   0.00000  Uiso   1.00
Zn217  Zn    0.52672   0.13994   0.28734   0.00000  Uiso   1.00
Zn218  Zn    0.46713   0.12458   0.21876   0.00000  Uiso   1.00
Zn219  Zn    0.54389   0.19775   0.20657   0.00000  Uiso   1.00
Zn220  Zn    0.46226   0.20439   0.28734   0.00000  Uiso   1.00
C221   C     0.71964   0.15999   0.25997   0.00000  Uiso   1.00
C222   C     0.84291   0.16902   0.05875   0.00000  Uiso   1.00
C223   C     0.87931   0.10817   0.05763   0.00000  Uiso   1.00
C224   C     0.94751   0.17369   0.23988   0.00000  Uiso   1.00
C225   C     0.80889   0.19497   0.42055   0.00000  Uiso   1.00
C226   C     0.99376   0.17545   0.23534   0.00000  Uiso   1.00
C227   C     0.67420   0.15776   0.26515   0.00000  Uiso   1.00
C228   C     0.84710   0.32294   0.23715   0.00000  Uiso   1.00
C229   C     0.81712   0.01207   0.26389   0.00000  Uiso   1.00
C230   C     0.82257   0.05621   0.26026   0.00000  Uiso   1.00
C231   C     0.84309   0.27797   0.24019   0.00000  Uiso   1.00
C232   C     0.76343   0.22067   0.49200   0.00000  Uiso   1.00
C233   C     0.85182   0.14847   0.12946   0.00000  Uiso   1.00
C234   C     0.81605   0.18579   0.37103   0.00000  Uiso   1.00
C235   C     0.88381   0.10029   0.01149   0.00000  Uiso   1.00
C236   C     0.85869   0.14224   0.08116   0.00000  Uiso   1.00
C237   C     0.77365   0.21616   0.44507   0.00000  Uiso   1.00
C238   C     0.93398   0.09864   0.08748   0.00000  Uiso   1.00
C239   C     0.97119   0.08819   0.04723   0.00000  Uiso   1.00
C240   C     0.68049   0.09687   0.05951   0.00000  Uiso   1.00
C241   C     0.88842   0.33117   0.16448   0.00000  Uiso   1.00
C242   C     0.93349   0.31902   0.14320   0.00000  Uiso   1.00
C243   C     0.78201   0.19675   0.01487   0.00000  Uiso   1.00
C244   C     0.93953   0.30336   0.09400   0.00000  Uiso   1.00
C245   C     0.89692   0.08149   0.37693   0.00000  Uiso   1.00
C246   C     0.85137   0.05739   0.38652   0.00000  Uiso   1.00
C247   C     0.85094   0.01365   0.36256   0.00000  Uiso   1.00
C248   C     0.87756   0.03139   0.48471   0.00000  Uiso   1.00
C249   C     0.88586   0.33052   0.00986   0.00000  Uiso   1.00
C250   C     0.86033   0.28897   0.00039   0.00000  Uiso   1.00
C251   C     0.70756   0.21202   0.43034   0.00000  Uiso   1.00
C252   C     0.70649   0.16763   0.40715   0.00000  Uiso   1.00
C253   C     0.99429   0.14597   0.41592   0.00000  Uiso   1.00
C254   C     0.81972   0.17873   0.49157   0.00000  Uiso   1.00
C255   C     0.83392   0.17904   0.44434   0.00000  Uiso   1.00
C256   C     0.84285   0.15821   0.01361   0.00000  Uiso   1.00
C257   C     0.86863   0.12747   0.48856   0.00000  Uiso   1.00
C258   C     0.88118   0.12726   0.44143   0.00000  Uiso   1.00
C259   C     0.87150   0.16035   0.42232   0.00000  Uiso   1.00
H260   H     0.93714   0.08472   0.11715   0.00000  Uiso   1.00
H261   H     0.86424   0.30520   0.15738   0.00000  Uiso   1.00
H262   H     0.95741   0.01319   0.14589   0.00000  Uiso   1.00
H263   H     0.93943   0.29411   0.16148   0.00000  Uiso   1.00
H264   H     0.91598   0.27580   0.09039   0.00000  Uiso   1.00
H265   H     0.97229   0.29428   0.07992   0.00000  Uiso   1.00
H266   H     0.93550   0.32839   0.07485   0.00000  Uiso   1.00
H267   H     0.76228   0.01582   0.30767   0.00000  Uiso   1.00
H268   H     0.92086   0.05994   0.35969   0.00000  Uiso   1.00
H269   H     0.90038   0.10495   0.35266   0.00000  Uiso   1.00
H270   H     0.83735   0.05460   0.42291   0.00000  Uiso   1.00
H271   H     0.93633   0.13298   0.09598   0.00000  Uiso   1.00
H272   H     0.83011   0.07498   0.37515   0.00000  Uiso   1.00
H273   H     0.86880   0.32755   0.37631   0.00000  Uiso   1.00
H274   H     0.81746   0.33200   0.36752   0.00000  Uiso   1.00
H275   H     0.86602   0.01518   0.32615   0.00000  Uiso   1.00
H276   H     0.88440   0.02036   0.44867   0.00000  Uiso   1.00
H277   H     0.84292   0.03602   0.49630   0.00000  Uiso   1.00
H278   H     0.92049   0.32672   0.49936   0.00000  Uiso   1.00
H279   H     0.87651   0.00612   0.04644   0.00000  Uiso   1.00
H280   H     0.82551   0.29161   0.01211   0.00000  Uiso   1.00
H281   H     0.86778   0.26476   0.01845   0.00000  Uiso   1.00
H282   H     0.96630   0.05487   0.03509   0.00000  Uiso   1.00
H283   H     0.86884   0.27911   0.46395   0.00000  Uiso   1.00
H284   H     0.83437   0.21281   0.10902   0.00000  Uiso   1.00
H285   H     0.68863   0.23001   0.41623   0.00000  Uiso   1.00
H286   H     0.69103   0.21118   0.46658   0.00000  Uiso   1.00
H287   H     0.71984   0.16881   0.37043   0.00000  Uiso   1.00
H288   H     0.72572   0.14878   0.41983   0.00000  Uiso   1.00
H289   H     0.97964   0.14455   0.45246   0.00000  Uiso   1.00
H290   H     0.99459   0.11371   0.39971   0.00000  Uiso   1.00
H291   H     0.97478   0.16309   0.40168   0.00000  Uiso   1.00
H292   H     0.73148   0.19352   0.06603   0.00000  Uiso   1.00
H293   H     0.97251   0.10746   0.01962   0.00000  Uiso   1.00
H294   H     0.73859   0.25596   0.04468   0.00000  Uiso   1.00
H295   H     0.89607   0.20534   0.38399   0.00000  Uiso   1.00
H296   H     0.67544   0.20520   0.18119   0.00000  Uiso   1.00
H297   H     0.68516   0.12957   0.07364   0.00000  Uiso   1.00
H298   H     0.70707   0.09178   0.02912   0.00000  Uiso   1.00
H299   H     0.68129   0.07561   0.08463   0.00000  Uiso   1.00
H300   H     0.99636   0.12765   0.31832   0.00000  Uiso   1.00
H301   H     0.88416   0.02500   0.14830   0.00000  Uiso   1.00
O302   O     0.83333   0.16667   0.25000   0.00000  Uiso   1.00
O303   O     0.82118   0.12637   0.15459   0.00000  Uiso   1.00
O304   O     0.79607   0.20391   0.34968   0.00000  Uiso   1.00
O305   O     0.87491   0.17759   0.14606   0.00000  Uiso   1.00
O306   O     0.84118   0.15880   0.34968   0.00000  Uiso   1.00
O307   O     0.89406   0.08127   0.07977   0.00000  Uiso   1.00
O308   O     0.97953   0.13908   0.30139   0.00000  Uiso   1.00
O309   O     0.88415   0.00994   0.21058   0.00000  Uiso   1.00
O310   O     0.77980   0.32694   0.29129   0.00000  Uiso   1.00
O311   O     0.90879   0.09947   0.41624   0.00000  Uiso   1.00
O312   O     0.90619   0.06780   0.48892   0.00000  Uiso   1.00
O313   O     0.84597   0.08019   0.28214   0.00000  Uiso   1.00
O314   O     0.83098   0.20753   0.07825   0.00000  Uiso   1.00
O315   O     0.74969   0.23330   0.42268   0.00000  Uiso   1.00
O316   O     0.76135   0.18689   0.05816   0.00000  Uiso   1.00
O317   O     0.73407   0.24749   0.01452   0.00000  Uiso   1.00
O318   O     0.90165   0.17656   0.38599   0.00000  Uiso   1.00
O319   O     0.69039   0.19477   0.20065   0.00000  Uiso   1.00
O320   O     0.81298   0.26085   0.27014   0.00000  Uiso   1.00
O321   O     0.74078   0.13291   0.23413   0.00000  Uiso   1.00
O322   O     0.93360   0.19272   0.21361   0.00000  Uiso   1.00
O323   O     0.73738   0.18878   0.28213   0.00000  Uiso   1.00
O324   O     0.92158   0.15226   0.27014   0.00000  Uiso   1.00
O325   O     0.80426   0.06944   0.23413   0.00000  Uiso   1.00
O326   O     0.87012   0.25620   0.21361   0.00000  Uiso   1.00
Zn327  Zn    0.86005   0.13994   0.28734   0.00000  Uiso   1.00
Zn328  Zn    0.80046   0.12458   0.21876   0.00000  Uiso   1.00
Zn329  Zn    0.87723   0.19775   0.20657   0.00000  Uiso   1.00
Zn330  Zn    0.79560   0.20439   0.28734   0.00000  Uiso   1.00
C331   C     0.05297   0.49332   0.25997   0.00000  Uiso   1.00
C332   C     0.17625   0.50235   0.05875   0.00000  Uiso   1.00
C333   C     0.21264   0.44150   0.05763   0.00000  Uiso   1.00
C334   C     0.28084   0.50702   0.23988   0.00000  Uiso   1.00
C335   C     0.14222   0.52830   0.42055   0.00000  Uiso   1.00
C336   C     0.32709   0.50878   0.23534   0.00000  Uiso   1.00
C337   C     0.00754   0.49110   0.26515   0.00000  Uiso   1.00
C338   C     0.18043   0.65627   0.23715   0.00000  Uiso   1.00
C339   C     0.15045   0.34540   0.26389   0.00000  Uiso   1.00
C340   C     0.15590   0.38955   0.26026   0.00000  Uiso   1.00
C341   C     0.17643   0.61130   0.24019   0.00000  Uiso   1.00
C342   C     0.09676   0.55400   0.49200   0.00000  Uiso   1.00
C343   C     0.18515   0.48181   0.12946   0.00000  Uiso   1.00
C344   C     0.14938   0.51912   0.37103   0.00000  Uiso   1.00
C345   C     0.21715   0.43363   0.01149   0.00000  Uiso   1.00
C346   C     0.19202   0.47557   0.08116   0.00000  Uiso   1.00
C347   C     0.10699   0.54950   0.44507   0.00000  Uiso   1.00
C348   C     0.26731   0.43197   0.08748   0.00000  Uiso   1.00
C349   C     0.30452   0.42152   0.04723   0.00000  Uiso   1.00
C350   C     0.01383   0.43020   0.05951   0.00000  Uiso   1.00
C351   C     0.22175   0.66450   0.16448   0.00000  Uiso   1.00
C352   C     0.26682   0.65235   0.14320   0.00000  Uiso   1.00
C353   C     0.11535   0.53008   0.01487   0.00000  Uiso   1.00
C354   C     0.27286   0.63669   0.09400   0.00000  Uiso   1.00
C355   C     0.23025   0.41483   0.37693   0.00000  Uiso   1.00
C356   C     0.18470   0.39072   0.38652   0.00000  Uiso   1.00
C357   C     0.18428   0.34699   0.36256   0.00000  Uiso   1.00
C358   C     0.21090   0.36472   0.48471   0.00000  Uiso   1.00
C359   C     0.21919   0.66385   0.00986   0.00000  Uiso   1.00
C360   C     0.19366   0.62230   0.00039   0.00000  Uiso   1.00
C361   C     0.04089   0.54536   0.43034   0.00000  Uiso   1.00
C362   C     0.03982   0.50096   0.40715   0.00000  Uiso   1.00
C363   C     0.32762   0.47930   0.41592   0.00000  Uiso   1.00
C364   C     0.15305   0.51206   0.49157   0.00000  Uiso   1.00
C365   C     0.16725   0.51237   0.44434   0.00000  Uiso   1.00
C366   C     0.17618   0.49154   0.01361   0.00000  Uiso   1.00
C367   C     0.20196   0.46081   0.48856   0.00000  Uiso   1.00
C368   C     0.21452   0.46059   0.44143   0.00000  Uiso   1.00
C369   C     0.20483   0.49368   0.42232   0.00000  Uiso   1.00
H370   H     0.27047   0.41805   0.11715   0.00000  Uiso   1.00
H371   H     0.19757   0.63853   0.15738   0.00000  Uiso   1.00
H372   H     0.29074   0.34652   0.14589   0.00000  Uiso   1.00
H373   H     0.27276   0.62744   0.16148   0.00000  Uiso   1.00
H374   H     0.24931   0.60913   0.09039   0.00000  Uiso   1.00
H375   H     0.30562   0.62761   0.07992   0.00000  Uiso   1.00
H376   H     0.26883   0.66172   0.07485   0.00000  Uiso   1.00
H377   H     0.09562   0.34916   0.30767   0.00000  Uiso   1.00
H378   H     0.25419   0.39327   0.35969   0.00000  Uiso   1.00
H379   H     0.23371   0.43828   0.35266   0.00000  Uiso   1.00
H380   H     0.17068   0.38793   0.42291   0.00000  Uiso   1.00
H381   H     0.26966   0.46631   0.09598   0.00000  Uiso   1.00
H382   H     0.16344   0.40831   0.37515   0.00000  Uiso   1.00
H383   H     0.20213   0.66088   0.37631   0.00000  Uiso   1.00
H384   H     0.15079   0.66534   0.36752   0.00000  Uiso   1.00
H385   H     0.19935   0.34852   0.32615   0.00000  Uiso   1.00
H386   H     0.21774   0.35370   0.44867   0.00000  Uiso   1.00
H387   H     0.17626   0.36935   0.49630   0.00000  Uiso   1.00
H388   H     0.25383   0.66006   0.49936   0.00000  Uiso   1.00
H389   H     0.20984   0.33945   0.04644   0.00000  Uiso   1.00
H390   H     0.15884   0.62495   0.01211   0.00000  Uiso   1.00
H391   H     0.20111   0.59810   0.01845   0.00000  Uiso   1.00
H392   H     0.29963   0.38820   0.03509   0.00000  Uiso   1.00
H393   H     0.20218   0.61244   0.46395   0.00000  Uiso   1.00
H394   H     0.16770   0.54614   0.10902   0.00000  Uiso   1.00
H395   H     0.02197   0.56334   0.41623   0.00000  Uiso   1.00
H396   H     0.02436   0.54451   0.46658   0.00000  Uiso   1.00
H397   H     0.05317   0.50215   0.37043   0.00000  Uiso   1.00
H398   H     0.05905   0.48211   0.41983   0.00000  Uiso   1.00
H399   H     0.31298   0.47788   0.45246   0.00000  Uiso   1.00
H400   H     0.32792   0.44705   0.39971   0.00000  Uiso   1.00
H401   H     0.30812   0.49643   0.40168   0.00000  Uiso   1.00
H402   H     0.06481   0.52685   0.06603   0.00000  Uiso   1.00
H403   H     0.30585   0.44079   0.01962   0.00000  Uiso   1.00
H404   H     0.07192   0.58930   0.04468   0.00000  Uiso   1.00
H405   H     0.22941   0.53867   0.38399   0.00000  Uiso   1.00
H406   H     0.00877   0.53853   0.18119   0.00000  Uiso   1.00
H407   H     0.01849   0.46291   0.07364   0.00000  Uiso   1.00
H408   H     0.04040   0.42512   0.02912   0.00000  Uiso   1.00
H409   H     0.01462   0.40894   0.08463   0.00000  Uiso   1.00
H410   H     0.32969   0.46099   0.31832   0.00000  Uiso   1.00
H411   H     0.21750   0.35833   0.14830   0.00000  Uiso   1.00
O412   O     0.16667   0.50000   0.25000   0.00000  Uiso   1.00
O413   O     0.15451   0.45970   0.15459   0.00000  Uiso   1.00
O414   O     0.12940   0.53724   0.34968   0.00000  Uiso   1.00
O415   O     0.20824   0.51092   0.14606   0.00000  Uiso   1.00
O416   O     0.17451   0.49213   0.34968   0.00000  Uiso   1.00
O417   O     0.22740   0.41460   0.07977   0.00000  Uiso   1.00
O418   O     0.31286   0.47241   0.30139   0.00000  Uiso   1.00
O419   O     0.21749   0.34327   0.21058   0.00000  Uiso   1.00
O420   O     0.11313   0.66027   0.29129   0.00000  Uiso   1.00
O421   O     0.24212   0.43280   0.41624   0.00000  Uiso   1.00
O422   O     0.23953   0.40114   0.48892   0.00000  Uiso   1.00
O423   O     0.17930   0.41352   0.28214   0.00000  Uiso   1.00
O424   O     0.16432   0.54086   0.07825   0.00000  Uiso   1.00
O425   O     0.08302   0.56664   0.42268   0.00000  Uiso   1.00
O426   O     0.09469   0.52023   0.05816   0.00000  Uiso   1.00
O427   O     0.06740   0.58083   0.01452   0.00000  Uiso   1.00
O428   O     0.23498   0.50989   0.38599   0.00000  Uiso   1.00
O429   O     0.02372   0.52810   0.20065   0.00000  Uiso   1.00
O430   O     0.14632   0.59418   0.27014   0.00000  Uiso   1.00
O431   O     0.07412   0.46625   0.23413   0.00000  Uiso   1.00
O432   O     0.26693   0.52605   0.21361   0.00000  Uiso   1.00
O433   O     0.07071   0.52211   0.28213   0.00000  Uiso   1.00
O434   O     0.25491   0.48559   0.27014   0.00000  Uiso   1.00
O435   O     0.13760   0.40277   0.23413   0.00000  Uiso   1.00
O436   O     0.20345   0.58953   0.21361   0.00000  Uiso   1.00
Zn437  Zn    0.19338   0.47327   0.28734   0.00000  Uiso   1.00
Zn438  Zn    0.13379   0.45791   0.21876   0.00000  Uiso   1.00
Zn439  Zn    0.21056   0.53109   0.20657   0.00000  Uiso   1.00
Zn440  Zn    0.12893   0.53773   0.28734   0.00000  Uiso   1.00
C441   C     0.38630   0.49332   0.25997   0.00000  Uiso   1.00
C442   C     0.50958   0.50235   0.05875   0.00000  Uiso   1.00
C443   C     0.54597   0.44150   0.05763   0.00000  Uiso   1.00
C444   C     0.61418   0.50702   0.23988   0.00000  Uiso   1.00
C445   C     0.47555   0.52830   0.42055   0.00000  Uiso   1.00
C446   C     0.66043   0.50878   0.23534   0.00000  Uiso   1.00
C447   C     0.34087   0.49110   0.26515   0.00000  Uiso   1.00
C448   C     0.51377   0.65627   0.23715   0.00000  Uiso   1.00
C449   C     0.48378   0.34540   0.26389   0.00000  Uiso   1.00
C450   C     0.48924   0.38955   0.26026   0.00000  Uiso   1.00
C451   C     0.50976   0.61130   0.24019   0.00000  Uiso   1.00
C452   C     0.43010   0.55400   0.49200   0.00000  Uiso   1.00
C453   C     0.51849   0.48181   0.12946   0.00000  Uiso   1.00
C454   C     0.48271   0.51912   0.37103   0.00000  Uiso   1.00
C455   C     0.55048   0.43363   0.01149   0.00000  Uiso   1.00
C456   C     0.52536   0.47557   0.08116   0.00000  Uiso   1.00
C457   C     0.44032   0.54950   0.44507   0.00000  Uiso   1.00
C458   C     0.60064   0.43197   0.08748   0.00000  Uiso   1.00
C459   C     0.63786   0.42152   0.04723   0.00000  Uiso   1.00
C460   C     0.34716   0.43020   0.05951   0.00000  Uiso   1.00
C461   C     0.55509   0.66450   0.16448   0.00000  Uiso   1.00
C462   C     0.60016   0.65235   0.14320   0.00000  Uiso   1.00
C463   C     0.44868   0.53008   0.01487   0.00000  Uiso   1.00
C464   C     0.60620   0.63669   0.09400   0.00000  Uiso   1.00
C465   C     0.56359   0.41483   0.37693   0.00000  Uiso   1.00
C466   C     0.51803   0.39072   0.38652   0.00000  Uiso   1.00
C467   C     0.51761   0.34699   0.36256   0.00000  Uiso   1.00
C468   C     0.54423   0.36472   0.48471   0.00000  Uiso   1.00
C469   C     0.55252   0.66385   0.00986   0.00000  Uiso   1.00
C470   C     0.52700   0.62230   0.00039   0.00000  Uiso   1.00
C471   C     0.37422   0.54536   0.43034   0.00000  Uiso   1.00
C472   C     0.37316   0.50096   0.40715   0.00000  Uiso   1.00
C473   C     0.66095   0.47930   0.41592   0.00000  Uiso   1.00
C474   C     0.48639   0.51206   0.49157   0.00000  Uiso   1.00
C475   C     0.50058   0.51237   0.44434   0.00000  Uiso   1.00
C476   C     0.50952   0.49154   0.01361   0.00000  Uiso   1.00
C477   C     0.53530   0.46081   0.48856   0.00000  Uiso   1.00
C478   C     0.54785   0.46059   0.44143   0.00000  Uiso   1.00
C479   C     0.53817   0.49368   0.42232   0.00000  Uiso   1.00
H480   H     0.60381   0.41805   0.11715   0.00000  Uiso   1.00
H481   H     0.53090   0.63853   0.15738   0.00000  Uiso   1.00
H482   H     0.62408   0.34652   0.14589   0.00000  Uiso   1.00
H483   H     0.60610   0.62744   0.16148   0.00000  Uiso   1.00
H484   H     0.58264   0.60913   0.09039   0.00000  Uiso   1.00
H485   H     0.63895   0.62761   0.07992   0.00000  Uiso   1.00
H486   H     0.60217   0.66172   0.07485   0.00000  Uiso   1.00
H487   H     0.42895   0.34916   0.30767   0.00000  Uiso   1.00
H488   H     0.58752   0.39327   0.35969   0.00000  Uiso   1.00
H489   H     0.56705   0.43828   0.35266   0.00000  Uiso   1.00
H490   H     0.50402   0.38793   0.42291   0.00000  Uiso   1.00
H491   H     0.60300   0.46631   0.09598   0.00000  Uiso   1.00
H492   H     0.49678   0.40831   0.37515   0.00000  Uiso   1.00
H493   H     0.53546   0.66088   0.37631   0.00000  Uiso   1.00
H494   H     0.48412   0.66534   0.36752   0.00000  Uiso   1.00
H495   H     0.53268   0.34852   0.32615   0.00000  Uiso   1.00
H496   H     0.55107   0.35370   0.44867   0.00000  Uiso   1.00
H497   H     0.50959   0.36935   0.49630   0.00000  Uiso   1.00
H498   H     0.58716   0.66006   0.49936   0.00000  Uiso   1.00
H499   H     0.54317   0.33945   0.04644   0.00000  Uiso   1.00
H500   H     0.49217   0.62495   0.01211   0.00000  Uiso   1.00
H501   H     0.53444   0.59810   0.01845   0.00000  Uiso   1.00
H502   H     0.63296   0.38820   0.03509   0.00000  Uiso   1.00
H503   H     0.53551   0.61244   0.46395   0.00000  Uiso   1.00
H504   H     0.50103   0.54614   0.10902   0.00000  Uiso   1.00
H505   H     0.35530   0.56334   0.41623   0.00000  Uiso   1.00
H506   H     0.35770   0.54451   0.46658   0.00000  Uiso   1.00
H507   H     0.38651   0.50215   0.37043   0.00000  Uiso   1.00
H508   H     0.39239   0.48211   0.41983   0.00000  Uiso   1.00
H509   H     0.64631   0.47788   0.45246   0.00000  Uiso   1.00
H510   H     0.66125   0.44705   0.39971   0.00000  Uiso   1.00
H511   H     0.64145   0.49643   0.40168   0.00000  Uiso   1.00
H512   H     0.39814   0.52685   0.06603   0.00000  Uiso   1.00
H513   H     0.63918   0.44079   0.01962   0.00000  Uiso   1.00
H514   H     0.40526   0.58930   0.04468   0.00000  Uiso   1.00
H515   H     0.56274   0.53867   0.38399   0.00000  Uiso   1.00
H516   H     0.34211   0.53853   0.18119   0.00000  Uiso   1.00
H517   H     0.35183   0.46291   0.07364   0.00000  Uiso   1.00
H518   H     0.37374   0.42512   0.02912   0.00000  Uiso   1.00
H519   H     0.34795   0.40894   0.08463   0.00000  Uiso   1.00
H520   H     0.66303   0.46099   0.31832   0.00000  Uiso   1.00
H521   H     0.55083   0.35833   0.14830   0.00000  Uiso   1.00
O522   O     0.50000   0.50000   0.25000   0.00000  Uiso   1.00
O523   O     0.48784   0.45970   0.15459   0.00000  Uiso   1.00
O524   O     0.46274   0.53724   0.34968   0.00000  Uiso   1.00
O525   O     0.54157   0.51092   0.14606   0.00000  Uiso   1.00
O526   O     0.50785   0.49213   0.34968   0.00000  Uiso   1.00
O527   O     0.56073   0.41460   0.07977   0.00000  Uiso   1.00
O528   O     0.64620   0.47241   0.30139   0.00000  Uiso   1.00
O529   O     0.55082   0.34327   0.21058   0.00000  Uiso   1.00
O530   O     0.44647   0.66027   0.29129   0.00000  Uiso   1.00
O531   O     0.57545   0.43280   0.41624   0.00000  Uiso   1.00
O532   O     0.57286   0.40114   0.48892   0.00000  Uiso   1.00
O533   O     0.51264   0.41352   0.28214   0.00000  Uiso   1.00
O534   O     0.49765   0.54086   0.07825   0.00000  Uiso   1.00
O535   O     0.41635   0.56664   0.42268   0.00000  Uiso   1.00
O536   O     0.42802   0.52023   0.05816   0.00000  Uiso   1.00
O537   O     0.40073   0.58083   0.01452   0.00000  Uiso   1.00
O538   O     0.56831   0.50989   0.38599   0.00000  Uiso   1.00
O539   O     0.35705   0.52810   0.20065   0.00000  Uiso   1.00
O540   O     0.47965   0.59418   0.27014   0.00000  Uiso   1.00
O541   O     0.40745   0.46625   0.23413   0.00000  Uiso   1.00
O542   O     0.60026   0.52605   0.21361   0.00000  Uiso   1.00
O543   O     0.40405   0.52211   0.28213   0.00000  Uiso   1.00
O544   O     0.58824   0.48559   0.27014   0.00000  Uiso   1.00
O545   O     0.47093   0.40277   0.23413   0.00000  Uiso   1.00
O546   O     0.53678   0.58953   0.21361   0.00000  Uiso   1.00
Zn547  Zn    0.52672   0.47327   0.28734   0.00000  Uiso   1.00
Zn548  Zn    0.46713   0.45791   0.21876   0.00000  Uiso   1.00
Zn549  Zn    0.54389   0.53109   0.20657   0.00000  Uiso   1.00
Zn550  Zn    0.46226   0.53773   0.28734   0.00000  Uiso   1.00
C551   C     0.71964   0.49332   0.25997   0.00000  Uiso   1.00
C552   C     0.84291   0.50235   0.05875   0.00000  Uiso   1.00
C553   C     0.87931   0.44150   0.05763   0.00000  Uiso   1.00
C554   C     0.94751   0.50702   0.23988   0.00000  Uiso   1.00
C555   C     0.80889   0.52830   0.42055   0.00000  Uiso   1.00
C556   C     0.99376   0.50878   0.23534   0.00000  Uiso   1.00
C557   C     0.67420   0.49110   0.26515   0.00000  Uiso   1.00
C558   C     0.84710   0.65627   0.23715   0.00000  Uiso   1.00
C559   C     0.81712   0.34540   0.26389   0.00000  Uiso   1.00
C560   C     0.82257   0.38955   0.26026   0.00000  Uiso   1.00
C561   C     0.84309   0.61130   0.24019   0.00000  Uiso   1.00
C562   C     0.76343   0.55400   0.49200   0.00000  Uiso   1.00
C563   C     0.85182   0.48181   0.12946   0.00000  Uiso   1.00
C564   C     0.81605   0.51912   0.37103   0.00000  Uiso   1.00
C565   C     0.88381   0.43363   0.01149   0.00000  Uiso   1.00
C566   C     0.85869   0.47557   0.08116   0.00000  Uiso   1.00
C567   C     0.77365   0.54950   0.44507   0.00000  Uiso   1.00
C568   C     0.93398   0.43197   0.08748   0.00000  Uiso   1.00
C569   C     0.97119   0.42152   0.04723   0.00000  Uiso   1.00
C570   C     0.68049   0.43020   0.05951   0.00000  Uiso   1.00
C571   C     0.88842   0.66450   0.16448   0.00000  Uiso   1.00
C572   C     0.93349   0.65235   0.14320   0.00000  Uiso   1.00
C573   C     0.78201   0.53008   0.01487   0.00000  Uiso   1.00
C574   C     0.93953   0.63669   0.09400   0.00000  Uiso   1.00
C575   C     0.89692   0.41483   0.37693   0.00000  Uiso   1.00
C576   C     0.85137   0.39072   0.38652   0.00000  Uiso   1.00
C577   C     0.85094   0.34699   0.36256   0.00000  Uiso   1.00
C578   C     0.87756   0.36472   0.48471   0.00000  Uiso   1.00
C579   C     0.88586   0.66385   0.00986   0.00000  Uiso   1.00
C580   C     0.86033   0.62230   0.00039   0.00000  Uiso   1.00
C581   C     0.70756   0.54536   0.43034   0.00000  Uiso   1.00
C582   C     0.70649   0.50096   0.40715   0.00000  Uiso   1.00
C583   C     0.99429   0.47930   0.41592   0.00000  Uiso   1.00
C584   C     0.81972   0.51206   0.49157   0.00000  Uiso   1.00
C585   C     0.83392   0.51237   0.44434   0.00000  Uiso   1.00
C586   C     0.84285   0.49154   0.01361   0.00000  Uiso   1.00
C587   C     0.86863   0.46081   0.48856   0.00000  Uiso   1.00
C588   C     0.88118   0.46059   0.44143   0.00000  Uiso   1.00
C589   C     0.87150   0.49368   0.42232   0.00000  Uiso   1.00
H590   H     0.93714   0.41805   0.11715   0.00000  Uiso   1.00
H591   H     0.86424   0.63853   0.15738   0.00000  Uiso   1.00
H592   H     0.95741   0.34652   0.14589   0.00000  Uiso   1.00
H593   H     0.93943   0.62744   0.16148   0.00000  Uiso   1.00
H594   H     0.91598   0.60913   0.09039   0.00000  Uiso   1.00
H595   H     0.97229   0.62761   0.07992   0.00000  Uiso   1.00
H596   H     0.93550   0.66172   0.07485   0.00000  Uiso   1.00
H597   H     0.76228   0.34916   0.30767   0.00000  Uiso   1.00
H598   H     0.92086   0.39327   0.35969   0.00000  Uiso   1.00
H599   H     0.90038   0.43828   0.35266   0.00000  Uiso   1.00
H600   H     0.83735   0.38793   0.42291   0.00000  Uiso   1.00
H601   H     0.93633   0.46631   0.09598   0.00000  Uiso   1.00
H602   H     0.83011   0.40831   0.37515   0.00000  Uiso   1.00
H603   H     0.86880   0.66088   0.37631   0.00000  Uiso   1.00
H604   H     0.81746   0.66534   0.36752   0.00000  Uiso   1.00
H605   H     0.86602   0.34852   0.32615   0.00000  Uiso   1.00
H606   H     0.88440   0.35370   0.44867   0.00000  Uiso   1.00
H607   H     0.84292   0.36935   0.49630   0.00000  Uiso   1.00
H608   H     0.92049   0.66006   0.49936   0.00000  Uiso   1.00
H609   H     0.87651   0.33945   0.04644   0.00000  Uiso   1.00
H610   H     0.82551   0.62495   0.01211   0.00000  Uiso   1.00
H611   H     0.86778   0.59810   0.01845   0.00000  Uiso   1.00
H612   H     0.96630   0.38820   0.03509   0.00000  Uiso   1.00
H613   H     0.86884   0.61244   0.46395   0.00000  Uiso   1.00
H614   H     0.83437   0.54614   0.10902   0.00000  Uiso   1.00
H615   H     0.68863   0.56334   0.41623   0.00000  Uiso   1.00
H616   H     0.69103   0.54451   0.46658   0.00000  Uiso   1.00
H617   H     0.71984   0.50215   0.37043   0.00000  Uiso   1.00
H618   H     0.72572   0.48211   0.41983   0.00000  Uiso   1.00
H619   H     0.97964   0.47788   0.45246   0.00000  Uiso   1.00
H620   H     0.99459   0.44705   0.39971   0.00000  Uiso   1.00
H621   H     0.97478   0.49643   0.40168   0.00000  Uiso   1.00
H622   H     0.73148   0.52685   0.06603   0.00000  Uiso   1.00
H623   H     0.97251   0.44079   0.01962   0.00000  Uiso   1.00
H624   H     0.73859   0.58930   0.04468   0.00000  Uiso   1.00
H625   H     0.89607   0.53867   0.38399   0.00000  Uiso   1.00
H626   H     0.67544   0.53853   0.18119   0.00000  Uiso   1.00
H627   H     0.68516   0.46291   0.07364   0.00000  Uiso   1.00
H628   H     0.70707   0.42512   0.02912   0.00000  Uiso   1.00
H629   H     0.68129   0.40894   0.08463   0.00000  Uiso   1.00
H630   H     0.99636   0.46099   0.31832   0.00000  Uiso   1.00
H631   H     0.88416   0.35833   0.14830   0.00000  Uiso   1.00
O632   O     0.83333   0.50000   0.25000   0.00000  Uiso   1.00
O633   O     0.82118   0.45970   0.15459   0.00000  Uiso   1.00
O634   O     0.79607   0.53724   0.34968   0.00000  Uiso   1.00
O635   O     0.87491   0.51092   0.14606   0.00000  Uiso   1.00
O636   O     0.84118   0.49213   0.34968   0.00000  Uiso   1.00
O637   O     0.89406   0.41460   0.07977   0.00000  Uiso   1.00
O638   O     0.97953   0.47241   0.30139   0.00000  Uiso   1.00
O639   O     0.88415   0.34327   0.21058   0.00000  Uiso   1.00
O640   O     0.77980   0.66027   0.29129   0.00000  Uiso   1.00
O641   O     0.90879   0.43280   0.41624   0.00000  Uiso   1.00
O642   O     0.90619   0.40114   0.48892   0.00000  Uiso   1.00
O643   O     0.84597   0.41352   0.28214   0.00000  Uiso   1.00
O644   O     0.83098   0.54086   0.07825   0.00000  Uiso   1.00
O645   O     0.74969   0.56664   0.42268   0.00000  Uiso   1.00
O646   O     0.76135   0.52023   0.05816   0.00000  Uiso   1.00
O647   O     0.73407   0.58083   0.01452   0.00000  Uiso   1.00
O648   O     0.90165   0.50989   0.38599   0.00000  Uiso   1.00
O649   O     0.69039   0.52810   0.20065   0.00000  Uiso   1.00
O650   O     0.81298   0.59418   0.27014   0.00000  Uiso   1.00
O651   O     0.74078   0.46625   0.23413   0.00000  Uiso   1.00
O652   O     0.93360   0.52605   0.21361   0.00000  Uiso   1.00
O653   O     0.73738   0.52211   0.28213   0.00000  Uiso   1.00
O654   O     0.92158   0.48559   0.27014   0.00000  Uiso   1.00
O655   O     0.80426   0.40277   0.23413   0.00000  Uiso   1.00
O656   O     0.87012   0.58953   0.21361   0.00000  Uiso   1.00
Zn657  Zn    0.86005   0.47327   0.28734   0.00000  Uiso   1.00
Zn658  Zn    0.80046   0.45791   0.21876   0.00000  Uiso   1.00
Zn659  Zn    0.87723   0.53109   0.20657   0.00000  Uiso   1.00
Zn660  Zn    0.79560   0.53773   0.28734   0.00000  Uiso   1.00
C661   C     0.05297   0.82666   0.25997   0.00000  Uiso   1.00
C662   C     0.17625   0.83568   0.05875   0.00000  Uiso   1.00
C663   C     0.21264   0.77483   0.05763   0.00000  Uiso   1.00
C664   C     0.28084   0.84036   0.23988   0.00000  Uiso   1.00
C665   C     0.14222   0.86163   0.42055   0.00000  Uiso   1.00
C666   C     0.32709   0.84212   0.23534   0.00000  Uiso   1.00
C667   C     0.00754   0.82443   0.26515   0.00000  Uiso   1.00
C668   C     0.18043   0.98961   0.23715   0.00000  Uiso   1.00
C669   C     0.15045   0.67873   0.26389   0.00000  Uiso   1.00
C670   C     0.15590   0.72288   0.26026   0.00000  Uiso   1.00
C671   C     0.17643   0.94464   0.24019   0.00000  Uiso   1.00
C672   C     0.09676   0.88734   0.49200   0.00000  Uiso   1.00
C673   C     0.18515   0.81514   0.12946   0.00000  Uiso   1.00
C674   C     0.14938   0.85245   0.37103   0.00000  Uiso   1.00
C675   C     0.21715   0.76696   0.01149   0.00000  Uiso   1.00
C676   C     0.19202   0.80890   0.08116   0.00000  Uiso   1.00
C677   C     0.10699   0.88283   0.44507   0.00000  Uiso   1.00
C678   C     0.26731   0.76530   0.08748   0.00000  Uiso   1.00
C679   C     0.30452   0.75486   0.04723   0.00000  Uiso   1.00
C680   C     0.01383   0.76354   0.05951   0.00000  Uiso   1.00
C681   C     0.22175   0.99784   0.16448   0.00000  Uiso   1.00
C682   C     0.26682   0.98569   0.14320   0.00000  Uiso   1.00
C683   C     0.11535   0.86342   0.01487   0.00000  Uiso   1.00
C684   C     0.27286   0.97003   0.09400   0.00000  Uiso   1.00
C685   C     0.23025   0.74816   0.37693   0.00000  Uiso   1.00
C686   C     0.18470   0.72406   0.38652   0.00000  Uiso   1.00
C687   C     0.18428   0.68032   0.36256   0.00000  Uiso   1.00
C688   C     0.21090   0.69806   0.48471   0.00000  Uiso   1.00
C689   C     0.21919   0.99719   0.00986   0.00000  Uiso   1.00
C690   C     0.19366   0.95563   0.00039   0.00000  Uiso   1.00
C691   C     0.04089   0.87869   0.43034   0.00000  Uiso   1.00
C692   C     0.03982   0.83430   0.40715   0.00000  Uiso   1.00
C693   C     0.32762   0.81264   0.41592   0.00000  Uiso   1.00
C694   C     0.15305   0.84539   0.49157   0.00000  Uiso   1.00
C695   C     0.16725   0.84570   0.44434   0.00000  Uiso   1.00
C696   C     0.17618   0.82487   0.01361   0.00000  Uiso   1.00
C697   C     0.20196   0.79414   0.48856   0.00000  Uiso   1.00
C698   C     0.21452   0.79393   0.44143   0.00000  Uiso   1.00
C699   C     0.20483   0.82702   0.42232   0.00000  Uiso   1.00
H700   H     0.27047   0.75138   0.11715   0.00000  Uiso   1.00
H701   H     0.19757   0.97187   0.15738   0.00000  Uiso   1.00
H702   H     0.29074   0.67985   0.14589   0.00000  Uiso   1.00
H703   H     0.27276   0.96078   0.16148   0.00000  Uiso   1.00
H704   H     0.24931   0.94246   0.09039   0.00000  Uiso   1.00
H705   H     0.30562   0.96095   0.07992   0.00000  Uiso   1.00
H706   H     0.26883   0.99505   0.07485   0.00000  Uiso   1.00
H707   H     0.09562   0.68249   0.30767   0.00000  Uiso   1.00
H708   H     0.25419   0.72661   0.35969   0.00000  Uiso   1.00
H709   H     0.23371   0.77162   0.35266   0.00000  Uiso   1.00
H710   H     0.17068   0.72126   0.42291   0.00000  Uiso   1.00
H711   H     0.26966   0.79964   0.09598   0.00000  Uiso   1.00
H712   H     0.16344   0.74164   0.37515   0.00000  Uiso   1.00
H713   H     0.20213   0.99421   0.37631   0.00000  Uiso   1.00
H714   H     0.15079   0.99867   0.36752   0.00000  Uiso   1.00
H715   H     0.19935   0.68185   0.32615   0.00000  Uiso   1.00
H716   H     0.21774   0.68703   0.44867   0.00000  Uiso   1.00
H717   H     0.17626   0.70268   0.49630   0.00000  Uiso   1.00
H718   H     0.25383   0.99339   0.49936   0.00000  Uiso   1.00
H719   H     0.20984   0.67278   0.04644   0.00000  Uiso   1.00
H720   H     0.15884   0.95828   0.01211   0.00000  Uiso   1.00
H721   H     0.20111   0.93143   0.01845   0.00000  Uiso   1.00
H722   H     0.29963   0.72153   0.03509   0.00000  Uiso   1.00
H723   H     0.20218   0.94577   0.46395   0.00000  Uiso   1.00
H724   H     0.16770   0.87948   0.10902   0.00000  Uiso   1.00
H725   H     0.02197   0.89668   0.41623   0.00000  Uiso   1.00
H726   H     0.02436   0.87785   0.46658   0.00000  Uiso   1.00
H727   H     0.05317   0.83548   0.37043   0.00000  Uiso   1.00
H728   H     0.05905   0.81544   0.41983   0.00000  Uiso   1.00
H729   H     0.31298   0.81122   0.45246   0.00000  Uiso   1.00
H730   H     0.32792   0.78038   0.39971   0.00000  Uiso   1.00
H731   H     0.30812   0.82976   0.40168   0.00000  Uiso   1.00
H732   H     0.06481   0.86019   0.06603   0.00000  Uiso   1.00
H733   H     0.30585   0.77412   0.01962   0.00000  Uiso   1.00
H734   H     0.07192   0.92263   0.04468   0.00000  Uiso   1.00
H735   H     0.22941   0.87201   0.38399   0.00000  Uiso   1.00
H736   H     0.00877   0.87186   0.18119   0.00000  Uiso   1.00
H737   H     0.01849   0.79624   0.07364   0.00000  Uiso   1.00
H738   H     0.04040   0.75845   0.02912   0.00000  Uiso   1.00
H739   H     0.01462   0.74227   0.08463   0.00000  Uiso   1.00
H740   H     0.32969   0.79432   0.31832   0.00000  Uiso   1.00
H741   H     0.21750   0.69166   0.14830   0.00000  Uiso   1.00
O742   O     0.16667   0.83333   0.25000   0.00000  Uiso   1.00
O743   O     0.15451   0.79304   0.15459   0.00000  Uiso   1.00
O744   O     0.12940   0.87058   0.34968   0.00000  Uiso   1.00
O745   O     0.20824   0.84425   0.14606   0.00000  Uiso   1.00
O746   O     0.17451   0.82546   0.34968   0.00000  Uiso   1.00
O747   O     0.22740   0.74794   0.07977   0.00000  Uiso   1.00
O748   O     0.31286   0.80574   0.30139   0.00000  Uiso   1.00
O749   O     0.21749   0.67660   0.21058   0.00000  Uiso   1.00
O750   O     0.11313   0.99361   0.29129   0.00000  Uiso   1.00
O751   O     0.24212   0.76613   0.41624   0.00000  Uiso   1.00
O752   O     0.23953   0.73447   0.48892   0.00000  Uiso   1.00
O753   O     0.17930   0.74686   0.28214   0.00000  Uiso   1.00
O754   O     0.16432   0.87419   0.07825   0.00000  Uiso   1.00
O755   O     0.08302   0.89997   0.42268   0.00000  Uiso   1.00
O756   O     0.09469   0.85356   0.05816   0.00000  Uiso   1.00
O757   O     0.06740   0.91416   0.01452   0.00000  Uiso   1.00
O758   O     0.23498   0.84323   0.38599   0.00000  Uiso   1.00
O759   O     0.02372   0.86144   0.20065   0.00000  Uiso   1.00
O760   O     0.14632   0.92751   0.27014   0.00000  Uiso   1.00
O761   O     0.07412   0.79958   0.23413   0.00000  Uiso   1.00
O762   O     0.26693   0.85939   0.21361   0.00000  Uiso   1.00
O763   O     0.07071   0.85544   0.28213   0.00000  Uiso   1.00
O764   O     0.25491   0.81892   0.27014   0.00000  Uiso   1.00
O765   O     0.13760   0.73610   0.23413   0.00000  Uiso   1.00
O766   O     0.20345   0.92286   0.21361   0.00000  Uiso   1.00
Zn767  Zn    0.19338   0.80661   0.28734   0.00000  Uiso   1.00
Zn768  Zn    0.13379   0.79124   0.21876   0.00000  Uiso   1.00
Zn769  Zn    0.21056   0.86442   0.20657   0.00000  Uiso   1.00
Zn770  Zn    0.12893   0.87106   0.28734   0.00000  Uiso   1.00
C771   C     0.38630   0.82666   0.25997   0.00000  Uiso   1.00
C772   C     0.50958   0.83568   0.05875   0.00000  Uiso   1.00
C773   C     0.54597   0.77483   0.05763   0.00000  Uiso   1.00
C774   C     0.61418   0.84036   0.23988   0.00000  Uiso   1.00
C775   C     0.47555   0.86163   0.42055   0.00000  Uiso   1.00
C776   C     0.66043   0.84212   0.23534   0.00000  Uiso   1.00
C777   C     0.34087   0.82443   0.26515   0.00000  Uiso   1.00
C778   C     0.51377   0.98961   0.23715   0.00000  Uiso   1.00
C779   C     0.48378   0.67873   0.26389   0.00000  Uiso   1.00
C780   C     0.48924   0.72288   0.26026   0.00000  Uiso   1.00
C781   C     0.50976   0.94464   0.24019   0.00000  Uiso   1.00
C782   C     0.43010   0.88734   0.49200   0.00000  Uiso   1.00
C783   C     0.51849   0.81514   0.12946   0.00000  Uiso   1.00
C784   C     0.48271   0.85245   0.37103   0.00000  Uiso   1.00
C785   C     0.55048   0.76696   0.01149   0.00000  Uiso   1.00
C786   C     0.52536   0.80890   0.08116   0.00000  Uiso   1.00
C787   C     0.44032   0.88283   0.44507   0.00000  Uiso   1.00
C788   C     0.60064   0.76530   0.08748   0.00000  Uiso   1.00
C789   C     0.63786   0.75486   0.04723   0.00000  Uiso   1.00
C790   C     0.34716   0.76354   0.05951   0.00000  Uiso   1.00
C791   C     0.55509   0.99784   0.16448   0.00000  Uiso   1.00
C792   C     0.60016   0.98569   0.14320   0.00000  Uiso   1.00
C793   C     0.44868   0.86342   0.01487   0.00000  Uiso   1.00
C794   C     0.60620   0.97003   0.09400   0.00000  Uiso   1.00
C795   C     0.56359   0.74816   0.37693   0.00000  Uiso   1.00
C796   C     0.51803   0.72406   0.38652   0.00000  Uiso   1.00
C797   C     0.51761   0.68032   0.36256   0.00000  Uiso   1.00
C798   C     0.54423   0.69806   0.48471   0.00000  Uiso   1.00
C799   C     0.55252   0.99719   0.00986   0.00000  Uiso   1.00
C800   C     0.52700   0.95563   0.00039   0.00000  Uiso   1.00
C801   C     0.37422   0.87869   0.43034   0.00000  Uiso   1.00
C802   C     0.37316   0.83430   0.40715   0.00000  Uiso   1.00
C803   C     0.66095   0.81264   0.41592   0.00000  Uiso   1.00
C804   C     0.48639   0.84539   0.49157   0.00000  Uiso   1.00
C805   C     0.50058   0.84570   0.44434   0.00000  Uiso   1.00
C806   C     0.50952   0.82487   0.01361   0.00000  Uiso   1.00
C807   C     0.53530   0.79414   0.48856   0.00000  Uiso   1.00
C808   C     0.54785   0.79393   0.44143   0.00000  Uiso   1.00
C809   C     0.53817   0.82702   0.42232   0.00000  Uiso   1.00
H810   H     0.60381   0.75138   0.11715   0.00000  Uiso   1.00
H811   H     0.53090   0.97187   0.15738   0.00000  Uiso   1.00
H812   H     0.62408   0.67985   0.14589   0.00000  Uiso   1.00
H813   H     0.60610   0.96078   0.16148   0.00000  Uiso   1.00
H814   H     0.58264   0.94246   0.09039   0.00000  Uiso   1.00
H815   H     0.63895   0.96095   0.07992   0.00000  Uiso   1.00
H816   H     0.60217   0.99505   0.07485   0.00000  Uiso   1.00
H817   H     0.42895   0.68249   0.30767   0.00000  Uiso   1.00
H818   H     0.58752   0.72661   0.35969   0.00000  Uiso   1.00
H819   H     0.56705   0.77162   0.35266   0.00000  Uiso   1.00
H820   H     0.50402   0.72126   0.42291   0.00000  Uiso   1.00
H821   H     0.60300   0.79964   0.09598   0.00000  Uiso   1.00
H822   H     0.49678   0.74164   0.37515   0.00000  Uiso   1.00
H823   H     0.53546   0.99421   0.37631   0.00000  Uiso   1.00
H824   H     0.48412   0.99867   0.36752   0.00000  Uiso   1.00
H825   H     0.53268   0.68185   0.32615   0.00000  Uiso   1.00
H826   H     0.55107   0.68703   0.44867   0.00000  Uiso   1.00
H827   H     0.50959   0.70268   0.49630   0.00000  Uiso   1.00
H828   H     0.58716   0.99339   0.49936   0.00000  Uiso   1.00
H829   H     0.54317   0.67278   0.04644   0.00000  Uiso   1.00
H830   H     0.49217   0.95828   0.01211   0.00000  Uiso   1.00
H831   H     0.53444   0.93143   0.01845   0.00000  Uiso   1.00
H832   H     0.63296   0.72153   0.03509   0.00000  Uiso   1.00
H833   H     0.53551   0.94577   0.46395   0.00000  Uiso   1.00
H834   H     0.50103   0.87948   0.10902   0.00000  Uiso   1.00
H835   H     0.35530   0.89668   0.41623   0.00000  Uiso   1.00
H836   H     0.35770   0.87785   0.46658   0.00000  Uiso   1.00
H837   H     0.38651   0.83548   0.37043   0.00000  Uiso   1.00
H838   H     0.39239   0.81544   0.41983   0.00000  Uiso   1.00
H839   H     0.64631   0.81122   0.45246   0.00000  Uiso   1.00
H840   H     0.66125   0.78038   0.39971   0.00000  Uiso   1.00
H841   H     0.64145   0.82976   0.40168   0.00000  Uiso   1.00
H842   H     0.39814   0.86019   0.06603   0.00000  Uiso   1.00
H843   H     0.63918   0.77412   0.01962   0.00000  Uiso   1.00
H844   H     0.40526   0.92263   0.04468   0.00000  Uiso   1.00
H845   H     0.56274   0.87201   0.38399   0.00000  Uiso   1.00
H846   H     0.34211   0.87186   0.18119   0.00000  Uiso   1.00
H847   H     0.35183   0.79624   0.07364   0.00000  Uiso   1.00
H848   H     0.37374   0.75845   0.02912   0.00000  Uiso   1.00
H849   H     0.34795   0.74227   0.08463   0.00000  Uiso   1.00
H850   H     0.66303   0.79432   0.31832   0.00000  Uiso   1.00
H851   H     0.55083   0.69166   0.14830   0.00000  Uiso   1.00
O852   O     0.50000   0.83333   0.25000   0.00000  Uiso   1.00
O853   O     0.48784   0.79304   0.15459   0.00000  Uiso   1.00
O854   O     0.46274   0.87058   0.34968   0.00000  Uiso   1.00
O855   O     0.54157   0.84425   0.14606   0.00000  Uiso   1.00
O856   O     0.50785   0.82546   0.34968   0.00000  Uiso   1.00
O857   O     0.56073   0.74794   0.07977   0.00000  Uiso   1.00
O858   O     0.64620   0.80574   0.30139   0.00000  Uiso   1.00
O859   O     0.55082   0.67660   0.21058   0.00000  Uiso   1.00
O860   O     0.44647   0.99361   0.29129   0.00000  Uiso   1.00
O861   O     0.57545   0.76613   0.41624   0.00000  Uiso   1.00
O862   O     0.57286   0.73447   0.48892   0.00000  Uiso   1.00
O863   O     0.51264   0.74686   0.28214   0.00000  Uiso   1.00
O864   O     0.49765   0.87419   0.07825   0.00000  Uiso   1.00
O865   O     0.41635   0.89997   0.42268   0.00000  Uiso   1.00
O866   O     0.42802   0.85356   0.05816   0.00000  Uiso   1.00
O867   O     0.40073   0.91416   0.01452   0.00000  Uiso   1.00
O868   O     0.56831   0.84323   0.38599   0.00000  Uiso   1.00
O869   O     0.35705   0.86144   0.20065   0.00000  Uiso   1.00
O870   O     0.47965   0.92751   0.27014   0.00000  Uiso   1.00
O871   O     0.40745   0.79958   0.23413   0.00000  Uiso   1.00
O872   O     0.60026   0.85939   0.21361   0.00000  Uiso   1.00
O873   O     0.40405   0.85544   0.28213   0.00000  Uiso   1.00
O874   O     0.58824   0.81892   0.27014   0.00000  Uiso   1.00
O875   O     0.47093   0.73610   0.23413   0.00000  Uiso   1.00
O876   O     0.53678   0.92286   0.21361   0.00000  Uiso   1.00
Zn877  Zn    0.52672   0.80661   0.28734   0.00000  Uiso   1.00
Zn878  Zn    0.46713   0.79124   0.21876   0.00000  Uiso   1.00
Zn879  Zn    0.54389   0.86442   0.20657   0.00000  Uiso   1.00
Zn880  Zn    0.46226   0.87106   0.28734   0.00000  Uiso   1.00
C881   C     0.71964   0.82666   0.25997   0.00000  Uiso   1.00
C882   C     0.84291   0.83568   0.05875   0.00000  Uiso   1.00
C883   C     0.87931   0.77483   0.05763   0.00000  Uiso   1.00
C884   C     0.94751   0.84036   0.23988   0.00000  Uiso   1.00
C885   C     0.80889   0.86163   0.42055   0.00000  Uiso   1.00
C886   C     0.99376   0.84212   0.23534   0.00000  Uiso   1.00
C887   C     0.67420   0.82443   0.26515   0.00000  Uiso   1.00
C888   C     0.84710   0.98961   0.23715   0.00000  Uiso   1.00
C889   C     0.81712   0.67873   0.26389   0.00000  Uiso   1.00
C890   C     0.82257   0.72288   0.26026   0.00000  Uiso   1.00
C891   C     0.84309   0.94464   0.24019   0.00000  Uiso   1.00
C892   C     0.76343   0.88734   0.49200   0.00000  Uiso   1.00
C893   C     0.85182   0.81514   0.12946   0.00000  Uiso   1.00
C894   C     0.81605   0.85245   0.37103   0.00000  Uiso   1.00
C895   C     0.88381   0.76696   0.01149   0.00000  Uiso   1.00
C896   C     0.85869   0.80890   0.08116   0.00000  Uiso   1.00
C897   C     0.77365   0.88283   0.44507   0.00000  Uiso   1.00
C898   C     0.93398   0.76530   0.08748   0.00000  Uiso   1.00
C899   C     0.97119   0.75486   0.04723   0.00000  Uiso   1.00
C900   C     0.68049   0.76354   0.05951   0.00000  Uiso   1.00
C901   C     0.88842   0.99784   0.16448   0.00000  Uiso   1.00
C902   C     0.93349   0.98569   0.14320   0.00000  Uiso   1.00
C903   C     0.78201   0.86342   0.01487   0.00000  Uiso   1.00
C904   C     0.93953   0.97003   0.09400   0.00000  Uiso   1.00
C905   C     0.89692   0.74816   0.37693   0.00000  Uiso   1.00
C906   C     0.85137   0.72406   0.38652   0.00000  Uiso   1.00
C907   C     0.85094   0.68032   0.36256   0.00000  Uiso   1.00
C908   C     0.87756   0.69806   0.48471   0.00000  Uiso   1.00
C909   C     0.88586   0.99719   0.00986   0.00000  Uiso   1.00
C910   C     0.86033   0.95563   0.00039   0.00000  Uiso   1.00
C911   C     0.70756   0.87869   0.43034   0.00000  Uiso   1.00
C912   C     0.70649   0.83430   0.40715   0.00000  Uiso   1.00
C913   C     0.99429   0.81264   0.41592   0.00000  Uiso   1.00
C914   C     0.81972   0.84539   0.49157   0.00000  Uiso   1.00
C915   C     0.83392   0.84570   0.44434   0.00000  Uiso   1.00
C916   C     0.84285   0.82487   0.01361   0.00000  Uiso   1.00
C917   C     0.86863   0.79414   0.48856   0.00000  Uiso   1.00
C918   C     0.88118   0.79393   0.44143   0.00000  Uiso   1.00
C919   C     0.87150   0.82702   0.42232   0.00000  Uiso   1.00
H920   H     0.93714   0.75138   0.11715   0.00000  Uiso   1.00
H921   H     0.86424   0.97187   0.15738   0.00000  Uiso   1.00
H922   H     0.95741   0.67985   0.14589   0.00000  Uiso   1.00
H923   H     0.93943   0.96078   0.16148   0.00000  Uiso   1.00
H924   H     0.91598   0.94246   0.09039   0.00000  Uiso   1.00
H925   H     0.97229   0.96095   0.07992   0.00000  Uiso   1.00
H926   H     0.93550   0.99505   0.07485   0.00000  Uiso   1.00
H927   H     0.76228   0.68249   0.30767   0.00000  Uiso   1.00
H928   H     0.92086   0.72661   0.35969   0.00000  Uiso   1.00
H929   H     0.90038   0.77162   0.35266   0.00000  Uiso   1.00
H930   H     0.83735   0.72126   0.42291   0.00000  Uiso   1.00
H931   H     0.93633   0.79964   0.09598   0.00000  Uiso   1.00
H932   H     0.83011   0.74164   0.37515   0.00000  Uiso   1.00
H933   H     0.86880   0.99421   0.37631   0.00000  Uiso   1.00
H934   H     0.81746   0.99867   0.36752   0.00000  Uiso   1.00
H935   H     0.86602   0.68185   0.32615   0.00000  Uiso   1.00
H936   H     0.88440   0.68703   0.44867   0.00000  Uiso   1.00
H937   H     0.84292   0.70268   0.49630   0.00000  Uiso   1.00
H938   H     0.92049   0.99339   0.49936   0.00000  Uiso   1.00
H939   H     0.87651   0.67278   0.04644   0.00000  Uiso   1.00
H940   H     0.82551   0.95828   0.01211   0.00000  Uiso   1.00
H941   H     0.86778   0.93143   0.01845   0.00000  Uiso   1.00
H942   H     0.96630   0.72153   0.03509   0.00000  Uiso   1.00
H943   H     0.86884   0.94577   0.46395   0.00000  Uiso   1.00
H944   H     0.83437   0.87948   0.10902   0.00000  Uiso   1.00
H945   H     0.68863   0.89668   0.41623   0.00000  Uiso   1.00
H946   H     0.69103   0.87785   0.46658   0.00000  Uiso   1.00
H947   H     0.71984   0.83548   0.37043   0.00000  Uiso   1.00
H948   H     0.72572   0.81544   0.41983   0.00000  Uiso   1.00
H949   H     0.97964   0.81122   0.45246   0.00000  Uiso   1.00
H950   H     0.99459   0.78038   0.39971   0.00000  Uiso   1.00
H951   H     0.97478   0.82976   0.40168   0.00000  Uiso   1.00
H952   H     0.73148   0.86019   0.06603   0.00000  Uiso   1.00
H953   H     0.97251   0.77412   0.01962   0.00000  Uiso   1.00
H954   H     0.73859   0.92263   0.04468   0.00000  Uiso   1.00
H955   H     0.89607   0.87201   0.38399   0.00000  Uiso   1.00
H956   H     0.67544   0.87186   0.18119   0.00000  Uiso   1.00
H957   H     0.68516   0.79624   0.07364   0.00000  Uiso   1.00
H958   H     0.70707   0.75845   0.02912   0.00000  Uiso   1.00
H959   H     0.68129   0.74227   0.08463   0.00000  Uiso   1.00
H960   H     0.99636   0.79432   0.31832   0.00000  Uiso   1.00
H961   H     0.88416   0.69166   0.14830   0.00000  Uiso   1.00
O962   O     0.83333   0.83333   0.25000   0.00000  Uiso   1.00
O963   O     0.82118   0.79304   0.15459   0.00000  Uiso   1.00
O964   O     0.79607   0.87058   0.34968   0.00000  Uiso   1.00
O965   O     0.87491   0.84425   0.14606   0.00000  Uiso   1.00
O966   O     0.84118   0.82546   0.34968   0.00000  Uiso   1.00
O967   O     0.89406   0.74794   0.07977   0.00000  Uiso   1.00
O968   O     0.97953   0.80574   0.30139   0.00000  Uiso   1.00
O969   O     0.88415   0.67660   0.21058   0.00000  Uiso   1.00
O970   O     0.77980   0.99361   0.29129   0.00000  Uiso   1.00
O971   O     0.90879   0.76613   0.41624   0.00000  Uiso   1.00
O972   O     0.90619   0.73447   0.48892   0.00000  Uiso   1.00
O973   O     0.84597   0.74686   0.28214   0.00000  Uiso   1.00
O974   O     0.83098   0.87419   0.07825   0.00000  Uiso   1.00
O975   O     0.74969   0.89997   0.42268   0.00000  Uiso   1.00
O976   O     0.76135   0.85356   0.05816   0.00000  Uiso   1.00
O977   O     0.73407   0.91416   0.01452   0.00000  Uiso   1.00
O978   O     0.90165   0.84323   0.38599   0.00000  Uiso   1.00
O979   O     0.69039   0.86144   0.20065   0.00000  Uiso   1.00
O980   O     0.81298   0.92751   0.27014   0.00000  Uiso   1.00
O981   O     0.74078   0.79958   0.23413   0.00000  Uiso   1.00
O982   O     0.93360   0.85939   0.21361   0.00000  Uiso   1.00
O983   O     0.73738   0.85544   0.28213   0.00000  Uiso   1.00
O984   O     0.92158   0.81892   0.27014   0.00000  Uiso   1.00
O985   O     0.80426   0.73610   0.23413   0.00000  Uiso   1.00
O986   O     0.87012   0.92286   0.21361   0.00000  Uiso   1.00
Zn987  Zn    0.86005   0.80661   0.28734   0.00000  Uiso   1.00
Zn988  Zn    0.80046   0.79124   0.21876   0.00000  Uiso   1.00
Zn989  Zn    0.87723   0.86442   0.20657   0.00000  Uiso   1.00
Zn990  Zn    0.79560   0.87106   0.28734   0.00000  Uiso   1.00
C991   C     0.05297   0.15999   0.75997   0.00000  Uiso   1.00
C992   C     0.17625   0.16902   0.55875   0.00000  Uiso   1.00
C993   C     0.21264   0.10817   0.55763   0.00000  Uiso   1.00
C994   C     0.28084   0.17369   0.73988   0.00000  Uiso   1.00
C995   C     0.14222   0.19497   0.92055   0.00000  Uiso   1.00
C996   C     0.32709   0.17545   0.73534   0.00000  Uiso   1.00
C997   C     0.00754   0.15776   0.76515   0.00000  Uiso   1.00
C998   C     0.18043   0.32294   0.73715   0.00000  Uiso   1.00
C999   C     0.15045   0.01207   0.76389   0.00000  Uiso   1.00
C1000  C     0.15590   0.05621   0.76026   0.00000  Uiso   1.00
C1001  C     0.17643   0.27797   0.74019   0.00000  Uiso   1.00
C1002  C     0.09676   0.22067   0.99200   0.00000  Uiso   1.00
C1003  C     0.18515   0.14847   0.62946   0.00000  Uiso   1.00
C1004  C     0.14938   0.18579   0.87103   0.00000  Uiso   1.00
C1005  C     0.21715   0.10029   0.51149   0.00000  Uiso   1.00
C1006  C     0.19202   0.14224   0.58116   0.00000  Uiso   1.00
C1007  C     0.10699   0.21616   0.94507   0.00000  Uiso   1.00
C1008  C     0.26731   0.09864   0.58748   0.00000  Uiso   1.00
C1009  C     0.30452   0.08819   0.54723   0.00000  Uiso   1.00
C1010  C     0.01383   0.09687   0.55951   0.00000  Uiso   1.00
C1011  C     0.22175   0.33117   0.66448   0.00000  Uiso   1.00
C1012  C     0.26682   0.31902   0.64320   0.00000  Uiso   1.00
C1013  C     0.11535   0.19675   0.51487   0.00000  Uiso   1.00
C1014  C     0.27286   0.30336   0.59400   0.00000  Uiso   1.00
C1015  C     0.23025   0.08149   0.87693   0.00000  Uiso   1.00
C1016  C     0.18470   0.05739   0.88652   0.00000  Uiso   1.00
C1017  C     0.18428   0.01365   0.86256   0.00000  Uiso   1.00
C1018  C     0.21090   0.03139   0.98471   0.00000  Uiso   1.00
C1019  C     0.21919   0.33052   0.50986   0.00000  Uiso   1.00
C1020  C     0.19366   0.28897   0.50039   0.00000  Uiso   1.00
C1021  C     0.04089   0.21202   0.93034   0.00000  Uiso   1.00
C1022  C     0.03982   0.16763   0.90715   0.00000  Uiso   1.00
C1023  C     0.32762   0.14597   0.91592   0.00000  Uiso   1.00
C1024  C     0.15305   0.17873   0.99157   0.00000  Uiso   1.00
C1025  C     0.16725   0.17904   0.94434   0.00000  Uiso   1.00
C1026  C     0.17618   0.15821   0.51361   0.00000  Uiso   1.00
C1027  C     0.20196   0.12747   0.98856   0.00000  Uiso   1.00
C1028  C     0.21452   0.12726   0.94143   0.00000  Uiso   1.00
C1029  C     0.20483   0.16035   0.92232   0.00000  Uiso   1.00
H1030  H     0.27047   0.08472   0.61715   0.00000  Uiso   1.00
H1031  H     0.19757   0.30520   0.65738   0.00000  Uiso   1.00
H1032  H     0.29074   0.01319   0.64589   0.00000  Uiso   1.00
H1033  H     0.27276   0.29411   0.66148   0.00000  Uiso   1.00
H1034  H     0.24931   0.27580   0.59039   0.00000  Uiso   1.00
H1035  H     0.30562   0.29428   0.57992   0.00000  Uiso   1.00
H1036  H     0.26883   0.32839   0.57485   0.00000  Uiso   1.00
H1037  H     0.09562   0.01582   0.80767   0.00000  Uiso   1.00
H1038  H     0.25419   0.05994   0.85969   0.00000  Uiso   1.00
H1039  H     0.23371   0.10495   0.85266   0.00000  Uiso   1.00
H1040  H     0.17068   0.05460   0.92291   0.00000  Uiso   1.00
H1041  H     0.26966   0.13298   0.59598   0.00000  Uiso   1.00
H1042  H     0.16344   0.07498   0.87515   0.00000  Uiso   1.00
H1043  H     0.20213   0.32755   0.87631   0.00000  Uiso   1.00
H1044  H     0.15079   0.33200   0.86752   0.00000  Uiso   1.00
H1045  H     0.19935   0.01518   0.82615   0.00000  Uiso   1.00
H1046  H     0.21774   0.02036   0.94867   0.00000  Uiso   1.00
H1047  H     0.17626   0.03602   0.99630   0.00000  Uiso   1.00
H1048  H     0.25383   0.32672   0.99936   0.00000  Uiso   1.00
H1049  H     0.20984   0.00612   0.54644   0.00000  Uiso   1.00
H1050  H     0.15884   0.29161   0.51211   0.00000  Uiso   1.00
H1051  H     0.20111   0.26476   0.51845   0.00000  Uiso   1.00
H1052  H     0.29963   0.05487   0.53509   0.00000  Uiso   1.00
H1053  H     0.20218   0.27911   0.96395   0.00000  Uiso   1.00
H1054  H     0.16770   0.21281   0.60902   0.00000  Uiso   1.00
H1055  H     0.02197   0.23001   0.91623   0.00000  Uiso   1.00
H1056  H     0.02436   0.21118   0.96658   0.00000  Uiso   1.00
H1057  H     0.05317   0.16881   0.87043   0.00000  Uiso   1.00
H1058  H     0.05905   0.14878   0.91983   0.00000  Uiso   1.00
H1059  H     0.31298   0.14455   0.95246   0.00000  Uiso   1.00
H1060  H     0.32792   0.11371   0.89971   0.00000  Uiso   1.00
H1061  H     0.30812   0.16309   0.90168   0.00000  Uiso   1.00
H1062  H     0.06481   0.19352   0.56603   0.00000  Uiso   1.00
H1063  H     0.30585   0.10746   0.51962   0.00000  Uiso   1.00
H1064  H     0.07192   0.25596   0.54468   0.00000  Uiso   1.00
H1065  H     0.22941   0.20534   0.88399   0.00000  Uiso   1.00
H1066  H     0.00877   0.20520   0.68119   0.00000  Uiso   1.00
H1067  H     0.01849   0.12957   0.57364   0.00000  Uiso   1.00
H1068  H     0.04040   0.09178   0.52912   0.00000  Uiso   1.00
H1069  H     0.01462   0.07561   0.58463   0.00000  Uiso   1.00
H1070  H     0.32969   0.12765   0.81832   0.00000  Uiso   1.00
H1071  H     0.21750   0.02500   0.64830   0.00000  Uiso   1.00
O1072  O     0.16667   0.16667   0.75000   0.00000  Uiso   1.00
O1073  O     0.15451   0.12637   0.65459   0.00000  Uiso   1.00
O1074  O     0.12940   0.20391   0.84968   0.00000  Uiso   1.00
O1075  O     0.20824   0.17759   0.64606   0.00000  Uiso   1.00
O1076  O     0.17451   0.15880   0.84968   0.00000  Uiso   1.00
O1077  O     0.22740   0.08127   0.57977   0.00000  Uiso   1.00
O1078  O     0.31286   0.13908   0.80139   0.00000  Uiso   1.00
O1079  O     0.21749   0.00994   0.71058   0.00000  Uiso   1.00
O1080  O     0.11313   0.32694   0.79129   0.00000  Uiso   1.00
O1081  O     0.24212   0.09947   0.91624   0.00000  Uiso   1.00
O1082  O     0.23953   0.06780   0.98892   0.00000  Uiso   1.00
O1083  O     0.17930   0.08019   0.78214   0.00000  Uiso   1.00
O1084  O     0.16432   0.20753   0.57825   0.00000  Uiso   1.00
O1085  O     0.08302   0.23330   0.92268   0.00000  Uiso   1.00
O1086  O     0.09469   0.18689   0.55816   0.00000  Uiso   1.00
O1087  O     0.06740   0.24749   0.51452   0.00000  Uiso   1.00
O1088  O     0.23498   0.17656   0.88599   0.00000  Uiso   1.00
O1089  O     0.02372   0.19477   0.70065   0.00000  Uiso   1.00
O1090  O     0.14632   0.26085   0.77014   0.00000  Uiso   1.00
O1091  O     0.07412   0.13291   0.73413   0.00000  Uiso   1.00
O1092  O     0.26693   0.19272   0.71361   0.00000  Uiso   1.00
O1093  O     0.07071   0.18878   0.78213   0.00000  Uiso   1.00
O1094  O     0.25491   0.15226   0.77014   0.00000  Uiso   1.00
O1095  O     0.13760   0.06944   0.73413   0.00000  Uiso   1.00
O1096  O     0.20345   0.25620   0.71361   0.00000  Uiso   1.00
Zn1097 Zn    0.19338   0.13994   0.78734   0.00000  Uiso   1.00
Zn1098 Zn    0.13379   0.12458   0.71876   0.00000  Uiso   1.00
Zn1099 Zn    0.21056   0.19775   0.70657   0.00000  Uiso   1.00
Zn1100 Zn    0.12893   0.20439   0.78734   0.00000  Uiso   1.00
C1101  C     0.38630   0.15999   0.75997   0.00000  Uiso   1.00
C1102  C     0.50958   0.16902   0.55875   0.00000  Uiso   1.00
C1103  C     0.54597   0.10817   0.55763   0.00000  Uiso   1.00
C1104  C     0.61418   0.17369   0.73988   0.00000  Uiso   1.00
C1105  C     0.47555   0.19497   0.92055   0.00000  Uiso   1.00
C1106  C     0.66043   0.17545   0.73534   0.00000  Uiso   1.00
C1107  C     0.34087   0.15776   0.76515   0.00000  Uiso   1.00
C1108  C     0.51377   0.32294   0.73715   0.00000  Uiso   1.00
C1109  C     0.48378   0.01207   0.76389   0.00000  Uiso   1.00
C1110  C     0.48924   0.05621   0.76026   0.00000  Uiso   1.00
C1111  C     0.50976   0.27797   0.74019   0.00000  Uiso   1.00
C1112  C     0.43010   0.22067   0.99200   0.00000  Uiso   1.00
C1113  C     0.51849   0.14847   0.62946   0.00000  Uiso   1.00
C1114  C     0.48271   0.18579   0.87103   0.00000  Uiso   1.00
C1115  C     0.55048   0.10029   0.51149   0.00000  Uiso   1.00
C1116  C     0.52536   0.14224   0.58116   0.00000  Uiso   1.00
C1117  C     0.44032   0.21616   0.94507   0.00000  Uiso   1.00
C1118  C     0.60064   0.09864   0.58748   0.00000  Uiso   1.00
C1119  C     0.63786   0.08819   0.54723   0.00000  Uiso   1.00
C1120  C     0.34716   0.09687   0.55951   0.00000  Uiso   1.00
C1121  C     0.55509   0.33117   0.66448   0.00000  Uiso   1.00
C1122  C     0.60016   0.31902   0.64320   0.00000  Uiso   1.00
C1123  C     0.44868   0.19675   0.51487   0.00000  Uiso   1.00
C1124  C     0.60620   0.30336   0.59400   0.00000  Uiso   1.00
C1125  C     0.56359   0.08149   0.87693   0.00000  Uiso   1.00
C1126  C     0.51803   0.05739   0.88652   0.00000  Uiso   1.00
C1127  C     0.51761   0.01365   0.86256   0.00000  Uiso   1.00
C1128  C     0.54423   0.03139   0.98471   0.00000  Uiso   1.00
C1129  C     0.55252   0.33052   0.50986   0.00000  Uiso   1.00
C1130  C     0.52700   0.28897   0.50039   0.00000  Uiso   1.00
C1131  C     0.37422   0.21202   0.93034   0.00000  Uiso   1.00
C1132  C     0.37316   0.16763   0.90715   0.00000  Uiso   1.00
C1133  C     0.66095   0.14597   0.91592   0.00000  Uiso   1.00
C1134  C     0.48639   0.17873   0.99157   0.00000  Uiso   1.00
C1135  C     0.50058   0.17904   0.94434   0.00000  Uiso   1.00
C1136  C     0.50952   0.15821   0.51361   0.00000  Uiso   1.00
C1137  C     0.53530   0.12747   0.98856   0.00000  Uiso   1.00
C1138  C     0.54785   0.12726   0.94143   0.00000  Uiso   1.00
C1139  C     0.53817   0.16035   0.92232   0.00000  Uiso   1.00
H1140  H     0.60381   0.08472   0.61715   0.00000  Uiso   1.00
H1141  H     0.53090   0.30520   0.65738   0.00000  Uiso   1.00
H1142  H     0.62408   0.01319   0.64589   0.00000  Uiso   1.00
H1143  H     0.60610   0.29411   0.66148   0.00000  Uiso   1.00
H1144  H     0.58264   0.27580   0.59039   0.00000  Uiso   1.00
H1145  H     0.63895   0.29428   0.57992   0.00000  Uiso   1.00
H1146  H     0.60217   0.32839   0.57485   0.00000  Uiso   1.00
H1147  H     0.42895   0.01582   0.80767   0.00000  Uiso   1.00
H1148  H     0.58752   0.05994   0.85969   0.00000  Uiso   1.00
H1149  H     0.56705   0.10495   0.85266   0.00000  Uiso   1.00
H1150  H     0.50402   0.05460   0.92291   0.00000  Uiso   1.00
H1151  H     0.60300   0.13298   0.59598   0.00000  Uiso   1.00
H1152  H     0.49678   0.07498   0.87515   0.00000  Uiso   1.00
H1153  H     0.53546   0.32755   0.87631   0.00000  Uiso   1.00
H1154  H     0.48412   0.33200   0.86752   0.00000  Uiso   1.00
H1155  H     0.53268   0.01518   0.82615   0.00000  Uiso   1.00
H1156  H     0.55107   0.02036   0.94867   0.00000  Uiso   1.00
H1157  H     0.50959   0.03602   0.99630   0.00000  Uiso   1.00
H1158  H     0.58716   0.32672   0.99936   0.00000  Uiso   1.00
H1159  H     0.54317   0.00612   0.54644   0.00000  Uiso   1.00
H1160  H     0.49217   0.29161   0.51211   0.00000  Uiso   1.00
H1161  H     0.53444   0.26476   0.51845   0.00000  Uiso   1.00
H1162  H     0.63296   0.05487   0.53509   0.00000  Uiso   1.00
H1163  H     0.53551   0.27911   0.96395   0.00000  Uiso   1.00
H1164  H     0.50103   0.21281   0.60902   0.00000  Uiso   1.00
H1165  H     0.35530   0.23001   0.91623   0.00000  Uiso   1.00
H1166  H     0.35770   0.21118   0.96658   0.00000  Uiso   1.00
H1167  H     0.38651   0.16881   0.87043   0.00000  Uiso   1.00
H1168  H     0.39239   0.14878   0.91983   0.00000  Uiso   1.00
H1169  H     0.64631   0.14455   0.95246   0.00000  Uiso   1.00
H1170  H     0.66125   0.11371   0.89971   0.00000  Uiso   1.00
H1171  H     0.64145   0.16309   0.90168   0.00000  Uiso   1.00
H1172  H     0.39814   0.19352   0.56603   0.00000  Uiso   1.00
H1173  H     0.63918   0.10746   0.51962   0.00000  Uiso   1.00
H1174  H     0.40526   0.25596   0.54468   0.00000  Uiso   1.00
H1175  H     0.56274   0.20534   0.88399   0.00000  Uiso   1.00
H1176  H     0.34211   0.20520   0.68119   0.00000  Uiso   1.00
H1177  H     0.35183   0.12957   0.57364   0.00000  Uiso   1.00
H1178  H     0.37374   0.09178   0.52912   0.00000  Uiso   1.00
H1179  H     0.34795   0.07561   0.58463   0.00000  Uiso   1.00
H1180  H     0.66303   0.12765   0.81832   0.00000  Uiso   1.00
H1181  H     0.55083   0.02500   0.64830   0.00000  Uiso   1.00
O1182  O     0.50000   0.16667   0.75000   0.00000  Uiso   1.00
O1183  O     0.48784   0.12637   0.65459   0.00000  Uiso   1.00
O1184  O     0.46274   0.20391   0.84968   0.00000  Uiso   1.00
O1185  O     0.54157   0.17759   0.64606   0.00000  Uiso   1.00
O1186  O     0.50785   0.15880   0.84968   0.00000  Uiso   1.00
O1187  O     0.56073   0.08127   0.57977   0.00000  Uiso   1.00
O1188  O     0.64620   0.13908   0.80139   0.00000  Uiso   1.00
O1189  O     0.55082   0.00994   0.71058   0.00000  Uiso   1.00
O1190  O     0.44647   0.32694   0.79129   0.00000  Uiso   1.00
O1191  O     0.57545   0.09947   0.91624   0.00000  Uiso   1.00
O1192  O     0.57286   0.06780   0.98892   0.00000  Uiso   1.00
O1193  O     0.51264   0.08019   0.78214   0.00000  Uiso   1.00
O1194  O     0.49765   0.20753   0.57825   0.00000  Uiso   1.00
O1195  O     0.41635   0.23330   0.92268   0.00000  Uiso   1.00
O1196  O     0.42802   0.18689   0.55816   0.00000  Uiso   1.00
O1197  O     0.40073   0.24749   0.51452   0.00000  Uiso   1.00
O1198  O     0.56831   0.17656   0.88599   0.00000  Uiso   1.00
O1199  O     0.35705   0.19477   0.70065   0.00000  Uiso   1.00
O1200  O     0.47965   0.26085   0.77014   0.00000  Uiso   1.00
O1201  O     0.40745   0.13291   0.73413   0.00000  Uiso   1.00
O1202  O     0.60026   0.19272   0.71361   0.00000  Uiso   1.00
O1203  O     0.40405   0.18878   0.78213   0.00000  Uiso   1.00
O1204  O     0.58824   0.15226   0.77014   0.00000  Uiso   1.00
O1205  O     0.47093   0.06944   0.73413   0.00000  Uiso   1.00
O1206  O     0.53678   0.25620   0.71361   0.00000  Uiso   1.00
Zn1207 Zn    0.52672   0.13994   0.78734   0.00000  Uiso   1.00
Zn1208 Zn    0.46713   0.12458   0.71876   0.00000  Uiso   1.00
Zn1209 Zn    0.54389   0.19775   0.70657   0.00000  Uiso   1.00
Zn1210 Zn    0.46226   0.20439   0.78734   0.00000  Uiso   1.00
C1211  C     0.71964   0.15999   0.75997   0.00000  Uiso   1.00
C1212  C     0.84291   0.16902   0.55875   0.00000  Uiso   1.00
C1213  C     0.87931   0.10817   0.55763   0.00000  Uiso   1.00
C1214  C     0.94751   0.17369   0.73988   0.00000  Uiso   1.00
C1215  C     0.80889   0.19497   0.92055   0.00000  Uiso   1.00
C1216  C     0.99376   0.17545   0.73534   0.00000  Uiso   1.00
C1217  C     0.67420   0.15776   0.76515   0.00000  Uiso   1.00
C1218  C     0.84710   0.32294   0.73715   0.00000  Uiso   1.00
C1219  C     0.81712   0.01207   0.76389   0.00000  Uiso   1.00
C1220  C     0.82257   0.05621   0.76026   0.00000  Uiso   1.00
C1221  C     0.84309   0.27797   0.74019   0.00000  Uiso   1.00
C1222  C     0.76343   0.22067   0.99200   0.00000  Uiso   1.00
C1223  C     0.85182   0.14847   0.62946   0.00000  Uiso   1.00
C1224  C     0.81605   0.18579   0.87103   0.00000  Uiso   1.00
C1225  C     0.88381   0.10029   0.51149   0.00000  Uiso   1.00
C1226  C     0.85869   0.14224   0.58116   0.00000  Uiso   1.00
C1227  C     0.77365   0.21616   0.94507   0.00000  Uiso   1.00
C1228  C     0.93398   0.09864   0.58748   0.00000  Uiso   1.00
C1229  C     0.97119   0.08819   0.54723   0.00000  Uiso   1.00
C1230  C     0.68049   0.09687   0.55951   0.00000  Uiso   1.00
C1231  C     0.88842   0.33117   0.66448   0.00000  Uiso   1.00
C1232  C     0.93349   0.31902   0.64320   0.00000  Uiso   1.00
C1233  C     0.78201   0.19675   0.51487   0.00000  Uiso   1.00
C1234  C     0.93953   0.30336   0.59400   0.00000  Uiso   1.00
C1235  C     0.89692   0.08149   0.87693   0.00000  Uiso   1.00
C1236  C     0.85137   0.05739   0.88652   0.00000  Uiso   1.00
C1237  C     0.85094   0.01365   0.86256   0.00000  Uiso   1.00
C1238  C     0.87756   0.03139   0.98471   0.00000  Uiso   1.00
C1239  C     0.88586   0.33052   0.50986   0.00000  Uiso   1.00
C1240  C     0.86033   0.28897   0.50039   0.00000  Uiso   1.00
C1241  C     0.70756   0.21202   0.93034   0.00000  Uiso   1.00
C1242  C     0.70649   0.16763   0.90715   0.00000  Uiso   1.00
C1243  C     0.99429   0.14597   0.91592   0.00000  Uiso   1.00
C1244  C     0.81972   0.17873   0.99157   0.00000  Uiso   1.00
C1245  C     0.83392   0.17904   0.94434   0.00000  Uiso   1.00
C1246  C     0.84285   0.15821   0.51361   0.00000  Uiso   1.00
C1247  C     0.86863   0.12747   0.98856   0.00000  Uiso   1.00
C1248  C     0.88118   0.12726   0.94143   0.00000  Uiso   1.00
C1249  C     0.87150   0.16035   0.92232   0.00000  Uiso   1.00
H1250  H     0.93714   0.08472   0.61715   0.00000  Uiso   1.00
H1251  H     0.86424   0.30520   0.65738   0.00000  Uiso   1.00
H1252  H     0.95741   0.01319   0.64589   0.00000  Uiso   1.00
H1253  H     0.93943   0.29411   0.66148   0.00000  Uiso   1.00
H1254  H     0.91598   0.27580   0.59039   0.00000  Uiso   1.00
H1255  H     0.97229   0.29428   0.57992   0.00000  Uiso   1.00
H1256  H     0.93550   0.32839   0.57485   0.00000  Uiso   1.00
H1257  H     0.76228   0.01582   0.80767   0.00000  Uiso   1.00
H1258  H     0.92086   0.05994   0.85969   0.00000  Uiso   1.00
H1259  H     0.90038   0.10495   0.85266   0.00000  Uiso   1.00
H1260  H     0.83735   0.05460   0.92291   0.00000  Uiso   1.00
H1261  H     0.93633   0.13298   0.59598   0.00000  Uiso   1.00
H1262  H     0.83011   0.07498   0.87515   0.00000  Uiso   1.00
H1263  H     0.86880   0.32755   0.87631   0.00000  Uiso   1.00
H1264  H     0.81746   0.33200   0.86752   0.00000  Uiso   1.00
H1265  H     0.86602   0.01518   0.82615   0.00000  Uiso   1.00
H1266  H     0.88440   0.02036   0.94867   0.00000  Uiso   1.00
H1267  H     0.84292   0.03602   0.99630   0.00000  Uiso   1.00
H1268  H     0.92049   0.32672   0.99936   0.00000  Uiso   1.00
H1269  H     0.87651   0.00612   0.54644   0.00000  Uiso   1.00
H1270  H     0.82551   0.29161   0.51211   0.00000  Uiso   1.00
H1271  H     0.86778   0.26476   0.51845   0.00000  Uiso   1.00
H1272  H     0.96630   0.05487   0.53509   0.00000  Uiso   1.00
H1273  H     0.86884   0.27911   0.96395   0.00000  Uiso   1.00
H1274  H     0.83437   0.21281   0.60902   0.00000  Uiso   1.00
H1275  H     0.68863   0.23001   0.91623   0.00000  Uiso   1.00
H1276  H     0.69103   0.21118   0.96658   0.00000  Uiso   1.00
H1277  H     0.71984   0.16881   0.87043   0.00000  Uiso   1.00
H1278  H     0.72572   0.14878   0.91983   0.00000  Uiso   1.00
H1279  H     0.97964   0.14455   0.95246   0.00000  Uiso   1.00
H1280  H     0.99459   0.11371   0.89971   0.00000  Uiso   1.00
H1281  H     0.97478   0.16309   0.90168   0.00000  Uiso   1.00
H1282  H     0.73148   0.19352   0.56603   0.00000  Uiso   1.00
H1283  H     0.97251   0.10746   0.51962   0.00000  Uiso   1.00
H1284  H     0.73859   0.25596   0.54468   0.00000  Uiso   1.00
H1285  H     0.89607   0.20534   0.88399   0.00000  Uiso   1.00
H1286  H     0.67544   0.20520   0.68119   0.00000  Uiso   1.00
H1287  H     0.68516   0.12957   0.57364   0.00000  Uiso   1.00
H1288  H     0.70707   0.09178   0.52912   0.00000  Uiso   1.00
H1289  H     0.68129   0.07561   0.58463   0.00000  Uiso   1.00
H1290  H     0.99636   0.12765   0.81832   0.00000  Uiso   1.00
H1291  H     0.88416   0.02500   0.64830   0.00000  Uiso   1.00
O1292  O     0.83333   0.16667   0.75000   0.00000  Uiso   1.00
O1293  O     0.82118   0.12637   0.65459   0.00000  Uiso   1.00
O1294  O     0.79607   0.20391   0.84968   0.00000  Uiso   1.00
O1295  O     0.87491   0.17759   0.64606   0.00000  Uiso   1.00
O1296  O     0.84118   0.15880   0.84968   0.00000  Uiso   1.00
O1297  O     0.89406   0.08127   0.57977   0.00000  Uiso   1.00
O1298  O     0.97953   0.13908   0.80139   0.00000  Uiso   1.00
O1299  O     0.88415   0.00994   0.71058   0.00000  Uiso   1.00
O1300  O     0.77980   0.32694   0.79129   0.00000  Uiso   1.00
O1301  O     0.90879   0.09947   0.91624   0.00000  Uiso   1.00
O1302  O     0.90619   0.06780   0.98892   0.00000  Uiso   1.00
O1303  O     0.84597   0.08019   0.78214   0.00000  Uiso   1.00
O1304  O     0.83098   0.20753   0.57825   0.00000  Uiso   1.00
O1305  O     0.74969   0.23330   0.92268   0.00000  Uiso   1.00
O1306  O     0.76135   0.18689   0.55816   0.00000  Uiso   1.00
O1307  O     0.73407   0.24749   0.51452   0.00000  Uiso   1.00
O1308  O     0.90165   0.17656   0.88599   0.00000  Uiso   1.00
O1309  O     0.69039   0.19477   0.70065   0.00000  Uiso   1.00
O1310  O     0.81298   0.26085   0.77014   0.00000  Uiso   1.00
O1311  O     0.74078   0.13291   0.73413   0.00000  Uiso   1.00
O1312  O     0.93360   0.19272   0.71361   0.00000  Uiso   1.00
O1313  O     0.73738   0.18878   0.78213   0.00000  Uiso   1.00
O1314  O     0.92158   0.15226   0.77014   0.00000  Uiso   1.00
O1315  O     0.80426   0.06944   0.73413   0.00000  Uiso   1.00
O1316  O     0.87012   0.25620   0.71361   0.00000  Uiso   1.00
Zn1317 Zn    0.86005   0.13994   0.78734   0.00000  Uiso   1.00
Zn1318 Zn    0.80046   0.12458   0.71876   0.00000  Uiso   1.00
Zn1319 Zn    0.87723   0.19775   0.70657   0.00000  Uiso   1.00
Zn1320 Zn    0.79560   0.20439   0.78734   0.00000  Uiso   1.00
C1321  C     0.05297   0.49332   0.75997   0.00000  Uiso   1.00
C1322  C     0.17625   0.50235   0.55875   0.00000  Uiso   1.00
C1323  C     0.21264   0.44150   0.55763   0.00000  Uiso   1.00
C1324  C     0.28084   0.50702   0.73988   0.00000  Uiso   1.00
C1325  C     0.14222   0.52830   0.92055   0.00000  Uiso   1.00
C1326  C     0.32709   0.50878   0.73534   0.00000  Uiso   1.00
C1327  C     0.00754   0.49110   0.76515   0.00000  Uiso   1.00
C1328  C     0.18043   0.65627   0.73715   0.00000  Uiso   1.00
C1329  C     0.15045   0.34540   0.76389   0.00000  Uiso   1.00
C1330  C     0.15590   0.38955   0.76026   0.00000  Uiso   1.00
C1331  C     0.17643   0.61130   0.74019   0.00000  Uiso   1.00
C1332  C     0.09676   0.55400   0.99200   0.00000  Uiso   1.00
C1333  C     0.18515   0.48181   0.62946   0.00000  Uiso   1.00
C1334  C     0.14938   0.51912   0.87103   0.00000  Uiso   1.00
C1335  C     0.21715   0.43363   0.51149   0.00000  Uiso   1.00
C1336  C     0.19202   0.47557   0.58116   0.00000  Uiso   1.00
C1337  C     0.10699   0.54950   0.94507   0.00000  Uiso   1.00
C1338  C     0.26731   0.43197   0.58748   0.00000  Uiso   1.00
C1339  C     0.30452   0.42152   0.54723   0.00000  Uiso   1.00
C1340  C     0.01383   0.43020   0.55951   0.00000  Uiso   1.00
C1341  C     0.22175   0.66450   0.66448   0.00000  Uiso   1.00
C1342  C     0.26682   0.65235   0.64320   0.00000  Uiso   1.00
C1343  C     0.11535   0.53008   0.51487   0.00000  Uiso   1.00
C1344  C     0.27286   0.63669   0.59400   0.00000  Uiso   1.00
C1345  C     0.23025   0.41483   0.87693   0.00000  Uiso   1.00
C1346  C     0.18470   0.39072   0.88652   0.00000  Uiso   1.00
C1347  C     0.18428   0.34699   0.86256   0.00000  Uiso   1.00
C1348  C     0.21090   0.36472   0.98471   0.00000  Uiso   1.00
C1349  C     0.21919   0.66385   0.50986   0.00000  Uiso   1.00
C1350  C     0.19366   0.62230   0.50039   0.00000  Uiso   1.00
C1351  C     0.04089   0.54536   0.93034   0.00000  Uiso   1.00
C1352  C     0.03982   0.50096   0.90715   0.00000  Uiso   1.00
C1353  C     0.32762   0.47930   0.91592   0.00000  Uiso   1.00
C1354  C     0.15305   0.51206   0.99157   0.00000  Uiso   1.00
C1355  C     0.16725   0.51237   0.94434   0.00000  Uiso   1.00
C1356  C     0.17618   0.49154   0.51361   0.00000  Uiso   1.00
C1357  C     0.20196   0.46081   0.98856   0.00000  Uiso   1.00
C1358  C     0.21452   0.46059   0.94143   0.00000  Uiso   1.00
C1359  C     0.20483   0.49368   0.92232   0.00000  Uiso   1.00
H1360  H     0.27047   0.41805   0.61715   0.00000  Uiso   1.00
H1361  H     0.19757   0.63853   0.65738   0.00000  Uiso   1.00
H1362  H     0.29074   0.34652   0.64589   0.00000  Uiso   1.00
H1363  H     0.27276   0.62744   0.66148   0.00000  Uiso   1.00
H1364  H     0.24931   0.60913   0.59039   0.00000  Uiso   1.00
H1365  H     0.30562   0.62761   0.57992   0.00000  Uiso   1.00
H1366  H     0.26883   0.66172   0.57485   0.00000  Uiso   1.00
H1367  H     0.09562   0.34916   0.80767   0.00000  Uiso   1.00
H1368  H     0.25419   0.39327   0.85969   0.00000  Uiso   1.00
H1369  H     0.23371   0.43828   0.85266   0.00000  Uiso   1.00
H1370  H     0.17068   0.38793   0.92291   0.00000  Uiso   1.00
H1371  H     0.26966   0.46631   0.59598   0.00000  Uiso   1.00
H1372  H     0.16344   0.40831   0.87515   0.00000  Uiso   1.00
H1373  H     0.20213   0.66088   0.87631   0.00000  Uiso   1.00
H1374  H     0.15079   0.66534   0.86752   0.00000  Uiso   1.00
H1375  H     0.19935   0.34852   0.82615   0.00000  Uiso   1.00
H1376  H     0.21774   0.35370   0.94867   0.00000  Uiso   1.00
H1377  H     0.17626   0.36935   0.99630   0.00000  Uiso   1.00
H1378  H     0.25383   0.66006   0.99936   0.00000  Uiso   1.00
H1379  H     0.20984   0.33945   0.54644   0.00000  Uiso   1.00
H1380  H     0.15884   0.62495   0.51211   0.00000  Uiso   1.00
H1381  H     0.20111   0.59810   0.51845   0.00000  Uiso   1.00
H1382  H     0.29963   0.38820   0.53509   0.00000  Uiso   1.00
H1383  H     0.20218   0.61244   0.96395   0.00000  Uiso   1.00
H1384  H     0.16770   0.54614   0.60902   0.00000  Uiso   1.00
H1385  H     0.02197   0.56334   0.91623   0.00000  Uiso   1.00
H1386  H     0.02436   0.54451   0.96658   0.00000  Uiso   1.00
H1387  H     0.05317   0.50215   0.87043   0.00000  Uiso   1.00
H1388  H     0.05905   0.48211   0.91983   0.00000  Uiso   1.00
H1389  H     0.31298   0.47788   0.95246   0.00000  Uiso   1.00
H1390  H     0.32792   0.44705   0.89971   0.00000  Uiso   1.00
H1391  H     0.30812   0.49643   0.90168   0.00000  Uiso   1.00
H1392  H     0.06481   0.52685   0.56603   0.00000  Uiso   1.00
H1393  H     0.30585   0.44079   0.51962   0.00000  Uiso   1.00
H1394  H     0.07192   0.58930   0.54468   0.00000  Uiso   1.00
H1395  H     0.22941   0.53867   0.88399   0.00000  Uiso   1.00
H1396  H     0.00877   0.53853   0.68119   0.00000  Uiso   1.00
H1397  H     0.01849   0.46291   0.57364   0.00000  Uiso   1.00
H1398  H     0.04040   0.42512   0.52912   0.00000  Uiso   1.00
H1399  H     0.01462   0.40894   0.58463   0.00000  Uiso   1.00
H1400  H     0.32969   0.46099   0.81832   0.00000  Uiso   1.00
H1401  H     0.21750   0.35833   0.64830   0.00000  Uiso   1.00
O1402  O     0.16667   0.50000   0.75000   0.00000  Uiso   1.00
O1403  O     0.15451   0.45970   0.65459   0.00000  Uiso   1.00
O1404  O     0.12940   0.53724   0.84968   0.00000  Uiso   1.00
O1405  O     0.20824   0.51092   0.64606   0.00000  Uiso   1.00
O1406  O     0.17451   0.49213   0.84968   0.00000  Uiso   1.00
O1407  O     0.22740   0.41460   0.57977   0.00000  Uiso   1.00
O1408  O     0.31286   0.47241   0.80139   0.00000  Uiso   1.00
O1409  O     0.21749   0.34327   0.71058   0.00000  Uiso   1.00
O1410  O     0.11313   0.66027   0.79129   0.00000  Uiso   1.00
O1411  O     0.24212   0.43280   0.91624   0.00000  Uiso   1.00
O1412  O     0.23953   0.40114   0.98892   0.00000  Uiso   1.00
O1413  O     0.17930   0.41352   0.78214   0.00000  Uiso   1.00
O1414  O     0.16432   0.54086   0.57825   0.00000  Uiso   1.00
O1415  O     0.08302   0.56664   0.92268   0.00000  Uiso   1.00
O1416  O     0.09469   0.52023   0.55816   0.00000  Uiso   1.00
O1417  O     0.06740   0.58083   0.51452   0.00000  Uiso   1.00
O1418  O     0.23498   0.50989   0.88599   0.00000  Uiso   1.00
O1419  O     0.02372   0.52810   0.70065   0.00000  Uiso   1.00
O1420  O     0.14632   0.59418   0.77014   0.00000  Uiso   1.00
O1421  O     0.07412   0.46625   0.73413   0.00000  Uiso   1.00
O1422  O     0.26693   0.52605   0.71361   0.00000  Uiso   1.00
O1423  O     0.07071   0.52211   0.78213   0.00000  Uiso   1.00
O1424  O     0.25491   0.48559   0.77014   0.00000  Uiso   1.00
O1425  O     0.13760   0.40277   0.73413   0.00000  Uiso   1.00
O1426  O     0.20345   0.58953   0.71361   0.00000  Uiso   1.00
Zn1427 Zn    0.19338   0.47327   0.78734   0.00000  Uiso   1.00
Zn1428 Zn    0.13379   0.45791   0.71876   0.00000  Uiso   1.00
Zn1429 Zn    0.21056   0.53109   0.70657   0.00000  Uiso   1.00
Zn1430 Zn    0.12893   0.53773   0.78734   0.00000  Uiso   1.00
C1431  C     0.38630   0.49332   0.75997   0.00000  Uiso   1.00
C1432  C     0.50958   0.50235   0.55875   0.00000  Uiso   1.00
C1433  C     0.54597   0.44150   0.55763   0.00000  Uiso   1.00
C1434  C     0.61418   0.50702   0.73988   0.00000  Uiso   1.00
C1435  C     0.47555   0.52830   0.92055   0.00000  Uiso   1.00
C1436  C     0.66043   0.50878   0.73534   0.00000  Uiso   1.00
C1437  C     0.34087   0.49110   0.76515   0.00000  Uiso   1.00
C1438  C     0.51377   0.65627   0.73715   0.00000  Uiso   1.00
C1439  C     0.48378   0.34540   0.76389   0.00000  Uiso   1.00
C1440  C     0.48924   0.38955   0.76026   0.00000  Uiso   1.00
C1441  C     0.50976   0.61130   0.74019   0.00000  Uiso   1.00
C1442  C     0.43010   0.55400   0.99200   0.00000  Uiso   1.00
C1443  C     0.51849   0.48181   0.62946   0.00000  Uiso   1.00
C1444  C     0.48271   0.51912   0.87103   0.00000  Uiso   1.00
C1445  C     0.55048   0.43363   0.51149   0.00000  Uiso   1.00
C1446  C     0.52536   0.47557   0.58116   0.00000  Uiso   1.00
C1447  C     0.44032   0.54950   0.94507   0.00000  Uiso   1.00
C1448  C     0.60064   0.43197   0.58748   0.00000  Uiso   1.00
C1449  C     0.63786   0.42152   0.54723   0.00000  Uiso   1.00
C1450  C     0.34716   0.43020   0.55951   0.00000  Uiso   1.00
C1451  C     0.55509   0.66450   0.66448   0.00000  Uiso   1.00
C1452  C     0.60016   0.65235   0.64320   0.00000  Uiso   1.00
C1453  C     0.44868   0.53008   0.51487   0.00000  Uiso   1.00
C1454  C     0.60620   0.63669   0.59400   0.00000  Uiso   1.00
C1455  C     0.56359   0.41483   0.87693   0.00000  Uiso   1.00
C1456  C     0.51803   0.39072   0.88652   0.00000  Uiso   1.00
C1457  C     0.51761   0.34699   0.86256   0.00000  Uiso   1.00
C1458  C     0.54423   0.36472   0.98471   0.00000  Uiso   1.00
C1459  C     0.55252   0.66385   0.50986   0.00000  Uiso   1.00
C1460  C     0.52700   0.62230   0.50039   0.00000  Uiso   1.00
C1461  C     0.37422   0.54536   0.93034   0.00000  Uiso   1.00
C1462  C     0.37316   0.50096   0.90715   0.00000  Uiso   1.00
C1463  C     0.66095   0.47930   0.91592   0.00000  Uiso   1.00
C1464  C     0.48639   0.51206   0.99157   0.00000  Uiso   1.00
C1465  C     0.50058   0.51237   0.94434   0.00000  Uiso   1.00
C1466  C     0.50952   0.49154   0.51361   0.00000  Uiso   1.00
C1467  C     0.53530   0.46081   0.98856   0.00000  Uiso   1.00
C1468  C     0.54785   0.46059   0.94143   0.00000  Uiso   1.00
C1469  C     0.53817   0.49368   0.92232   0.00000  Uiso   1.00
H1470  H     0.60381   0.41805   0.61715   0.00000  Uiso   1.00
H1471  H     0.53090   0.63853   0.65738   0.00000  Uiso   1.00
H1472  H     0.62408   0.34652   0.64589   0.00000  Uiso   1.00
H1473  H     0.60610   0.62744   0.66148   0.00000  Uiso   1.00
H1474  H     0.58264   0.60913   0.59039   0.00000  Uiso   1.00
H1475  H     0.63895   0.62761   0.57992   0.00000  Uiso   1.00
H1476  H     0.60217   0.66172   0.57485   0.00000  Uiso   1.00
H1477  H     0.42895   0.34916   0.80767   0.00000  Uiso   1.00
H1478  H     0.58752   0.39327   0.85969   0.00000  Uiso   1.00
H1479  H     0.56705   0.43828   0.85266   0.00000  Uiso   1.00
H1480  H     0.50402   0.38793   0.92291   0.00000  Uiso   1.00
H1481  H     0.60300   0.46631   0.59598   0.00000  Uiso   1.00
H1482  H     0.49678   0.40831   0.87515   0.00000  Uiso   1.00
H1483  H     0.53546   0.66088   0.87631   0.00000  Uiso   1.00
H1484  H     0.48412   0.66534   0.86752   0.00000  Uiso   1.00
H1485  H     0.53268   0.34852   0.82615   0.00000  Uiso   1.00
H1486  H     0.55107   0.35370   0.94867   0.00000  Uiso   1.00
H1487  H     0.50959   0.36935   0.99630   0.00000  Uiso   1.00
H1488  H     0.58716   0.66006   0.99936   0.00000  Uiso   1.00
H1489  H     0.54317   0.33945   0.54644   0.00000  Uiso   1.00
H1490  H     0.49217   0.62495   0.51211   0.00000  Uiso   1.00
H1491  H     0.53444   0.59810   0.51845   0.00000  Uiso   1.00
H1492  H     0.63296   0.38820   0.53509   0.00000  Uiso   1.00
H1493  H     0.53551   0.61244   0.96395   0.00000  Uiso   1.00
H1494  H     0.50103   0.54614   0.60902   0.00000  Uiso   1.00
H1495  H     0.35530   0.56334   0.91623   0.00000  Uiso   1.00
H1496  H     0.35770   0.54451   0.96658   0.00000  Uiso   1.00
H1497  H     0.38651   0.50215   0.87043   0.00000  Uiso   1.00
H1498  H     0.39239   0.48211   0.91983   0.00000  Uiso   1.00
H1499  H     0.64631   0.47788   0.95246   0.00000  Uiso   1.00
H1500  H     0.66125   0.44705   0.89971   0.00000  Uiso   1.00
H1501  H     0.64145   0.49643   0.90168   0.00000  Uiso   1.00
H1502  H     0.39814   0.52685   0.56603   0.00000  Uiso   1.00
H1503  H     0.63918   0.44079   0.51962   0.00000  Uiso   1.00
H1504  H     0.40526   0.58930   0.54468   0.00000  Uiso   1.00
H1505  H     0.56274   0.53867   0.88399   0.00000  Uiso   1.00
H1506  H     0.34211   0.53853   0.68119   0.00000  Uiso   1.00
H1507  H     0.35183   0.46291   0.57364   0.00000  Uiso   1.00
H1508  H     0.37374   0.42512   0.52912   0.00000  Uiso   1.00
H1509  H     0.34795   0.40894   0.58463   0.00000  Uiso   1.00
H1510  H     0.66303   0.46099   0.81832   0.00000  Uiso   1.00
H1511  H     0.55083   0.35833   0.64830   0.00000  Uiso   1.00
O1512  O     0.50000   0.50000   0.75000   0.00000  Uiso   1.00
O1513  O     0.48784   0.45970   0.65459   0.00000  Uiso   1.00
O1514  O     0.46274   0.53724   0.84968   0.00000  Uiso   1.00
O1515  O     0.54157   0.51092   0.64606   0.00000  Uiso   1.00
O1516  O     0.50785   0.49213   0.84968   0.00000  Uiso   1.00
O1517  O     0.56073   0.41460   0.57977   0.00000  Uiso   1.00
O1518  O     0.64620   0.47241   0.80139   0.00000  Uiso   1.00
O1519  O     0.55082   0.34327   0.71058   0.00000  Uiso   1.00
O1520  O     0.44647   0.66027   0.79129   0.00000  Uiso   1.00
O1521  O     0.57545   0.43280   0.91624   0.00000  Uiso   1.00
O1522  O     0.57286   0.40114   0.98892   0.00000  Uiso   1.00
O1523  O     0.51264   0.41352   0.78214   0.00000  Uiso   1.00
O1524  O     0.49765   0.54086   0.57825   0.00000  Uiso   1.00
O1525  O     0.41635   0.56664   0.92268   0.00000  Uiso   1.00
O1526  O     0.42802   0.52023   0.55816   0.00000  Uiso   1.00
O1527  O     0.40073   0.58083   0.51452   0.00000  Uiso   1.00
O1528  O     0.56831   0.50989   0.88599   0.00000  Uiso   1.00
O1529  O     0.35705   0.52810   0.70065   0.00000  Uiso   1.00
O1530  O     0.47965   0.59418   0.77014   0.00000  Uiso   1.00
O1531  O     0.40745   0.46625   0.73413   0.00000  Uiso   1.00
O1532  O     0.60026   0.52605   0.71361   0.00000  Uiso   1.00
O1533  O     0.40405   0.52211   0.78213   0.00000  Uiso   1.00
O1534  O     0.58824   0.48559   0.77014   0.00000  Uiso   1.00
O1535  O     0.47093   0.40277   0.73413   0.00000  Uiso   1.00
O1536  O     0.53678   0.58953   0.71361   0.00000  Uiso   1.00
Zn1537 Zn    0.52672   0.47327   0.78734   0.00000  Uiso   1.00
Zn1538 Zn    0.46713   0.45791   0.71876   0.00000  Uiso   1.00
Zn1539 Zn    0.54389   0.53109   0.70657   0.00000  Uiso   1.00
Zn1540 Zn    0.46226   0.53773   0.78734   0.00000  Uiso   1.00
C1541  C     0.71964   0.49332   0.75997   0.00000  Uiso   1.00
C1542  C     0.84291   0.50235   0.55875   0.00000  Uiso   1.00
C1543  C     0.87931   0.44150   0.55763   0.00000  Uiso   1.00
C1544  C     0.94751   0.50702   0.73988   0.00000  Uiso   1.00
C1545  C     0.80889   0.52830   0.92055   0.00000  Uiso   1.00
C1546  C     0.99376   0.50878   0.73534   0.00000  Uiso   1.00
C1547  C     0.67420   0.49110   0.76515   0.00000  Uiso   1.00
C1548  C     0.84710   0.65627   0.73715   0.00000  Uiso   1.00
C1549  C     0.81712   0.34540   0.76389   0.00000  Uiso   1.00
C1550  C     0.82257   0.38955   0.76026   0.00000  Uiso   1.00
C1551  C     0.84309   0.61130   0.74019   0.00000  Uiso   1.00
C1552  C     0.76343   0.55400   0.99200   0.00000  Uiso   1.00
C1553  C     0.85182   0.48181   0.62946   0.00000  Uiso   1.00
C1554  C     0.81605   0.51912   0.87103   0.00000  Uiso   1.00
C1555  C     0.88381   0.43363   0.51149   0.00000  Uiso   1.00
C1556  C     0.85869   0.47557   0.58116   0.00000  Uiso   1.00
C1557  C     0.77365   0.54950   0.94507   0.00000  Uiso   1.00
C1558  C     0.93398   0.43197   0.58748   0.00000  Uiso   1.00
C1559  C     0.97119   0.42152   0.54723   0.00000  Uiso   1.00
C1560  C     0.68049   0.43020   0.55951   0.00000  Uiso   1.00
C1561  C     0.88842   0.66450   0.66448   0.00000  Uiso   1.00
C1562  C     0.93349   0.65235   0.64320   0.00000  Uiso   1.00
C1563  C     0.78201   0.53008   0.51487   0.00000  Uiso   1.00
C1564  C     0.93953   0.63669   0.59400   0.00000  Uiso   1.00
C1565  C     0.89692   0.41483   0.87693   0.00000  Uiso   1.00
C1566  C     0.85137   0.39072   0.88652   0.00000  Uiso   1.00
C1567  C     0.85094   0.34699   0.86256   0.00000  Uiso   1.00
C1568  C     0.87756   0.36472   0.98471   0.00000  Uiso   1.00
C1569  C     0.88586   0.66385   0.50986   0.00000  Uiso   1.00
C1570  C     0.86033   0.62230   0.50039   0.00000  Uiso   1.00
C1571  C     0.70756   0.54536   0.93034   0.00000  Uiso   1.00
C1572  C     0.70649   0.50096   0.90715   0.00000  Uiso   1.00
C1573  C     0.99429   0.47930   0.91592   0.00000  Uiso   1.00
C1574  C     0.81972   0.51206   0.99157   0.00000  Uiso   1.00
C1575  C     0.83392   0.51237   0.94434   0.00000  Uiso   1.00
C1576  C     0.84285   0.49154   0.51361   0.00000  Uiso   1.00
C1577  C     0.86863   0.46081   0.98856   0.00000  Uiso   1.00
C1578  C     0.88118   0.46059   0.94143   0.00000  Uiso   1.00
C1579  C     0.87150   0.49368   0.92232   0.00000  Uiso   1.00
H1580  H     0.93714   0.41805   0.61715   0.00000  Uiso   1.00
H1581  H     0.86424   0.63853   0.65738   0.00000  Uiso   1.00
H1582  H     0.95741   0.34652   0.64589   0.00000  Uiso   1.00
H1583  H     0.93943   0.62744   0.66148   0.00000  Uiso   1.00
H1584  H     0.91598   0.60913   0.59039   0.00000  Uiso   1.00
H1585  H     0.97229   0.62761   0.57992   0.00000  Uiso   1.00
H1586  H     0.93550   0.66172   0.57485   0.00000  Uiso   1.00
H1587  H     0.76228   0.34916   0.80767   0.00000  Uiso   1.00
H1588  H     0.92086   0.39327   0.85969   0.00000  Uiso   1.00
H1589  H     0.90038   0.43828   0.85266   0.00000  Uiso   1.00
H1590  H     0.83735   0.38793   0.92291   0.00000  Uiso   1.00
H1591  H     0.93633   0.46631   0.59598   0.00000  Uiso   1.00
H1592  H     0.83011   0.40831   0.87515   0.00000  Uiso   1.00
H1593  H     0.86880   0.66088   0.87631   0.00000  Uiso   1.00
H1594  H     0.81746   0.66534   0.86752   0.00000  Uiso   1.00
H1595  H     0.86602   0.34852   0.82615   0.00000  Uiso   1.00
H1596  H     0.88440   0.35370   0.94867   0.00000  Uiso   1.00
H1597  H     0.84292   0.36935   0.99630   0.00000  Uiso   1.00
H1598  H     0.92049   0.66006   0.99936   0.00000  Uiso   1.00
H1599  H     0.87651   0.33945   0.54644   0.00000  Uiso   1.00
H1600  H     0.82551   0.62495   0.51211   0.00000  Uiso   1.00
H1601  H     0.86778   0.59810   0.51845   0.00000  Uiso   1.00
H1602  H     0.96630   0.38820   0.53509   0.00000  Uiso   1.00
H1603  H     0.86884   0.61244   0.96395   0.00000  Uiso   1.00
H1604  H     0.83437   0.54614   0.60902   0.00000  Uiso   1.00
H1605  H     0.68863   0.56334   0.91623   0.00000  Uiso   1.00
H1606  H     0.69103   0.54451   0.96658   0.00000  Uiso   1.00
H1607  H     0.71984   0.50215   0.87043   0.00000  Uiso   1.00
H1608  H     0.72572   0.48211   0.91983   0.00000  Uiso   1.00
H1609  H     0.97964   0.47788   0.95246   0.00000  Uiso   1.00
H1610  H     0.99459   0.44705   0.89971   0.00000  Uiso   1.00
H1611  H     0.97478   0.49643   0.90168   0.00000  Uiso   1.00
H1612  H     0.73148   0.52685   0.56603   0.00000  Uiso   1.00
H1613  H     0.97251   0.44079   0.51962   0.00000  Uiso   1.00
H1614  H     0.73859   0.58930   0.54468   0.00000  Uiso   1.00
H1615  H     0.89607   0.53867   0.88399   0.00000  Uiso   1.00
H1616  H     0.67544   0.53853   0.68119   0.00000  Uiso   1.00
H1617  H     0.68516   0.46291   0.57364   0.00000  Uiso   1.00
H1618  H     0.70707   0.42512   0.52912   0.00000  Uiso   1.00
H1619  H     0.68129   0.40894   0.58463   0.00000  Uiso   1.00
H1620  H     0.99636   0.46099   0.81832   0.00000  Uiso   1.00
H1621  H     0.88416   0.35833   0.64830   0.00000  Uiso   1.00
O1622  O     0.83333   0.50000   0.75000   0.00000  Uiso   1.00
O1623  O     0.82118   0.45970   0.65459   0.00000  Uiso   1.00
O1624  O     0.79607   0.53724   0.84968   0.00000  Uiso   1.00
O1625  O     0.87491   0.51092   0.64606   0.00000  Uiso   1.00
O1626  O     0.84118   0.49213   0.84968   0.00000  Uiso   1.00
O1627  O     0.89406   0.41460   0.57977   0.00000  Uiso   1.00
O1628  O     0.97953   0.47241   0.80139   0.00000  Uiso   1.00
O1629  O     0.88415   0.34327   0.71058   0.00000  Uiso   1.00
O1630  O     0.77980   0.66027   0.79129   0.00000  Uiso   1.00
O1631  O     0.90879   0.43280   0.91624   0.00000  Uiso   1.00
O1632  O     0.90619   0.40114   0.98892   0.00000  Uiso   1.00
O1633  O     0.84597   0.41352   0.78214   0.00000  Uiso   1.00
O1634  O     0.83098   0.54086   0.57825   0.00000  Uiso   1.00
O1635  O     0.74969   0.56664   0.92268   0.00000  Uiso   1.00
O1636  O     0.76135   0.52023   0.55816   0.00000  Uiso   1.00
O1637  O     0.73407   0.58083   0.51452   0.00000  Uiso   1.00
O1638  O     0.90165   0.50989   0.88599   0.00000  Uiso   1.00
O1639  O     0.69039   0.52810   0.70065   0.00000  Uiso   1.00
O1640  O     0.81298   0.59418   0.77014   0.00000  Uiso   1.00
O1641  O     0.74078   0.46625   0.73413   0.00000  Uiso   1.00
O1642  O     0.93360   0.52605   0.71361   0.00000  Uiso   1.00
O1643  O     0.73738   0.52211   0.78213   0.00000  Uiso   1.00
O1644  O     0.92158   0.48559   0.77014   0.00000  Uiso   1.00
O1645  O     0.80426   0.40277   0.73413   0.00000  Uiso   1.00
O1646  O     0.87012   0.58953   0.71361   0.00000  Uiso   1.00
Zn1647 Zn    0.86005   0.47327   0.78734   0.00000  Uiso   1.00
Zn1648 Zn    0.80046   0.45791   0.71876   0.00000  Uiso   1.00
Zn1649 Zn    0.87723   0.53109   0.70657   0.00000  Uiso   1.00
Zn1650 Zn    0.79560   0.53773   0.78734   0.00000  Uiso   1.00
C1651  C     0.05297   0.82666   0.75997   0.00000  Uiso   1.00
C1652  C     0.17625   0.83568   0.55875   0.00000  Uiso   1.00
C1653  C     0.21264   0.77483   0.55763   0.00000  Uiso   1.00
C1654  C     0.28084   0.84036   0.73988   0.00000  Uiso   1.00
C1655  C     0.14222   0.86163   0.92055   0.00000  Uiso   1.00
C1656  C     0.32709   0.84212   0.73534   0.00000  Uiso   1.00
C1657  C     0.00754   0.82443   0.76515   0.00000  Uiso   1.00
C1658  C     0.18043   0.98961   0.73715   0.00000  Uiso   1.00
C1659  C     0.15045   0.67873   0.76389   0.00000  Uiso   1.00
C1660  C     0.15590   0.72288   0.76026   0.00000  Uiso   1.00
C1661  C     0.17643   0.94464   0.74019   0.00000  Uiso   1.00
C1662  C     0.09676   0.88734   0.99200   0.00000  Uiso   1.00
C1663  C     0.18515   0.81514   0.62946   0.00000  Uiso   1.00
C1664  C     0.14938   0.85245   0.87103   0.00000  Uiso   1.00
C1665  C     0.21715   0.76696   0.51149   0.00000  Uiso   1.00
C1666  C     0.19202   0.80890   0.58116   0.00000  Uiso   1.00
C1667  C     0.10699   0.88283   0.94507   0.00000  Uiso   1.00
C1668  C     0.26731   0.76530   0.58748   0.00000  Uiso   1.00
C1669  C     0.30452   0.75486   0.54723   0.00000  Uiso   1.00
C1670  C     0.01383   0.76354   0.55951   0.00000  Uiso   1.00
C1671  C     0.22175   0.99784   0.66448   0.00000  Uiso   1.00
C1672  C     0.26682   0.98569   0.64320   0.00000  Uiso   1.00
C1673  C     0.11535   0.86342   0.51487   0.00000  Uiso   1.00
C1674  C     0.27286   0.97003   0.59400   0.00000  Uiso   1.00
C1675  C     0.23025   0.74816   0.87693   0.00000  Uiso   1.00
C1676  C     0.18470   0.72406   0.88652   0.00000  Uiso   1.00
C1677  C     0.18428   0.68032   0.86256   0.00000  Uiso   1.00
C1678  C     0.21090   0.69806   0.98471   0.00000  Uiso   1.00
C1679  C     0.21919   0.99719   0.50986   0.00000  Uiso   1.00
C1680  C     0.19366   0.95563   0.50039   0.00000  Uiso   1.00
C1681  C     0.04089   0.87869   0.93034   0.00000  Uiso   1.00
C1682  C     0.03982   0.83430   0.90715   0.00000  Uiso   1.00
C1683  C     0.32762   0.81264   0.91592   0.00000  Uiso   1.00
C1684  C     0.15305   0.84539   0.99157   0.00000  Uiso   1.00
C1685  C     0.16725   0.84570   0.94434   0.00000  Uiso   1.00
C1686  C     0.17618   0.82487   0.51361   0.00000  Uiso   1.00
C1687  C     0.20196   0.79414   0.98856   0.00000  Uiso   1.00
C1688  C     0.21452   0.79393   0.94143   0.00000  Uiso   1.00
C1689  C     0.20483   0.82702   0.92232   0.00000  Uiso   1.00
H1690  H     0.27047   0.75138   0.61715   0.00000  Uiso   1.00
H1691  H     0.19757   0.97187   0.65738   0.00000  Uiso   1.00
H1692  H     0.29074   0.67985   0.64589   0.00000  Uiso   1.00
H1693  H     0.27276   0.96078   0.66148   0.00000  Uiso   1.00
H1694  H     0.24931   0.94246   0.59039   0.00000  Uiso   1.00
H1695  H     0.30562   0.96095   0.57992   0.00000  Uiso   1.00
H1696  H     0.26883   0.99505   0.57485   0.00000  Uiso   1.00
H1697  H     0.09562   0.68249   0.80767   0.00000  Uiso   1.00
H1698  H     0.25419   0.72661   0.85969   0.00000  Uiso   1.00
H1699  H     0.23371   0.77162   0.85266   0.00000  Uiso   1.00
H1700  H     0.17068   0.72126   0.92291   0.00000  Uiso   1.00
H1701  H     0.26966   0.79964   0.59598   0.00000  Uiso   1.00
H1702  H     0.16344   0.74164   0.87515   0.00000  Uiso   1.00
H1703  H     0.20213   0.99421   0.87631   0.00000  Uiso   1.00
H1704  H     0.15079   0.99867   0.86752   0.00000  Uiso   1.00
H1705  H     0.19935   0.68185   0.82615   0.00000  Uiso   1.00
H1706  H     0.21774   0.68703   0.94867   0.00000  Uiso   1.00
H1707  H     0.17626   0.70268   0.99630   0.00000  Uiso   1.00
H1708  H     0.25383   0.99339   0.99936   0.00000  Uiso   1.00
H1709  H     0.20984   0.67278   0.54644   0.00000  Uiso   1.00
H1710  H     0.15884   0.95828   0.51211   0.00000  Uiso   1.00
H1711  H     0.20111   0.93143   0.51845   0.00000  Uiso   1.00
H1712  H     0.29963   0.72153   0.53509   0.00000  Uiso   1.00
H1713  H     0.20218   0.94577   0.96395   0.00000  Uiso   1.00
H1714  H     0.16770   0.87948   0.60902   0.00000  Uiso   1.00
H1715  H     0.02197   0.89668   0.91623   0.00000  Uiso   1.00
H1716  H     0.02436   0.87785   0.96658   0.00000  Uiso   1.00
H1717  H     0.05317   0.83548   0.87043   0.00000  Uiso   1.00
H1718  H     0.05905   0.81544   0.91983   0.00000  Uiso   1.00
H1719  H     0.31298   0.81122   0.95246   0.00000  Uiso   1.00
H1720  H     0.32792   0.78038   0.89971   0.00000  Uiso   1.00
H1721  H     0.30812   0.82976   0.90168   0.00000  Uiso   1.00
H1722  H     0.06481   0.86019   0.56603   0.00000  Uiso   1.00
H1723  H     0.30585   0.77412   0.51962   0.00000  Uiso   1.00
H1724  H     0.07192   0.92263   0.54468   0.00000  Uiso   1.00
H1725  H     0.22941   0.87201   0.88399   0.00000  Uiso   1.00
H1726  H     0.00877   0.87186   0.68119   0.00000  Uiso   1.00
H1727  H     0.01849   0.79624   0.57364   0.00000  Uiso   1.00
H1728  H     0.04040   0.75845   0.52912   0.00000  Uiso   1.00
H1729  H     0.01462   0.74227   0.58463   0.00000  Uiso   1.00
H1730  H     0.32969   0.79432   0.81832   0.00000  Uiso   1.00
H1731  H     0.21750   0.69166   0.64830   0.00000  Uiso   1.00
O1732  O     0.16667   0.83333   0.75000   0.00000  Uiso   1.00
O1733  O     0.15451   0.79304   0.65459   0.00000  Uiso   1.00
O1734  O     0.12940   0.87058   0.84968   0.00000  Uiso   1.00
O1735  O     0.20824   0.84425   0.64606   0.00000  Uiso   1.00
O1736  O     0.17451   0.82546   0.84968   0.00000  Uiso   1.00
O1737  O     0.22740   0.74794   0.57977   0.00000  Uiso   1.00
O1738  O     0.31286   0.80574   0.80139   0.00000  Uiso   1.00
O1739  O     0.21749   0.67660   0.71058   0.00000  Uiso   1.00
O1740  O     0.11313   0.99361   0.79129   0.00000  Uiso   1.00
O1741  O     0.24212   0.76613   0.91624   0.00000  Uiso   1.00
O1742  O     0.23953   0.73447   0.98892   0.00000  Uiso   1.00
O1743  O     0.17930   0.74686   0.78214   0.00000  Uiso   1.00
O1744  O     0.16432   0.87419   0.57825   0.00000  Uiso   1.00
O1745  O     0.08302   0.89997   0.92268   0.00000  Uiso   1.00
O1746  O     0.09469   0.85356   0.55816   0.00000  Uiso   1.00
O1747  O     0.06740   0.91416   0.51452   0.00000  Uiso   1.00
O1748  O     0.23498   0.84323   0.88599   0.00000  Uiso   1.00
O1749  O     0.02372   0.86144   0.70065   0.00000  Uiso   1.00
O1750  O     0.14632   0.92751   0.77014   0.00000  Uiso   1.00
O1751  O     0.07412   0.79958   0.73413   0.00000  Uiso   1.00
O1752  O     0.26693   0.85939   0.71361   0.00000  Uiso   1.00
O1753  O     0.07071   0.85544   0.78213   0.00000  Uiso   1.00
O1754  O     0.25491   0.81892   0.77014   0.00000  Uiso   1.00
O1755  O     0.13760   0.73610   0.73413   0.00000  Uiso   1.00
O1756  O     0.20345   0.92286   0.71361   0.00000  Uiso   1.00
Zn1757 Zn    0.19338   0.80661   0.78734   0.00000  Uiso   1.00
Zn1758 Zn    0.13379   0.79124   0.71876   0.00000  Uiso   1.00
Zn1759 Zn    0.21056   0.86442   0.70657   0.00000  Uiso   1.00
Zn1760 Zn    0.12893   0.87106   0.78734   0.00000  Uiso   1.00
C1761  C     0.38630   0.82666   0.75997   0.00000  Uiso   1.00
C1762  C     0.50958   0.83568   0.55875   0.00000  Uiso   1.00
C1763  C     0.54597   0.77483   0.55763   0.00000  Uiso   1.00
C1764  C     0.61418   0.84036   0.73988   0.00000  Uiso   1.00
C1765  C     0.47555   0.86163   0.92055   0.00000  Uiso   1.00
C1766  C     0.66043   0.84212   0.73534   0.00000  Uiso   1.00
C1767  C     0.34087   0.82443   0.76515   0.00000  Uiso   1.00
C1768  C     0.51377   0.98961   0.73715   0.00000  Uiso   1.00
C1769  C     0.48378   0.67873   0.76389   0.00000  Uiso   1.00
C1770  C     0.48924   0.72288   0.76026   0.00000  Uiso   1.00
C1771  C     0.50976   0.94464   0.74019   0.00000  Uiso   1.00
C1772  C     0.43010   0.88734   0.99200   0.00000  Uiso   1.00
C1773  C     0.51849   0.81514   0.62946   0.00000  Uiso   1.00
C1774  C     0.48271   0.85245   0.87103   0.00000  Uiso   1.00
C1775  C     0.55048   0.76696   0.51149   0.00000  Uiso   1.00
C1776  C     0.52536   0.80890   0.58116   0.00000  Uiso   1.00
C1777  C     0.44032   0.88283   0.94507   0.00000  Uiso   1.00
C1778  C     0.60064   0.76530   0.58748   0.00000  Uiso   1.00
C1779  C     0.63786   0.75486   0.54723   0.00000  Uiso   1.00
C1780  C     0.34716   0.76354   0.55951   0.00000  Uiso   1.00
C1781  C     0.55509   0.99784   0.66448   0.00000  Uiso   1.00
C1782  C     0.60016   0.98569   0.64320   0.00000  Uiso   1.00
C1783  C     0.44868   0.86342   0.51487   0.00000  Uiso   1.00
C1784  C     0.60620   0.97003   0.59400   0.00000  Uiso   1.00
C1785  C     0.56359   0.74816   0.87693   0.00000  Uiso   1.00
C1786  C     0.51803   0.72406   0.88652   0.00000  Uiso   1.00
C1787  C     0.51761   0.68032   0.86256   0.00000  Uiso   1.00
C1788  C     0.54423   0.69806   0.98471   0.00000  Uiso   1.00
C1789  C     0.55252   0.99719   0.50986   0.00000  Uiso   1.00
C1790  C     0.52700   0.95563   0.50039   0.00000  Uiso   1.00
C1791  C     0.37422   0.87869   0.93034   0.00000  Uiso   1.00
C1792  C     0.37316   0.83430   0.90715   0.00000  Uiso   1.00
C1793  C     0.66095   0.81264   0.91592   0.00000  Uiso   1.00
C1794  C     0.48639   0.84539   0.99157   0.00000  Uiso   1.00
C1795  C     0.50058   0.84570   0.94434   0.00000  Uiso   1.00
C1796  C     0.50952   0.82487   0.51361   0.00000  Uiso   1.00
C1797  C     0.53530   0.79414   0.98856   0.00000  Uiso   1.00
C1798  C     0.54785   0.79393   0.94143   0.00000  Uiso   1.00
C1799  C     0.53817   0.82702   0.92232   0.00000  Uiso   1.00
H1800  H     0.60381   0.75138   0.61715   0.00000  Uiso   1.00
H1801  H     0.53090   0.97187   0.65738   0.00000  Uiso   1.00
H1802  H     0.62408   0.67985   0.64589   0.00000  Uiso   1.00
H1803  H     0.60610   0.96078   0.66148   0.00000  Uiso   1.00
H1804  H     0.58264   0.94246   0.59039   0.00000  Uiso   1.00
H1805  H     0.63895   0.96095   0.57992   0.00000  Uiso   1.00
H1806  H     0.60217   0.99505   0.57485   0.00000  Uiso   1.00
H1807  H     0.42895   0.68249   0.80767   0.00000  Uiso   1.00
H1808  H     0.58752   0.72661   0.85969   0.00000  Uiso   1.00
H1809  H     0.56705   0.77162   0.85266   0.00000  Uiso   1.00
H1810  H     0.50402   0.72126   0.92291   0.00000  Uiso   1.00
H1811  H     0.60300   0.79964   0.59598   0.00000  Uiso   1.00
H1812  H     0.49678   0.74164   0.87515   0.00000  Uiso   1.00
H1813  H     0.53546   0.99421   0.87631   0.00000  Uiso   1.00
H1814  H     0.48412   0.99867   0.86752   0.00000  Uiso   1.00
H1815  H     0.53268   0.68185   0.82615   0.00000  Uiso   1.00
H1816  H     0.55107   0.68703   0.94867   0.00000  Uiso   1.00
H1817  H     0.50959   0.70268   0.99630   0.00000  Uiso   1.00
H1818  H     0.58716   0.99339   0.99936   0.00000  Uiso   1.00
H1819  H     0.54317   0.67278   0.54644   0.00000  Uiso   1.00
H1820  H     0.49217   0.95828   0.51211   0.00000  Uiso   1.00
H1821  H     0.53444   0.93143   0.51845   0.00000  Uiso   1.00
H1822  H     0.63296   0.72153   0.53509   0.00000  Uiso   1.00
H1823  H     0.53551   0.94577   0.96395   0.00000  Uiso   1.00
H1824  H     0.50103   0.87948   0.60902   0.00000  Uiso   1.00
H1825  H     0.35530   0.89668   0.91623   0.00000  Uiso   1.00
H1826  H     0.35770   0.87785   0.96658   0.00000  Uiso   1.00
H1827  H     0.38651   0.83548   0.87043   0.00000  Uiso   1.00
H1828  H     0.39239   0.81544   0.91983   0.00000  Uiso   1.00
H1829  H     0.64631   0.81122   0.95246   0.00000  Uiso   1.00
H1830  H     0.66125   0.78038   0.89971   0.00000  Uiso   1.00
H1831  H     0.64145   0.82976   0.90168   0.00000  Uiso   1.00
H1832  H     0.39814   0.86019   0.56603   0.00000  Uiso   1.00
H1833  H     0.63918   0.77412   0.51962   0.00000  Uiso   1.00
H1834  H     0.40526   0.92263   0.54468   0.00000  Uiso   1.00
H1835  H     0.56274   0.87201   0.88399   0.00000  Uiso   1.00
H1836  H     0.34211   0.87186   0.68119   0.00000  Uiso   1.00
H1837  H     0.35183   0.79624   0.57364   0.00000  Uiso   1.00
H1838  H     0.37374   0.75845   0.52912   0.00000  Uiso   1.00
H1839  H     0.34795   0.74227   0.58463   0.00000  Uiso   1.00
H1840  H     0.66303   0.79432   0.81832   0.00000  Uiso   1.00
H1841  H     0.55083   0.69166   0.64830   0.00000  Uiso   1.00
O1842  O     0.50000   0.83333   0.75000   0.00000  Uiso   1.00
O1843  O     0.48784   0.79304   0.65459   0.00000  Uiso   1.00
O1844  O     0.46274   0.87058   0.84968   0.00000  Uiso   1.00
O1845  O     0.54157   0.84425   0.64606   0.00000  Uiso   1.00
O1846  O     0.50785   0.82546   0.84968   0.00000  Uiso   1.00
O1847  O     0.56073   0.74794   0.57977   0.00000  Uiso   1.00
O1848  O     0.64620   0.80574   0.80139   0.00000  Uiso   1.00
O1849  O     0.55082   0.67660   0.71058   0.00000  Uiso   1.00
O1850  O     0.44647   0.99361   0.79129   0.00000  Uiso   1.00
O1851  O     0.57545   0.76613   0.91624   0.00000  Uiso   1.00
O1852  O     0.57286   0.73447   0.98892   0.00000  Uiso   1.00
O1853  O     0.51264   0.74686   0.78214   0.00000  Uiso   1.00
O1854  O     0.49765   0.87419   0.57825   0.00000  Uiso   1.00
O1855  O     0.41635   0.89997   0.92268   0.00000  Uiso   1.00
O1856  O     0.42802   0.85356   0.55816   0.00000  Uiso   1.00
O1857  O     0.40073   0.91416   0.51452   0.00000  Uiso   1.00
O1858  O     0.56831   0.84323   0.88599   0.00000  Uiso   1.00
O1859  O     0.35705   0.86144   0.70065   0.00000  Uiso   1.00
O1860  O     0.47965   0.92751   0.77014   0.00000  Uiso   1.00
O1861  O     0.40745   0.79958   0.73413   0.00000  Uiso   1.00
O1862  O     0.60026   0.85939   0.71361   0.00000  Uiso   1.00
O1863  O     0.40405   0.85544   0.78213   0.00000  Uiso   1.00
O1864  O     0.58824   0.81892   0.77014   0.00000  Uiso   1.00
O1865  O     0.47093   0.73610   0.73413   0.00000  Uiso   1.00
O1866  O     0.53678   0.92286   0.71361   0.00000  Uiso   1.00
Zn1867 Zn    0.52672   0.80661   0.78734   0.00000  Uiso   1.00
Zn1868 Zn    0.46713   0.79124   0.71876   0.00000  Uiso   1.00
Zn1869 Zn    0.54389   0.86442   0.70657   0.00000  Uiso   1.00
Zn1870 Zn    0.46226   0.87106   0.78734   0.00000  Uiso   1.00
C1871  C     0.71964   0.82666   0.75997   0.00000  Uiso   1.00
C1872  C     0.84291   0.83568   0.55875   0.00000  Uiso   1.00
C1873  C     0.87931   0.77483   0.55763   0.00000  Uiso   1.00
C1874  C     0.94751   0.84036   0.73988   0.00000  Uiso   1.00
C1875  C     0.80889   0.86163   0.92055   0.00000  Uiso   1.00
C1876  C     0.99376   0.84212   0.73534   0.00000  Uiso   1.00
C1877  C     0.67420   0.82443   0.76515   0.00000  Uiso   1.00
C1878  C     0.84710   0.98961   0.73715   0.00000  Uiso   1.00
C1879  C     0.81712   0.67873   0.76389   0.00000  Uiso   1.00
C1880  C     0.82257   0.72288   0.76026   0.00000  Uiso   1.00
C1881  C     0.84309   0.94464   0.74019   0.00000  Uiso   1.00
C1882  C     0.76343   0.88734   0.99200   0.00000  Uiso   1.00
C1883  C     0.85182   0.81514   0.62946   0.00000  Uiso   1.00
C1884  C     0.81605   0.85245   0.87103   0.00000  Uiso   1.00
C1885  C     0.88381   0.76696   0.51149   0.00000  Uiso   1.00
C1886  C     0.85869   0.80890   0.58116   0.00000  Uiso   1.00
C1887  C     0.77365   0.88283   0.94507   0.00000  Uiso   1.00
C1888  C     0.93398   0.76530   0.58748   0.00000  Uiso   1.00
C1889  C     0.97119   0.75486   0.54723   0.00000  Uiso   1.00
C1890  C     0.68049   0.76354   0.55951   0.00000  Uiso   1.00
C1891  C     0.88842   0.99784   0.66448   0.00000  Uiso   1.00
C1892  C     0.93349   0.98569   0.64320   0.00000  Uiso   1.00
C1893  C     0.78201   0.86342   0.51487   0.00000  Uiso   1.00
C1894  C     0.93953   0.97003   0.59400   0.00000  Uiso   1.00
C1895  C     0.89692   0.74816   0.87693   0.00000  Uiso   1.00
C1896  C     0.85137   0.72406   0.88652   0.00000  Uiso   1.00
C1897  C     0.85094   0.68032   0.86256   0.00000  Uiso   1.00
C1898  C     0.87756   0.69806   0.98471   0.00000  Uiso   1.00
C1899  C     0.88586   0.99719   0.50986   0.00000  Uiso   1.00
C1900  C     0.86033   0.95563   0.50039   0.00000  Uiso   1.00
C1901  C     0.70756   0.87869   0.93034   0.00000  Uiso   1.00
C1902  C     0.70649   0.83430   0.90715   0.00000  Uiso   1.00
C1903  C     0.99429   0.81264   0.91592   0.00000  Uiso   1.00
C1904  C     0.81972   0.84539   0.99157   0.00000  Uiso   1.00
C1905  C     0.83392   0.84570   0.94434   0.00000  Uiso   1.00
C1906  C     0.84285   0.82487   0.51361   0.00000  Uiso   1.00
C1907  C     0.86863   0.79414   0.98856   0.00000  Uiso   1.00
C1908  C     0.88118   0.79393   0.94143   0.00000  Uiso   1.00
C1909  C     0.87150   0.82702   0.92232   0.00000  Uiso   1.00
H1910  H     0.93714   0.75138   0.61715   0.00000  Uiso   1.00
H1911  H     0.86424   0.97187   0.65738   0.00000  Uiso   1.00
H1912  H     0.95741   0.67985   0.64589   0.00000  Uiso   1.00
H1913  H     0.93943   0.96078   0.66148   0.00000  Uiso   1.00
H1914  H     0.91598   0.94246   0.59039   0.00000  Uiso   1.00
H1915  H     0.97229   0.96095   0.57992   0.00000  Uiso   1.00
H1916  H     0.93550   0.99505   0.57485   0.00000  Uiso   1.00
H1917  H     0.76228   0.68249   0.80767   0.00000  Uiso   1.00
H1918  H     0.92086   0.72661   0.85969   0.00000  Uiso   1.00
H1919  H     0.90038   0.77162   0.85266   0.00000  Uiso   1.00
H1920  H     0.83735   0.72126   0.92291   0.00000  Uiso   1.00
H1921  H     0.93633   0.79964   0.59598   0.00000  Uiso   1.00
H1922  H     0.83011   0.74164   0.87515   0.00000  Uiso   1.00
H1923  H     0.86880   0.99421   0.87631   0.00000  Uiso   1.00
H1924  H     0.81746   0.99867   0.86752   0.00000  Uiso   1.00
H1925  H     0.86602   0.68185   0.82615   0.00000  Uiso   1.00
H1926  H     0.88440   0.68703   0.94867   0.00000  Uiso   1.00
H1927  H     0.84292   0.70268   0.99630   0.00000  Uiso   1.00
H1928  H     0.92049   0.99339   0.99936   0.00000  Uiso   1.00
H1929  H     0.87651   0.67278   0.54644   0.00000  Uiso   1.00
H1930  H     0.82551   0.95828   0.51211   0.00000  Uiso   1.00
H1931  H     0.86778   0.93143   0.51845   0.00000  Uiso   1.00
H1932  H     0.96630   0.72153   0.53509   0.00000  Uiso   1.00
H1933  H     0.86884   0.94577   0.96395   0.00000  Uiso   1.00
H1934  H     0.83437   0.87948   0.60902   0.00000  Uiso   1.00
H1935  H     0.68863   0.89668   0.91623   0.00000  Uiso   1.00
H1936  H     0.69103   0.87785   0.96658   0.00000  Uiso   1.00
H1937  H     0.71984   0.83548   0.87043   0.00000  Uiso   1.00
H1938  H     0.72572   0.81544   0.91983   0.00000  Uiso   1.00
H1939  H     0.97964   0.81122   0.95246   0.00000  Uiso   1.00
H1940  H     0.99459   0.78038   0.89971   0.00000  Uiso   1.00
H1941  H     0.97478   0.82976   0.90168   0.00000  Uiso   1.00
H1942  H     0.73148   0.86019   0.56603   0.00000  Uiso   1.00
H1943  H     0.97251   0.77412   0.51962   0.00000  Uiso   1.00
H1944  H     0.73859   0.92263   0.54468   0.00000  Uiso   1.00
H1945  H     0.89607   0.87201   0.88399   0.00000  Uiso   1.00
H1946  H     0.67544   0.87186   0.68119   0.00000  Uiso   1.00
H1947  H     0.68516   0.79624   0.57364   0.00000  Uiso   1.00
H1948  H     0.70707   0.75845   0.52912   0.00000  Uiso   1.00
H1949  H     0.68129   0.74227   0.58463   0.00000  Uiso   1.00
H1950  H     0.99636   0.79432   0.81832   0.00000  Uiso   1.00
H1951  H     0.88416   0.69166   0.64830   0.00000  Uiso   1.00
O1952  O     0.83333   0.83333   0.75000   0.00000  Uiso   1.00
O1953  O     0.82118   0.79304   0.65459   0.00000  Uiso   1.00
O1954  O     0.79607   0.87058   0.84968   0.00000  Uiso   1.00
O1955  O     0.87491   0.84425   0.64606   0.00000  Uiso   1.00
O1956  O     0.84118   0.82546   0.84968   0.00000  Uiso   1.00
O1957  O     0.89406   0.74794   0.57977   0.00000  Uiso   1.00
O1958  O     0.97953   0.80574   0.80139   0.00000  Uiso   1.00
O1959  O     0.88415   0.67660   0.71058   0.00000  Uiso   1.00
O1960  O     0.77980   0.99361   0.79129   0.00000  Uiso   1.00
O1961  O     0.90879   0.76613   0.91624   0.00000  Uiso   1.00
O1962  O     0.90619   0.73447   0.98892   0.00000  Uiso   1.00
O1963  O     0.84597   0.74686   0.78214   0.00000  Uiso   1.00
O1964  O     0.83098   0.87419   0.57825   0.00000  Uiso   1.00
O1965  O     0.74969   0.89997   0.92268   0.00000  Uiso   1.00
O1966  O     0.76135   0.85356   0.55816   0.00000  Uiso   1.00
O1967  O     0.73407   0.91416   0.51452   0.00000  Uiso   1.00
O1968  O     0.90165   0.84323   0.88599   0.00000  Uiso   1.00
O1969  O     0.69039   0.86144   0.70065   0.00000  Uiso   1.00
O1970  O     0.81298   0.92751   0.77014   0.00000  Uiso   1.00
O1971  O     0.74078   0.79958   0.73413   0.00000  Uiso   1.00
O1972  O     0.93360   0.85939   0.71361   0.00000  Uiso   1.00
O1973  O     0.73738   0.85544   0.78213   0.00000  Uiso   1.00
O1974  O     0.92158   0.81892   0.77014   0.00000  Uiso   1.00
O1975  O     0.80426   0.73610   0.73413   0.00000  Uiso   1.00
O1976  O     0.87012   0.92286   0.71361   0.00000  Uiso   1.00
Zn1977 Zn    0.86005   0.80661   0.78734   0.00000  Uiso   1.00
Zn1978 Zn    0.80046   0.79124   0.71876   0.00000  Uiso   1.00
Zn1979 Zn    0.87723   0.86442   0.70657   0.00000  Uiso   1.00
Zn1980 Zn    0.79560   0.87106   0.78734   0.00000  Uiso   1.00
loop_
_geom_bond_atom_site_label_1
_geom_bond_atom_site_label_2
_geom_bond_distance
_geom_bond_site_symmetry_2
_ccdc_geom_bond_type
C1     O103    1.265   .     A
C1     O101    1.268   .     A
C1     C7      1.443   .     S
C2     C16     1.409   .     A
C2     O94     1.388   .     S
C2     C36     1.408   .     A
C3     O87     1.386   .     S
C3     C15     1.400   .     A
C3     C16     1.406   .     A
C4     C6      1.475   .     S
C4     O102    1.290   .     A
C4     O104    1.280   .     A
C5     C17     1.419   .     A
C5     C35     1.426   .     A
C5     C14     1.495   .     S
C6     C117    1.351   .     S
C6     O209    1.387   .     S
C7     C226    1.351   1_455 S
C7     O308    1.384   1_455 S
C8     C11     1.462   .     S
C8     C339    1.345   .     S
C8     O419    1.392   .     S
C9     C10     1.436   .     S
C9     C668    1.345   1_545 S
C9     O750    1.385   1_545 S
C10    O93     1.283   .     A
C10    O105    1.277   .     A
C11    O100    1.269   .     A
C11    O106    1.270   .     A
C12    C17     1.401   .     A
C12    C1013   1.410   .     S
C12    O1087   1.381   .     S
C13    O83     1.276   .     A
C13    C16     1.452   .     S
C13    O85     1.276   .     A
C14    O84     1.288   .     A
C14    O86     1.290   .     A
C15    C1027   1.418   1_554 S
C15    O1082   1.385   1_554 S
C17    O95     1.389   .     S
C18    C19     1.534   .     S
C18    H40     1.111   .     S
C18    H51     1.114   .     S
C18    O87     1.417   .     S
C19    H62     1.110   .     S
C19    H73     1.110   .     S
C19    C130    1.525   .     S
C20    H77     1.109   .     S
C20    H79     1.111   .     S
C20    H78     1.111   .     S
C20    C239    1.525   1_455 S
C21    C22     1.531   .     S
C21    H41     1.117   .     S
C21    H411    1.110   .     S
C21    O419    1.417   .     S
C22    C24     1.524   .     S
C22    H43     1.111   .     S
C22    H372    1.112   .     S
C23    O96     1.384   .     S
C23    C1002   1.410   1_554 S
C23    C1024   1.419   1_554 S
C24    H45     1.110   .     S
C24    H44     1.111   .     S
C24    H46     1.107   .     S
C25    O91     1.420   .     S
C25    C26     1.549   .     S
C25    H48     1.111   .     S
C25    H49     1.109   .     S
C26    C27     1.528   .     S
C26    H50     1.109   .     S
C26    H52     1.111   .     S
C27    H55     1.109   .     S
C27    H713    1.110   1_545 S
C27    H714    1.110   1_545 S
C28    H56     1.109   .     S
C28    H57     1.118   .     S
C28    O92     1.417   .     S
C28    C1679   1.528   1_545 S
C29    C30     1.526   .     S
C29    C1348   1.528   1_554 S
C29    H1048   1.112   1_554 S
C29    H389    1.110   .     S
C30    H60     1.110   .     S
C30    H61     1.109   .     S
C30    H1053   1.111   1_554 S
C31    H66     1.111   .     S
C31    H65     1.111   .     S
C31    C32     1.538   .     S
C31    O95     1.421   .     S
C32    H68     1.111   .     S
C32    H67     1.109   .     S
C32    C253    1.520   1_455 S
C33    H69     1.110   .     S
C33    H70     1.110   .     S
C33    H71     1.109   .     S
C33    C142    1.520   .     S
C34    C35     1.416   .     A
C34    C1013   1.419   .     S
C34    C1026   1.425   .     S
C35    C39     1.418   .     A
C36    C1024   1.425   1_554 S
C36    C1027   1.422   1_554 S
C37    C38     1.410   .     A
C37    C1026   1.422   .     S
C37    C1005   1.418   .     S
C38    C39     1.402   .     A
C38    O91     1.390   .     S
C39    O98     1.381   .     S
H42    C682    1.112   1_545 S
H47    O750    0.992   1_545 S
H53    C357    1.110   .     S
H54    C357    1.110   .     S
H58    C1019   1.112   .     S
H59    C689    1.110   1_545 S
H63    C1020   1.111   .     S
H64    O94     0.986   .     S
H72    O96     0.990   .     S
H74    O97     0.991   .     S
H75    O98     0.992   .     S
H76    O99     0.990   .     S
H80    O88     0.992   .     S
H81    C681    1.110   1_545 S
O82    Zn110   1.924   .     S
O82    Zn108   1.953   .     S
O82    Zn109   1.937   .     S
O82    Zn107   1.972   .     S
O83    Zn108   1.930   .     S
O84    Zn110   1.947   .     S
O85    Zn109   1.939   .     S
O86    Zn107   1.923   .     S
O88    C117    1.384   .     S
O89    C668    1.392   1_545 S
O89    C681    1.417   1_545 S
O90    H377    0.992   .     S
O90    C339    1.385   .     S
O92    C1005   1.385   .     S
O93    Zn107   1.931   .     S
O97    C1002   1.381   1_554 S
O99    C226    1.387   1_455 S
O100   Zn110   1.936   .     S
O101   Zn108   1.931   .     S
O102   Zn109   1.949   .     S
O103   Zn110   1.945   .     S
O104   Zn107   1.931   .     S
O105   Zn108   1.940   .     S
O106   Zn109   1.930   .     S
C111   O213    1.265   .     A
C111   O211    1.268   .     A
C111   C117    1.443   .     S
C112   C126    1.409   .     A
C112   O204    1.388   .     S
C112   C146    1.408   .     A
C113   O197    1.386   .     S
C113   C125    1.400   .     A
C113   C126    1.406   .     A
C114   C116    1.475   .     S
C114   O212    1.290   .     A
C114   O214    1.280   .     A
C115   C127    1.419   .     A
C115   C145    1.426   .     A
C115   C124    1.495   .     S
C116   C227    1.351   .     S
C116   O319    1.387   .     S
C118   C121    1.462   .     S
C118   C449    1.345   .     S
C118   O529    1.392   .     S
C119   C120    1.436   .     S
C119   C778    1.345   1_545 S
C119   O860    1.385   1_545 S
C120   O203    1.283   .     A
C120   O215    1.277   .     A
C121   O210    1.269   .     A
C121   O216    1.270   .     A
C122   C127    1.401   .     A
C122   C1123   1.410   .     S
C122   O1197   1.381   .     S
C123   O193    1.276   .     A
C123   C126    1.452   .     S
C123   O195    1.276   .     A
C124   O194    1.288   .     A
C124   O196    1.290   .     A
C125   C1137   1.418   1_554 S
C125   O1192   1.385   1_554 S
C127   O205    1.389   .     S
C128   C129    1.534   .     S
C128   H150    1.111   .     S
C128   H161    1.114   .     S
C128   O197    1.417   .     S
C129   H172    1.110   .     S
C129   H183    1.110   .     S
C129   C240    1.525   .     S
C130   H187    1.109   .     S
C130   H189    1.111   .     S
C130   H188    1.111   .     S
C131   C132    1.531   .     S
C131   H151    1.117   .     S
C131   H521    1.110   .     S
C131   O529    1.417   .     S
C132   C134    1.524   .     S
C132   H153    1.111   .     S
C132   H482    1.112   .     S
C133   O206    1.384   .     S
C133   C1112   1.410   1_554 S
C133   C1134   1.419   1_554 S
C134   H155    1.110   .     S
C134   H154    1.111   .     S
C134   H156    1.107   .     S
C135   O201    1.420   .     S
C135   C136    1.549   .     S
C135   H158    1.111   .     S
C135   H159    1.109   .     S
C136   C137    1.528   .     S
C136   H160    1.109   .     S
C136   H162    1.111   .     S
C137   H165    1.109   .     S
C137   H823    1.110   1_545 S
C137   H824    1.110   1_545 S
C138   H166    1.109   .     S
C138   H167    1.118   .     S
C138   O202    1.417   .     S
C138   C1789   1.528   1_545 S
C139   C140    1.526   .     S
C139   C1458   1.528   1_554 S
C139   H1158   1.112   1_554 S
C139   H499    1.110   .     S
C140   H170    1.110   .     S
C140   H171    1.109   .     S
C140   H1163   1.111   1_554 S
C141   H176    1.111   .     S
C141   H175    1.111   .     S
C141   C142    1.538   .     S
C141   O205    1.421   .     S
C142   H178    1.111   .     S
C142   H177    1.109   .     S
C143   H179    1.110   .     S
C143   H180    1.110   .     S
C143   H181    1.109   .     S
C143   C252    1.520   .     S
C144   C145    1.416   .     A
C144   C1123   1.419   .     S
C144   C1136   1.425   .     S
C145   C149    1.418   .     A
C146   C1134   1.425   1_554 S
C146   C1137   1.422   1_554 S
C147   C148    1.410   .     A
C147   C1136   1.422   .     S
C147   C1115   1.418   .     S
C148   C149    1.402   .     A
C148   O201    1.390   .     S
C149   O208    1.381   .     S
H152   C792    1.112   1_545 S
H157   O860    0.992   1_545 S
H163   C467    1.110   .     S
H164   C467    1.110   .     S
H168   C1129   1.112   .     S
H169   C799    1.110   1_545 S
H173   C1130   1.111   .     S
H174   O204    0.986   .     S
H182   O206    0.990   .     S
H184   O207    0.991   .     S
H185   O208    0.992   .     S
H186   O209    0.990   .     S
H190   O198    0.992   .     S
H191   C791    1.110   1_545 S
O192   Zn220   1.924   .     S
O192   Zn218   1.953   .     S
O192   Zn219   1.937   .     S
O192   Zn217   1.972   .     S
O193   Zn218   1.930   .     S
O194   Zn220   1.947   .     S
O195   Zn219   1.939   .     S
O196   Zn217   1.923   .     S
O198   C227    1.384   .     S
O199   C778    1.392   1_545 S
O199   C791    1.417   1_545 S
O200   H487    0.992   .     S
O200   C449    1.385   .     S
O202   C1115   1.385   .     S
O203   Zn217   1.931   .     S
O207   C1112   1.381   1_554 S
O210   Zn220   1.936   .     S
O211   Zn218   1.931   .     S
O212   Zn219   1.949   .     S
O213   Zn220   1.945   .     S
O214   Zn217   1.931   .     S
O215   Zn218   1.940   .     S
O216   Zn219   1.930   .     S
C221   O323    1.265   .     A
C221   O321    1.268   .     A
C221   C227    1.443   .     S
C222   C236    1.409   .     A
C222   O314    1.388   .     S
C222   C256    1.408   .     A
C223   O307    1.386   .     S
C223   C235    1.400   .     A
C223   C236    1.406   .     A
C224   C226    1.475   .     S
C224   O322    1.290   .     A
C224   O324    1.280   .     A
C225   C237    1.419   .     A
C225   C255    1.426   .     A
C225   C234    1.495   .     S
C226   C7      1.351   1_655 S
C226   O99     1.387   1_655 S
C228   C231    1.462   .     S
C228   C559    1.345   .     S
C228   O639    1.392   .     S
C229   C230    1.436   .     S
C229   C888    1.345   1_545 S
C229   O970    1.385   1_545 S
C230   O313    1.283   .     A
C230   O325    1.277   .     A
C231   O320    1.269   .     A
C231   O326    1.270   .     A
C232   C237    1.401   .     A
C232   C1233   1.410   .     S
C232   O1307   1.381   .     S
C233   O303    1.276   .     A
C233   C236    1.452   .     S
C233   O305    1.276   .     A
C234   O304    1.288   .     A
C234   O306    1.290   .     A
C235   C1247   1.418   1_554 S
C235   O1302   1.385   1_554 S
C237   O315    1.389   .     S
C238   C239    1.534   .     S
C238   H260    1.111   .     S
C238   H271    1.114   .     S
C238   O307    1.417   .     S
C239   H282    1.110   .     S
C239   H293    1.110   .     S
C239   C20     1.525   1_655 S
C240   H297    1.109   .     S
C240   H299    1.111   .     S
C240   H298    1.111   .     S
C241   C242    1.531   .     S
C241   H261    1.117   .     S
C241   H631    1.110   .     S
C241   O639    1.417   .     S
C242   C244    1.524   .     S
C242   H263    1.111   .     S
C242   H592    1.112   .     S
C243   O316    1.384   .     S
C243   C1222   1.410   1_554 S
C243   C1244   1.419   1_554 S
C244   H265    1.110   .     S
C244   H264    1.111   .     S
C244   H266    1.107   .     S
C245   O311    1.420   .     S
C245   C246    1.549   .     S
C245   H268    1.111   .     S
C245   H269    1.109   .     S
C246   C247    1.528   .     S
C246   H270    1.109   .     S
C246   H272    1.111   .     S
C247   H275    1.109   .     S
C247   H933    1.110   1_545 S
C247   H934    1.110   1_545 S
C248   H276    1.109   .     S
C248   H277    1.118   .     S
C248   O312    1.417   .     S
C248   C1899   1.528   1_545 S
C249   C250    1.526   .     S
C249   C1568   1.528   1_554 S
C249   H1268   1.112   1_554 S
C249   H609    1.110   .     S
C250   H280    1.110   .     S
C250   H281    1.109   .     S
C250   H1273   1.111   1_554 S
C251   H286    1.111   .     S
C251   H285    1.111   .     S
C251   C252    1.538   .     S
C251   O315    1.421   .     S
C252   H288    1.111   .     S
C252   H287    1.109   .     S
C253   H289    1.110   .     S
C253   H290    1.110   .     S
C253   H291    1.109   .     S
C253   C32     1.520   1_655 S
C254   C255    1.416   .     A
C254   C1233   1.419   .     S
C254   C1246   1.425   .     S
C255   C259    1.418   .     A
C256   C1244   1.425   1_554 S
C256   C1247   1.422   1_554 S
C257   C258    1.410   .     A
C257   C1246   1.422   .     S
C257   C1225   1.418   .     S
C258   C259    1.402   .     A
C258   O311    1.390   .     S
C259   O318    1.381   .     S
H262   C902    1.112   1_545 S
H267   O970    0.992   1_545 S
H273   C577    1.110   .     S
H274   C577    1.110   .     S
H278   C1239   1.112   .     S
H279   C909    1.110   1_545 S
H283   C1240   1.111   .     S
H284   O314    0.986   .     S
H292   O316    0.990   .     S
H294   O317    0.991   .     S
H295   O318    0.992   .     S
H296   O319    0.990   .     S
H300   O308    0.992   .     S
H301   C901    1.110   1_545 S
O302   Zn330   1.924   .     S
O302   Zn328   1.953   .     S
O302   Zn329   1.937   .     S
O302   Zn327   1.972   .     S
O303   Zn328   1.930   .     S
O304   Zn330   1.947   .     S
O305   Zn329   1.939   .     S
O306   Zn327   1.923   .     S
O308   C7      1.384   1_655 S
O309   C888    1.392   1_545 S
O309   C901    1.417   1_545 S
O310   H597    0.992   .     S
O310   C559    1.385   .     S
O312   C1225   1.385   .     S
O313   Zn327   1.931   .     S
O317   C1222   1.381   1_554 S
O320   Zn330   1.936   .     S
O321   Zn328   1.931   .     S
O322   Zn329   1.949   .     S
O323   Zn330   1.945   .     S
O324   Zn327   1.931   .     S
O325   Zn328   1.940   .     S
O326   Zn329   1.930   .     S
C331   O433    1.265   .     A
C331   O431    1.268   .     A
C331   C337    1.443   .     S
C332   C346    1.409   .     A
C332   O424    1.388   .     S
C332   C366    1.408   .     A
C333   O417    1.386   .     S
C333   C345    1.400   .     A
C333   C346    1.406   .     A
C334   C336    1.475   .     S
C334   O432    1.290   .     A
C334   O434    1.280   .     A
C335   C347    1.419   .     A
C335   C365    1.426   .     A
C335   C344    1.495   .     S
C336   C447    1.351   .     S
C336   O539    1.387   .     S
C337   C556    1.351   1_455 S
C337   O638    1.384   1_455 S
C338   C341    1.462   .     S
C338   C669    1.345   .     S
C338   O749    1.392   .     S
C339   C340    1.436   .     S
C340   O423    1.283   .     A
C340   O435    1.277   .     A
C341   O430    1.269   .     A
C341   O436    1.270   .     A
C342   C347    1.401   .     A
C342   C1343   1.410   .     S
C342   O1417   1.381   .     S
C343   O413    1.276   .     A
C343   C346    1.452   .     S
C343   O415    1.276   .     A
C344   O414    1.288   .     A
C344   O416    1.290   .     A
C345   C1357   1.418   1_554 S
C345   O1412   1.385   1_554 S
C347   O425    1.389   .     S
C348   C349    1.534   .     S
C348   H370    1.111   .     S
C348   H381    1.114   .     S
C348   O417    1.417   .     S
C349   H392    1.110   .     S
C349   H403    1.110   .     S
C349   C460    1.525   .     S
C350   H407    1.109   .     S
C350   H409    1.111   .     S
C350   H408    1.111   .     S
C350   C569    1.525   1_455 S
C351   C352    1.531   .     S
C351   H371    1.117   .     S
C351   H741    1.110   .     S
C351   O749    1.417   .     S
C352   C354    1.524   .     S
C352   H373    1.111   .     S
C352   H702    1.112   .     S
C353   O426    1.384   .     S
C353   C1332   1.410   1_554 S
C353   C1354   1.419   1_554 S
C354   H375    1.110   .     S
C354   H374    1.111   .     S
C354   H376    1.107   .     S
C355   O421    1.420   .     S
C355   C356    1.549   .     S
C355   H378    1.111   .     S
C355   H379    1.109   .     S
C356   C357    1.528   .     S
C356   H380    1.109   .     S
C356   H382    1.111   .     S
C357   H385    1.109   .     S
C358   H386    1.109   .     S
C358   H387    1.118   .     S
C358   O422    1.417   .     S
C358   C1019   1.528   .     S
C359   C360    1.526   .     S
C359   C1678   1.528   1_554 S
C359   H1378   1.112   1_554 S
C359   H719    1.110   .     S
C360   H390    1.110   .     S
C360   H391    1.109   .     S
C360   H1383   1.111   1_554 S
C361   H396    1.111   .     S
C361   H395    1.111   .     S
C361   C362    1.538   .     S
C361   O425    1.421   .     S
C362   H398    1.111   .     S
C362   H397    1.109   .     S
C362   C583    1.520   1_455 S
C363   H399    1.110   .     S
C363   H400    1.110   .     S
C363   H401    1.109   .     S
C363   C472    1.520   .     S
C364   C365    1.416   .     A
C364   C1343   1.419   .     S
C364   C1356   1.425   .     S
C365   C369    1.418   .     A
C366   C1354   1.425   1_554 S
C366   C1357   1.422   1_554 S
C367   C368    1.410   .     A
C367   C1356   1.422   .     S
C367   C1335   1.418   .     S
C368   C369    1.402   .     A
C368   O421    1.390   .     S
C369   O428    1.381   .     S
H383   C687    1.110   .     S
H384   C687    1.110   .     S
H388   C1349   1.112   .     S
H393   C1350   1.111   .     S
H394   O424    0.986   .     S
H402   O426    0.990   .     S
H404   O427    0.991   .     S
H405   O428    0.992   .     S
H406   O429    0.990   .     S
H410   O418    0.992   .     S
O412   Zn440   1.924   .     S
O412   Zn438   1.953   .     S
O412   Zn439   1.937   .     S
O412   Zn437   1.972   .     S
O413   Zn438   1.930   .     S
O414   Zn440   1.947   .     S
O415   Zn439   1.939   .     S
O416   Zn437   1.923   .     S
O418   C447    1.384   .     S
O420   H707    0.992   .     S
O420   C669    1.385   .     S
O422   C1335   1.385   .     S
O423   Zn437   1.931   .     S
O427   C1332   1.381   1_554 S
O429   C556    1.387   1_455 S
O430   Zn440   1.936   .     S
O431   Zn438   1.931   .     S
O432   Zn439   1.949   .     S
O433   Zn440   1.945   .     S
O434   Zn437   1.931   .     S
O435   Zn438   1.940   .     S
O436   Zn439   1.930   .     S
C441   O543    1.265   .     A
C441   O541    1.268   .     A
C441   C447    1.443   .     S
C442   C456    1.409   .     A
C442   O534    1.388   .     S
C442   C476    1.408   .     A
C443   O527    1.386   .     S
C443   C455    1.400   .     A
C443   C456    1.406   .     A
C444   C446    1.475   .     S
C444   O542    1.290   .     A
C444   O544    1.280   .     A
C445   C457    1.419   .     A
C445   C475    1.426   .     A
C445   C454    1.495   .     S
C446   C557    1.351   .     S
C446   O649    1.387   .     S
C448   C451    1.462   .     S
C448   C779    1.345   .     S
C448   O859    1.392   .     S
C449   C450    1.436   .     S
C450   O533    1.283   .     A
C450   O545    1.277   .     A
C451   O540    1.269   .     A
C451   O546    1.270   .     A
C452   C457    1.401   .     A
C452   C1453   1.410   .     S
C452   O1527   1.381   .     S
C453   O523    1.276   .     A
C453   C456    1.452   .     S
C453   O525    1.276   .     A
C454   O524    1.288   .     A
C454   O526    1.290   .     A
C455   C1467   1.418   1_554 S
C455   O1522   1.385   1_554 S
C457   O535    1.389   .     S
C458   C459    1.534   .     S
C458   H480    1.111   .     S
C458   H491    1.114   .     S
C458   O527    1.417   .     S
C459   H502    1.110   .     S
C459   H513    1.110   .     S
C459   C570    1.525   .     S
C460   H517    1.109   .     S
C460   H519    1.111   .     S
C460   H518    1.111   .     S
C461   C462    1.531   .     S
C461   H481    1.117   .     S
C461   H851    1.110   .     S
C461   O859    1.417   .     S
C462   C464    1.524   .     S
C462   H483    1.111   .     S
C462   H812    1.112   .     S
C463   O536    1.384   .     S
C463   C1442   1.410   1_554 S
C463   C1464   1.419   1_554 S
C464   H485    1.110   .     S
C464   H484    1.111   .     S
C464   H486    1.107   .     S
C465   O531    1.420   .     S
C465   C466    1.549   .     S
C465   H488    1.111   .     S
C465   H489    1.109   .     S
C466   C467    1.528   .     S
C466   H490    1.109   .     S
C466   H492    1.111   .     S
C467   H495    1.109   .     S
C468   H496    1.109   .     S
C468   H497    1.118   .     S
C468   O532    1.417   .     S
C468   C1129   1.528   .     S
C469   C470    1.526   .     S
C469   C1788   1.528   1_554 S
C469   H1488   1.112   1_554 S
C469   H829    1.110   .     S
C470   H500    1.110   .     S
C470   H501    1.109   .     S
C470   H1493   1.111   1_554 S
C471   H506    1.111   .     S
C471   H505    1.111   .     S
C471   C472    1.538   .     S
C471   O535    1.421   .     S
C472   H508    1.111   .     S
C472   H507    1.109   .     S
C473   H509    1.110   .     S
C473   H510    1.110   .     S
C473   H511    1.109   .     S
C473   C582    1.520   .     S
C474   C475    1.416   .     A
C474   C1453   1.419   .     S
C474   C1466   1.425   .     S
C475   C479    1.418   .     A
C476   C1464   1.425   1_554 S
C476   C1467   1.422   1_554 S
C477   C478    1.410   .     A
C477   C1466   1.422   .     S
C477   C1445   1.418   .     S
C478   C479    1.402   .     A
C478   O531    1.390   .     S
C479   O538    1.381   .     S
H493   C797    1.110   .     S
H494   C797    1.110   .     S
H498   C1459   1.112   .     S
H503   C1460   1.111   .     S
H504   O534    0.986   .     S
H512   O536    0.990   .     S
H514   O537    0.991   .     S
H515   O538    0.992   .     S
H516   O539    0.990   .     S
H520   O528    0.992   .     S
O522   Zn550   1.924   .     S
O522   Zn548   1.953   .     S
O522   Zn549   1.937   .     S
O522   Zn547   1.972   .     S
O523   Zn548   1.930   .     S
O524   Zn550   1.947   .     S
O525   Zn549   1.939   .     S
O526   Zn547   1.923   .     S
O528   C557    1.384   .     S
O530   H817    0.992   .     S
O530   C779    1.385   .     S
O532   C1445   1.385   .     S
O533   Zn547   1.931   .     S
O537   C1442   1.381   1_554 S
O540   Zn550   1.936   .     S
O541   Zn548   1.931   .     S
O542   Zn549   1.949   .     S
O543   Zn550   1.945   .     S
O544   Zn547   1.931   .     S
O545   Zn548   1.940   .     S
O546   Zn549   1.930   .     S
C551   O653    1.265   .     A
C551   O651    1.268   .     A
C551   C557    1.443   .     S
C552   C566    1.409   .     A
C552   O644    1.388   .     S
C552   C586    1.408   .     A
C553   O637    1.386   .     S
C553   C565    1.400   .     A
C553   C566    1.406   .     A
C554   C556    1.475   .     S
C554   O652    1.290   .     A
C554   O654    1.280   .     A
C555   C567    1.419   .     A
C555   C585    1.426   .     A
C555   C564    1.495   .     S
C556   C337    1.351   1_655 S
C556   O429    1.387   1_655 S
C558   C561    1.462   .     S
C558   C889    1.345   .     S
C558   O969    1.392   .     S
C559   C560    1.436   .     S
C560   O643    1.283   .     A
C560   O655    1.277   .     A
C561   O650    1.269   .     A
C561   O656    1.270   .     A
C562   C567    1.401   .     A
C562   C1563   1.410   .     S
C562   O1637   1.381   .     S
C563   O633    1.276   .     A
C563   C566    1.452   .     S
C563   O635    1.276   .     A
C564   O634    1.288   .     A
C564   O636    1.290   .     A
C565   C1577   1.418   1_554 S
C565   O1632   1.385   1_554 S
C567   O645    1.389   .     S
C568   C569    1.534   .     S
C568   H590    1.111   .     S
C568   H601    1.114   .     S
C568   O637    1.417   .     S
C569   H612    1.110   .     S
C569   H623    1.110   .     S
C569   C350    1.525   1_655 S
C570   H627    1.109   .     S
C570   H629    1.111   .     S
C570   H628    1.111   .     S
C571   C572    1.531   .     S
C571   H591    1.117   .     S
C571   H961    1.110   .     S
C571   O969    1.417   .     S
C572   C574    1.524   .     S
C572   H593    1.111   .     S
C572   H922    1.112   .     S
C573   O646    1.384   .     S
C573   C1552   1.410   1_554 S
C573   C1574   1.419   1_554 S
C574   H595    1.110   .     S
C574   H594    1.111   .     S
C574   H596    1.107   .     S
C575   O641    1.420   .     S
C575   C576    1.549   .     S
C575   H598    1.111   .     S
C575   H599    1.109   .     S
C576   C577    1.528   .     S
C576   H600    1.109   .     S
C576   H602    1.111   .     S
C577   H605    1.109   .     S
C578   H606    1.109   .     S
C578   H607    1.118   .     S
C578   O642    1.417   .     S
C578   C1239   1.528   .     S
C579   C580    1.526   .     S
C579   C1898   1.528   1_554 S
C579   H1598   1.112   1_554 S
C579   H939    1.110   .     S
C580   H610    1.110   .     S
C580   H611    1.109   .     S
C580   H1603   1.111   1_554 S
C581   H616    1.111   .     S
C581   H615    1.111   .     S
C581   C582    1.538   .     S
C581   O645    1.421   .     S
C582   H618    1.111   .     S
C582   H617    1.109   .     S
C583   H619    1.110   .     S
C583   H620    1.110   .     S
C583   H621    1.109   .     S
C583   C362    1.520   1_655 S
C584   C585    1.416   .     A
C584   C1563   1.419   .     S
C584   C1576   1.425   .     S
C585   C589    1.418   .     A
C586   C1574   1.425   1_554 S
C586   C1577   1.422   1_554 S
C587   C588    1.410   .     A
C587   C1576   1.422   .     S
C587   C1555   1.418   .     S
C588   C589    1.402   .     A
C588   O641    1.390   .     S
C589   O648    1.381   .     S
H603   C907    1.110   .     S
H604   C907    1.110   .     S
H608   C1569   1.112   .     S
H613   C1570   1.111   .     S
H614   O644    0.986   .     S
H622   O646    0.990   .     S
H624   O647    0.991   .     S
H625   O648    0.992   .     S
H626   O649    0.990   .     S
H630   O638    0.992   .     S
O632   Zn660   1.924   .     S
O632   Zn658   1.953   .     S
O632   Zn659   1.937   .     S
O632   Zn657   1.972   .     S
O633   Zn658   1.930   .     S
O634   Zn660   1.947   .     S
O635   Zn659   1.939   .     S
O636   Zn657   1.923   .     S
O638   C337    1.384   1_655 S
O640   H927    0.992   .     S
O640   C889    1.385   .     S
O642   C1555   1.385   .     S
O643   Zn657   1.931   .     S
O647   C1552   1.381   1_554 S
O650   Zn660   1.936   .     S
O651   Zn658   1.931   .     S
O652   Zn659   1.949   .     S
O653   Zn660   1.945   .     S
O654   Zn657   1.931   .     S
O655   Zn658   1.940   .     S
O656   Zn659   1.930   .     S
C661   O763    1.265   .     A
C661   O761    1.268   .     A
C661   C667    1.443   .     S
C662   C676    1.409   .     A
C662   O754    1.388   .     S
C662   C696    1.408   .     A
C663   O747    1.386   .     S
C663   C675    1.400   .     A
C663   C676    1.406   .     A
C664   C666    1.475   .     S
C664   O762    1.290   .     A
C664   O764    1.280   .     A
C665   C677    1.419   .     A
C665   C695    1.426   .     A
C665   C674    1.495   .     S
C666   C777    1.351   .     S
C666   O869    1.387   .     S
C667   C886    1.351   1_455 S
C667   O968    1.384   1_455 S
C668   C671    1.462   .     S
C668   C9      1.345   1_565 S
C668   O89     1.392   1_565 S
C669   C670    1.436   .     S
C670   O753    1.283   .     A
C670   O765    1.277   .     A
C671   O760    1.269   .     A
C671   O766    1.270   .     A
C672   C677    1.401   .     A
C672   C1673   1.410   .     S
C672   O1747   1.381   .     S
C673   O743    1.276   .     A
C673   C676    1.452   .     S
C673   O745    1.276   .     A
C674   O744    1.288   .     A
C674   O746    1.290   .     A
C675   C1687   1.418   1_554 S
C675   O1742   1.385   1_554 S
C677   O755    1.389   .     S
C678   C679    1.534   .     S
C678   H700    1.111   .     S
C678   H711    1.114   .     S
C678   O747    1.417   .     S
C679   H722    1.110   .     S
C679   H733    1.110   .     S
C679   C790    1.525   .     S
C680   H737    1.109   .     S
C680   H739    1.111   .     S
C680   H738    1.111   .     S
C680   C899    1.525   1_455 S
C681   C682    1.531   .     S
C681   H701    1.117   .     S
C681   H81     1.110   1_565 S
C681   O89     1.417   1_565 S
C682   C684    1.524   .     S
C682   H703    1.111   .     S
C682   H42     1.112   1_565 S
C683   O756    1.384   .     S
C683   C1662   1.410   1_554 S
C683   C1684   1.419   1_554 S
C684   H705    1.110   .     S
C684   H704    1.111   .     S
C684   H706    1.107   .     S
C685   O751    1.420   .     S
C685   C686    1.549   .     S
C685   H708    1.111   .     S
C685   H709    1.109   .     S
C686   C687    1.528   .     S
C686   H710    1.109   .     S
C686   H712    1.111   .     S
C687   H715    1.109   .     S
C688   H716    1.109   .     S
C688   H717    1.118   .     S
C688   O752    1.417   .     S
C688   C1349   1.528   .     S
C689   C690    1.526   .     S
C689   C1018   1.528   1_564 S
C689   H1708   1.112   1_554 S
C689   H59     1.110   1_565 S
C690   H720    1.110   .     S
C690   H721    1.109   .     S
C690   H1713   1.111   1_554 S
C691   H726    1.111   .     S
C691   H725    1.111   .     S
C691   C692    1.538   .     S
C691   O755    1.421   .     S
C692   H728    1.111   .     S
C692   H727    1.109   .     S
C692   C913    1.520   1_455 S
C693   H729    1.110   .     S
C693   H730    1.110   .     S
C693   H731    1.109   .     S
C693   C802    1.520   .     S
C694   C695    1.416   .     A
C694   C1673   1.419   .     S
C694   C1686   1.425   .     S
C695   C699    1.418   .     A
C696   C1684   1.425   1_554 S
C696   C1687   1.422   1_554 S
C697   C698    1.410   .     A
C697   C1686   1.422   .     S
C697   C1665   1.418   .     S
C698   C699    1.402   .     A
C698   O751    1.390   .     S
C699   O758    1.381   .     S
H713   C27     1.110   1_565 S
H714   C27     1.110   1_565 S
H718   C1679   1.112   .     S
H723   C1680   1.111   .     S
H724   O754    0.986   .     S
H732   O756    0.990   .     S
H734   O757    0.991   .     S
H735   O758    0.992   .     S
H736   O759    0.990   .     S
H740   O748    0.992   .     S
O742   Zn770   1.924   .     S
O742   Zn768   1.953   .     S
O742   Zn769   1.937   .     S
O742   Zn767   1.972   .     S
O743   Zn768   1.930   .     S
O744   Zn770   1.947   .     S
O745   Zn769   1.939   .     S
O746   Zn767   1.923   .     S
O748   C777    1.384   .     S
O750   H47     0.992   1_565 S
O750   C9      1.385   1_565 S
O752   C1665   1.385   .     S
O753   Zn767   1.931   .     S
O757   C1662   1.381   1_554 S
O759   C886    1.387   1_455 S
O760   Zn770   1.936   .     S
O761   Zn768   1.931   .     S
O762   Zn769   1.949   .     S
O763   Zn770   1.945   .     S
O764   Zn767   1.931   .     S
O765   Zn768   1.940   .     S
O766   Zn769   1.930   .     S
C771   O873    1.265   .     A
C771   O871    1.268   .     A
C771   C777    1.443   .     S
C772   C786    1.409   .     A
C772   O864    1.388   .     S
C772   C806    1.408   .     A
C773   O857    1.386   .     S
C773   C785    1.400   .     A
C773   C786    1.406   .     A
C774   C776    1.475   .     S
C774   O872    1.290   .     A
C774   O874    1.280   .     A
C775   C787    1.419   .     A
C775   C805    1.426   .     A
C775   C784    1.495   .     S
C776   C887    1.351   .     S
C776   O979    1.387   .     S
C778   C781    1.462   .     S
C778   C119    1.345   1_565 S
C778   O199    1.392   1_565 S
C779   C780    1.436   .     S
C780   O863    1.283   .     A
C780   O875    1.277   .     A
C781   O870    1.269   .     A
C781   O876    1.270   .     A
C782   C787    1.401   .     A
C782   C1783   1.410   .     S
C782   O1857   1.381   .     S
C783   O853    1.276   .     A
C783   C786    1.452   .     S
C783   O855    1.276   .     A
C784   O854    1.288   .     A
C784   O856    1.290   .     A
C785   C1797   1.418   1_554 S
C785   O1852   1.385   1_554 S
C787   O865    1.389   .     S
C788   C789    1.534   .     S
C788   H810    1.111   .     S
C788   H821    1.114   .     S
C788   O857    1.417   .     S
C789   H832    1.110   .     S
C789   H843    1.110   .     S
C789   C900    1.525   .     S
C790   H847    1.109   .     S
C790   H849    1.111   .     S
C790   H848    1.111   .     S
C791   C792    1.531   .     S
C791   H811    1.117   .     S
C791   H191    1.110   1_565 S
C791   O199    1.417   1_565 S
C792   C794    1.524   .     S
C792   H813    1.111   .     S
C792   H152    1.112   1_565 S
C793   O866    1.384   .     S
C793   C1772   1.410   1_554 S
C793   C1794   1.419   1_554 S
C794   H815    1.110   .     S
C794   H814    1.111   .     S
C794   H816    1.107   .     S
C795   O861    1.420   .     S
C795   C796    1.549   .     S
C795   H818    1.111   .     S
C795   H819    1.109   .     S
C796   C797    1.528   .     S
C796   H820    1.109   .     S
C796   H822    1.111   .     S
C797   H825    1.109   .     S
C798   H826    1.109   .     S
C798   H827    1.118   .     S
C798   O862    1.417   .     S
C798   C1459   1.528   .     S
C799   C800    1.526   .     S
C799   C1128   1.528   1_564 S
C799   H1818   1.112   1_554 S
C799   H169    1.110   1_565 S
C800   H830    1.110   .     S
C800   H831    1.109   .     S
C800   H1823   1.111   1_554 S
C801   H836    1.111   .     S
C801   H835    1.111   .     S
C801   C802    1.538   .     S
C801   O865    1.421   .     S
C802   H838    1.111   .     S
C802   H837    1.109   .     S
C803   H839    1.110   .     S
C803   H840    1.110   .     S
C803   H841    1.109   .     S
C803   C912    1.520   .     S
C804   C805    1.416   .     A
C804   C1783   1.419   .     S
C804   C1796   1.425   .     S
C805   C809    1.418   .     A
C806   C1794   1.425   1_554 S
C806   C1797   1.422   1_554 S
C807   C808    1.410   .     A
C807   C1796   1.422   .     S
C807   C1775   1.418   .     S
C808   C809    1.402   .     A
C808   O861    1.390   .     S
C809   O868    1.381   .     S
H823   C137    1.110   1_565 S
H824   C137    1.110   1_565 S
H828   C1789   1.112   .     S
H833   C1790   1.111   .     S
H834   O864    0.986   .     S
H842   O866    0.990   .     S
H844   O867    0.991   .     S
H845   O868    0.992   .     S
H846   O869    0.990   .     S
H850   O858    0.992   .     S
O852   Zn880   1.924   .     S
O852   Zn878   1.953   .     S
O852   Zn879   1.937   .     S
O852   Zn877   1.972   .     S
O853   Zn878   1.930   .     S
O854   Zn880   1.947   .     S
O855   Zn879   1.939   .     S
O856   Zn877   1.923   .     S
O858   C887    1.384   .     S
O860   H157    0.992   1_565 S
O860   C119    1.385   1_565 S
O862   C1775   1.385   .     S
O863   Zn877   1.931   .     S
O867   C1772   1.381   1_554 S
O870   Zn880   1.936   .     S
O871   Zn878   1.931   .     S
O872   Zn879   1.949   .     S
O873   Zn880   1.945   .     S
O874   Zn877   1.931   .     S
O875   Zn878   1.940   .     S
O876   Zn879   1.930   .     S
C881   O983    1.265   .     A
C881   O981    1.268   .     A
C881   C887    1.443   .     S
C882   C896    1.409   .     A
C882   O974    1.388   .     S
C882   C916    1.408   .     A
C883   O967    1.386   .     S
C883   C895    1.400   .     A
C883   C896    1.406   .     A
C884   C886    1.475   .     S
C884   O982    1.290   .     A
C884   O984    1.280   .     A
C885   C897    1.419   .     A
C885   C915    1.426   .     A
C885   C894    1.495   .     S
C886   C667    1.351   1_655 S
C886   O759    1.387   1_655 S
C888   C891    1.462   .     S
C888   C229    1.345   1_565 S
C888   O309    1.392   1_565 S
C889   C890    1.436   .     S
C890   O973    1.283   .     A
C890   O985    1.277   .     A
C891   O980    1.269   .     A
C891   O986    1.270   .     A
C892   C897    1.401   .     A
C892   C1893   1.410   .     S
C892   O1967   1.381   .     S
C893   O963    1.276   .     A
C893   C896    1.452   .     S
C893   O965    1.276   .     A
C894   O964    1.288   .     A
C894   O966    1.290   .     A
C895   C1907   1.418   1_554 S
C895   O1962   1.385   1_554 S
C897   O975    1.389   .     S
C898   C899    1.534   .     S
C898   H920    1.111   .     S
C898   H931    1.114   .     S
C898   O967    1.417   .     S
C899   H942    1.110   .     S
C899   H953    1.110   .     S
C899   C680    1.525   1_655 S
C900   H957    1.109   .     S
C900   H959    1.111   .     S
C900   H958    1.111   .     S
C901   C902    1.531   .     S
C901   H921    1.117   .     S
C901   H301    1.110   1_565 S
C901   O309    1.417   1_565 S
C902   C904    1.524   .     S
C902   H923    1.111   .     S
C902   H262    1.112   1_565 S
C903   O976    1.384   .     S
C903   C1882   1.410   1_554 S
C903   C1904   1.419   1_554 S
C904   H925    1.110   .     S
C904   H924    1.111   .     S
C904   H926    1.107   .     S
C905   O971    1.420   .     S
C905   C906    1.549   .     S
C905   H928    1.111   .     S
C905   H929    1.109   .     S
C906   C907    1.528   .     S
C906   H930    1.109   .     S
C906   H932    1.111   .     S
C907   H935    1.109   .     S
C908   H936    1.109   .     S
C908   H937    1.118   .     S
C908   O972    1.417   .     S
C908   C1569   1.528   .     S
C909   C910    1.526   .     S
C909   C1238   1.528   1_564 S
C909   H1928   1.112   1_554 S
C909   H279    1.110   1_565 S
C910   H940    1.110   .     S
C910   H941    1.109   .     S
C910   H1933   1.111   1_554 S
C911   H946    1.111   .     S
C911   H945    1.111   .     S
C911   C912    1.538   .     S
C911   O975    1.421   .     S
C912   H948    1.111   .     S
C912   H947    1.109   .     S
C913   H949    1.110   .     S
C913   H950    1.110   .     S
C913   H951    1.109   .     S
C913   C692    1.520   1_655 S
C914   C915    1.416   .     A
C914   C1893   1.419   .     S
C914   C1906   1.425   .     S
C915   C919    1.418   .     A
C916   C1904   1.425   1_554 S
C916   C1907   1.422   1_554 S
C917   C918    1.410   .     A
C917   C1906   1.422   .     S
C917   C1885   1.418   .     S
C918   C919    1.402   .     A
C918   O971    1.390   .     S
C919   O978    1.381   .     S
H933   C247    1.110   1_565 S
H934   C247    1.110   1_565 S
H938   C1899   1.112   .     S
H943   C1900   1.111   .     S
H944   O974    0.986   .     S
H952   O976    0.990   .     S
H954   O977    0.991   .     S
H955   O978    0.992   .     S
H956   O979    0.990   .     S
H960   O968    0.992   .     S
O962   Zn990   1.924   .     S
O962   Zn988   1.953   .     S
O962   Zn989   1.937   .     S
O962   Zn987   1.972   .     S
O963   Zn988   1.930   .     S
O964   Zn990   1.947   .     S
O965   Zn989   1.939   .     S
O966   Zn987   1.923   .     S
O968   C667    1.384   1_655 S
O970   H267    0.992   1_565 S
O970   C229    1.385   1_565 S
O972   C1885   1.385   .     S
O973   Zn987   1.931   .     S
O977   C1882   1.381   1_554 S
O980   Zn990   1.936   .     S
O981   Zn988   1.931   .     S
O982   Zn989   1.949   .     S
O983   Zn990   1.945   .     S
O984   Zn987   1.931   .     S
O985   Zn988   1.940   .     S
O986   Zn989   1.930   .     S
C991   O1093   1.265   .     A
C991   O1091   1.268   .     A
C991   C997    1.443   .     S
C992   C1006   1.409   .     A
C992   O1084   1.388   .     S
C992   C1026   1.408   .     A
C993   O1077   1.386   .     S
C993   C1005   1.400   .     A
C993   C1006   1.406   .     A
C994   C996    1.475   .     S
C994   O1092   1.290   .     A
C994   O1094   1.280   .     A
C995   C1007   1.419   .     A
C995   C1025   1.426   .     A
C995   C1004   1.495   .     S
C996   C1107   1.351   .     S
C996   O1199   1.387   .     S
C997   C1216   1.351   1_455 S
C997   O1298   1.384   1_455 S
C998   C1001   1.462   .     S
C998   C1329   1.345   .     S
C998   O1409   1.392   .     S
C999   C1000   1.436   .     S
C999   C1658   1.345   1_545 S
C999   O1740   1.385   1_545 S
C1000  O1083   1.283   .     A
C1000  O1095   1.277   .     A
C1001  O1090   1.269   .     A
C1001  O1096   1.270   .     A
C1002  C1007   1.401   .     A
C1002  C23     1.410   1_556 S
C1002  O97     1.381   1_556 S
C1003  O1073   1.276   .     A
C1003  C1006   1.452   .     S
C1003  O1075   1.276   .     A
C1004  O1074   1.288   .     A
C1004  O1076   1.290   .     A
C1007  O1085   1.389   .     S
C1008  C1009   1.534   .     S
C1008  H1030   1.111   .     S
C1008  H1041   1.114   .     S
C1008  O1077   1.417   .     S
C1009  H1052   1.110   .     S
C1009  H1063   1.110   .     S
C1009  C1120   1.525   .     S
C1010  H1067   1.109   .     S
C1010  H1069   1.111   .     S
C1010  H1068   1.111   .     S
C1010  C1229   1.525   1_455 S
C1011  C1012   1.531   .     S
C1011  H1031   1.117   .     S
C1011  H1401   1.110   .     S
C1011  O1409   1.417   .     S
C1012  C1014   1.524   .     S
C1012  H1033   1.111   .     S
C1012  H1362   1.112   .     S
C1013  O1086   1.384   .     S
C1014  H1035   1.110   .     S
C1014  H1034   1.111   .     S
C1014  H1036   1.107   .     S
C1015  O1081   1.420   .     S
C1015  C1016   1.549   .     S
C1015  H1038   1.111   .     S
C1015  H1039   1.109   .     S
C1016  C1017   1.528   .     S
C1016  H1040   1.109   .     S
C1016  H1042   1.111   .     S
C1017  H1045   1.109   .     S
C1017  H1703   1.110   1_545 S
C1017  H1704   1.110   1_545 S
C1018  H1046   1.109   .     S
C1018  H1047   1.118   .     S
C1018  O1082   1.417   .     S
C1018  C689    1.528   1_546 S
C1019  C1020   1.526   .     S
C1019  H1379   1.110   .     S
C1020  H1050   1.110   .     S
C1020  H1051   1.109   .     S
C1021  H1056   1.111   .     S
C1021  H1055   1.111   .     S
C1021  C1022   1.538   .     S
C1021  O1085   1.421   .     S
C1022  H1058   1.111   .     S
C1022  H1057   1.109   .     S
C1022  C1243   1.520   1_455 S
C1023  H1059   1.110   .     S
C1023  H1060   1.110   .     S
C1023  H1061   1.109   .     S
C1023  C1132   1.520   .     S
C1024  C1025   1.416   .     A
C1024  C23     1.419   1_556 S
C1024  C36     1.425   1_556 S
C1025  C1029   1.418   .     A
C1027  C1028   1.410   .     A
C1027  C36     1.422   1_556 S
C1027  C15     1.418   1_556 S
C1028  C1029   1.402   .     A
C1028  O1081   1.390   .     S
C1029  O1088   1.381   .     S
H1032  C1672   1.112   1_545 S
H1037  O1740   0.992   1_545 S
H1043  C1347   1.110   .     S
H1044  C1347   1.110   .     S
H1048  C29     1.112   1_556 S
H1049  C1679   1.110   1_545 S
H1053  C30     1.111   1_556 S
H1054  O1084   0.986   .     S
H1062  O1086   0.990   .     S
H1064  O1087   0.991   .     S
H1065  O1088   0.992   .     S
H1066  O1089   0.990   .     S
H1070  O1078   0.992   .     S
H1071  C1671   1.110   1_545 S
O1072  Zn1100  1.924   .     S
O1072  Zn1098  1.953   .     S
O1072  Zn1099  1.937   .     S
O1072  Zn1097  1.972   .     S
O1073  Zn1098  1.930   .     S
O1074  Zn1100  1.947   .     S
O1075  Zn1099  1.939   .     S
O1076  Zn1097  1.923   .     S
O1078  C1107   1.384   .     S
O1079  C1658   1.392   1_545 S
O1079  C1671   1.417   1_545 S
O1080  H1367   0.992   .     S
O1080  C1329   1.385   .     S
O1082  C15     1.385   1_556 S
O1083  Zn1097  1.931   .     S
O1089  C1216   1.387   1_455 S
O1090  Zn1100  1.936   .     S
O1091  Zn1098  1.931   .     S
O1092  Zn1099  1.949   .     S
O1093  Zn1100  1.945   .     S
O1094  Zn1097  1.931   .     S
O1095  Zn1098  1.940   .     S
O1096  Zn1099  1.930   .     S
C1101  O1203   1.265   .     A
C1101  O1201   1.268   .     A
C1101  C1107   1.443   .     S
C1102  C1116   1.409   .     A
C1102  O1194   1.388   .     S
C1102  C1136   1.408   .     A
C1103  O1187   1.386   .     S
C1103  C1115   1.400   .     A
C1103  C1116   1.406   .     A
C1104  C1106   1.475   .     S
C1104  O1202   1.290   .     A
C1104  O1204   1.280   .     A
C1105  C1117   1.419   .     A
C1105  C1135   1.426   .     A
C1105  C1114   1.495   .     S
C1106  C1217   1.351   .     S
C1106  O1309   1.387   .     S
C1108  C1111   1.462   .     S
C1108  C1439   1.345   .     S
C1108  O1519   1.392   .     S
C1109  C1110   1.436   .     S
C1109  C1768   1.345   1_545 S
C1109  O1850   1.385   1_545 S
C1110  O1193   1.283   .     A
C1110  O1205   1.277   .     A
C1111  O1200   1.269   .     A
C1111  O1206   1.270   .     A
C1112  C1117   1.401   .     A
C1112  C133    1.410   1_556 S
C1112  O207    1.381   1_556 S
C1113  O1183   1.276   .     A
C1113  C1116   1.452   .     S
C1113  O1185   1.276   .     A
C1114  O1184   1.288   .     A
C1114  O1186   1.290   .     A
C1117  O1195   1.389   .     S
C1118  C1119   1.534   .     S
C1118  H1140   1.111   .     S
C1118  H1151   1.114   .     S
C1118  O1187   1.417   .     S
C1119  H1162   1.110   .     S
C1119  H1173   1.110   .     S
C1119  C1230   1.525   .     S
C1120  H1177   1.109   .     S
C1120  H1179   1.111   .     S
C1120  H1178   1.111   .     S
C1121  C1122   1.531   .     S
C1121  H1141   1.117   .     S
C1121  H1511   1.110   .     S
C1121  O1519   1.417   .     S
C1122  C1124   1.524   .     S
C1122  H1143   1.111   .     S
C1122  H1472   1.112   .     S
C1123  O1196   1.384   .     S
C1124  H1145   1.110   .     S
C1124  H1144   1.111   .     S
C1124  H1146   1.107   .     S
C1125  O1191   1.420   .     S
C1125  C1126   1.549   .     S
C1125  H1148   1.111   .     S
C1125  H1149   1.109   .     S
C1126  C1127   1.528   .     S
C1126  H1150   1.109   .     S
C1126  H1152   1.111   .     S
C1127  H1155   1.109   .     S
C1127  H1813   1.110   1_545 S
C1127  H1814   1.110   1_545 S
C1128  H1156   1.109   .     S
C1128  H1157   1.118   .     S
C1128  O1192   1.417   .     S
C1128  C799    1.528   1_546 S
C1129  C1130   1.526   .     S
C1129  H1489   1.110   .     S
C1130  H1160   1.110   .     S
C1130  H1161   1.109   .     S
C1131  H1166   1.111   .     S
C1131  H1165   1.111   .     S
C1131  C1132   1.538   .     S
C1131  O1195   1.421   .     S
C1132  H1168   1.111   .     S
C1132  H1167   1.109   .     S
C1133  H1169   1.110   .     S
C1133  H1170   1.110   .     S
C1133  H1171   1.109   .     S
C1133  C1242   1.520   .     S
C1134  C1135   1.416   .     A
C1134  C133    1.419   1_556 S
C1134  C146    1.425   1_556 S
C1135  C1139   1.418   .     A
C1137  C1138   1.410   .     A
C1137  C146    1.422   1_556 S
C1137  C125    1.418   1_556 S
C1138  C1139   1.402   .     A
C1138  O1191   1.390   .     S
C1139  O1198   1.381   .     S
H1142  C1782   1.112   1_545 S
H1147  O1850   0.992   1_545 S
H1153  C1457   1.110   .     S
H1154  C1457   1.110   .     S
H1158  C139    1.112   1_556 S
H1159  C1789   1.110   1_545 S
H1163  C140    1.111   1_556 S
H1164  O1194   0.986   .     S
H1172  O1196   0.990   .     S
H1174  O1197   0.991   .     S
H1175  O1198   0.992   .     S
H1176  O1199   0.990   .     S
H1180  O1188   0.992   .     S
H1181  C1781   1.110   1_545 S
O1182  Zn1210  1.924   .     S
O1182  Zn1208  1.953   .     S
O1182  Zn1209  1.937   .     S
O1182  Zn1207  1.972   .     S
O1183  Zn1208  1.930   .     S
O1184  Zn1210  1.947   .     S
O1185  Zn1209  1.939   .     S
O1186  Zn1207  1.923   .     S
O1188  C1217   1.384   .     S
O1189  C1768   1.392   1_545 S
O1189  C1781   1.417   1_545 S
O1190  H1477   0.992   .     S
O1190  C1439   1.385   .     S
O1192  C125    1.385   1_556 S
O1193  Zn1207  1.931   .     S
O1200  Zn1210  1.936   .     S
O1201  Zn1208  1.931   .     S
O1202  Zn1209  1.949   .     S
O1203  Zn1210  1.945   .     S
O1204  Zn1207  1.931   .     S
O1205  Zn1208  1.940   .     S
O1206  Zn1209  1.930   .     S
C1211  O1313   1.265   .     A
C1211  O1311   1.268   .     A
C1211  C1217   1.443   .     S
C1212  C1226   1.409   .     A
C1212  O1304   1.388   .     S
C1212  C1246   1.408   .     A
C1213  O1297   1.386   .     S
C1213  C1225   1.400   .     A
C1213  C1226   1.406   .     A
C1214  C1216   1.475   .     S
C1214  O1312   1.290   .     A
C1214  O1314   1.280   .     A
C1215  C1227   1.419   .     A
C1215  C1245   1.426   .     A
C1215  C1224   1.495   .     S
C1216  C997    1.351   1_655 S
C1216  O1089   1.387   1_655 S
C1218  C1221   1.462   .     S
C1218  C1549   1.345   .     S
C1218  O1629   1.392   .     S
C1219  C1220   1.436   .     S
C1219  C1878   1.345   1_545 S
C1219  O1960   1.385   1_545 S
C1220  O1303   1.283   .     A
C1220  O1315   1.277   .     A
C1221  O1310   1.269   .     A
C1221  O1316   1.270   .     A
C1222  C1227   1.401   .     A
C1222  C243    1.410   1_556 S
C1222  O317    1.381   1_556 S
C1223  O1293   1.276   .     A
C1223  C1226   1.452   .     S
C1223  O1295   1.276   .     A
C1224  O1294   1.288   .     A
C1224  O1296   1.290   .     A
C1227  O1305   1.389   .     S
C1228  C1229   1.534   .     S
C1228  H1250   1.111   .     S
C1228  H1261   1.114   .     S
C1228  O1297   1.417   .     S
C1229  H1272   1.110   .     S
C1229  H1283   1.110   .     S
C1229  C1010   1.525   1_655 S
C1230  H1287   1.109   .     S
C1230  H1289   1.111   .     S
C1230  H1288   1.111   .     S
C1231  C1232   1.531   .     S
C1231  H1251   1.117   .     S
C1231  H1621   1.110   .     S
C1231  O1629   1.417   .     S
C1232  C1234   1.524   .     S
C1232  H1253   1.111   .     S
C1232  H1582   1.112   .     S
C1233  O1306   1.384   .     S
C1234  H1255   1.110   .     S
C1234  H1254   1.111   .     S
C1234  H1256   1.107   .     S
C1235  O1301   1.420   .     S
C1235  C1236   1.549   .     S
C1235  H1258   1.111   .     S
C1235  H1259   1.109   .     S
C1236  C1237   1.528   .     S
C1236  H1260   1.109   .     S
C1236  H1262   1.111   .     S
C1237  H1265   1.109   .     S
C1237  H1923   1.110   1_545 S
C1237  H1924   1.110   1_545 S
C1238  H1266   1.109   .     S
C1238  H1267   1.118   .     S
C1238  O1302   1.417   .     S
C1238  C909    1.528   1_546 S
C1239  C1240   1.526   .     S
C1239  H1599   1.110   .     S
C1240  H1270   1.110   .     S
C1240  H1271   1.109   .     S
C1241  H1276   1.111   .     S
C1241  H1275   1.111   .     S
C1241  C1242   1.538   .     S
C1241  O1305   1.421   .     S
C1242  H1278   1.111   .     S
C1242  H1277   1.109   .     S
C1243  H1279   1.110   .     S
C1243  H1280   1.110   .     S
C1243  H1281   1.109   .     S
C1243  C1022   1.520   1_655 S
C1244  C1245   1.416   .     A
C1244  C243    1.419   1_556 S
C1244  C256    1.425   1_556 S
C1245  C1249   1.418   .     A
C1247  C1248   1.410   .     A
C1247  C256    1.422   1_556 S
C1247  C235    1.418   1_556 S
C1248  C1249   1.402   .     A
C1248  O1301   1.390   .     S
C1249  O1308   1.381   .     S
H1252  C1892   1.112   1_545 S
H1257  O1960   0.992   1_545 S
H1263  C1567   1.110   .     S
H1264  C1567   1.110   .     S
H1268  C249    1.112   1_556 S
H1269  C1899   1.110   1_545 S
H1273  C250    1.111   1_556 S
H1274  O1304   0.986   .     S
H1282  O1306   0.990   .     S
H1284  O1307   0.991   .     S
H1285  O1308   0.992   .     S
H1286  O1309   0.990   .     S
H1290  O1298   0.992   .     S
H1291  C1891   1.110   1_545 S
O1292  Zn1320  1.924   .     S
O1292  Zn1318  1.953   .     S
O1292  Zn1319  1.937   .     S
O1292  Zn1317  1.972   .     S
O1293  Zn1318  1.930   .     S
O1294  Zn1320  1.947   .     S
O1295  Zn1319  1.939   .     S
O1296  Zn1317  1.923   .     S
O1298  C997    1.384   1_655 S
O1299  C1878   1.392   1_545 S
O1299  C1891   1.417   1_545 S
O1300  H1587   0.992   .     S
O1300  C1549   1.385   .     S
O1302  C235    1.385   1_556 S
O1303  Zn1317  1.931   .     S
O1310  Zn1320  1.936   .     S
O1311  Zn1318  1.931   .     S
O1312  Zn1319  1.949   .     S
O1313  Zn1320  1.945   .     S
O1314  Zn1317  1.931   .     S
O1315  Zn1318  1.940   .     S
O1316  Zn1319  1.930   .     S
C1321  O1423   1.265   .     A
C1321  O1421   1.268   .     A
C1321  C1327   1.443   .     S
C1322  C1336   1.409   .     A
C1322  O1414   1.388   .     S
C1322  C1356   1.408   .     A
C1323  O1407   1.386   .     S
C1323  C1335   1.400   .     A
C1323  C1336   1.406   .     A
C1324  C1326   1.475   .     S
C1324  O1422   1.290   .     A
C1324  O1424   1.280   .     A
C1325  C1337   1.419   .     A
C1325  C1355   1.426   .     A
C1325  C1334   1.495   .     S
C1326  C1437   1.351   .     S
C1326  O1529   1.387   .     S
C1327  C1546   1.351   1_455 S
C1327  O1628   1.384   1_455 S
C1328  C1331   1.462   .     S
C1328  C1659   1.345   .     S
C1328  O1739   1.392   .     S
C1329  C1330   1.436   .     S
C1330  O1413   1.283   .     A
C1330  O1425   1.277   .     A
C1331  O1420   1.269   .     A
C1331  O1426   1.270   .     A
C1332  C1337   1.401   .     A
C1332  C353    1.410   1_556 S
C1332  O427    1.381   1_556 S
C1333  O1403   1.276   .     A
C1333  C1336   1.452   .     S
C1333  O1405   1.276   .     A
C1334  O1404   1.288   .     A
C1334  O1406   1.290   .     A
C1337  O1415   1.389   .     S
C1338  C1339   1.534   .     S
C1338  H1360   1.111   .     S
C1338  H1371   1.114   .     S
C1338  O1407   1.417   .     S
C1339  H1382   1.110   .     S
C1339  H1393   1.110   .     S
C1339  C1450   1.525   .     S
C1340  H1397   1.109   .     S
C1340  H1399   1.111   .     S
C1340  H1398   1.111   .     S
C1340  C1559   1.525   1_455 S
C1341  C1342   1.531   .     S
C1341  H1361   1.117   .     S
C1341  H1731   1.110   .     S
C1341  O1739   1.417   .     S
C1342  C1344   1.524   .     S
C1342  H1363   1.111   .     S
C1342  H1692   1.112   .     S
C1343  O1416   1.384   .     S
C1344  H1365   1.110   .     S
C1344  H1364   1.111   .     S
C1344  H1366   1.107   .     S
C1345  O1411   1.420   .     S
C1345  C1346   1.549   .     S
C1345  H1368   1.111   .     S
C1345  H1369   1.109   .     S
C1346  C1347   1.528   .     S
C1346  H1370   1.109   .     S
C1346  H1372   1.111   .     S
C1347  H1375   1.109   .     S
C1348  H1376   1.109   .     S
C1348  H1377   1.118   .     S
C1348  O1412   1.417   .     S
C1348  C29     1.528   1_556 S
C1349  C1350   1.526   .     S
C1349  H1709   1.110   .     S
C1350  H1380   1.110   .     S
C1350  H1381   1.109   .     S
C1351  H1386   1.111   .     S
C1351  H1385   1.111   .     S
C1351  C1352   1.538   .     S
C1351  O1415   1.421   .     S
C1352  H1388   1.111   .     S
C1352  H1387   1.109   .     S
C1352  C1573   1.520   1_455 S
C1353  H1389   1.110   .     S
C1353  H1390   1.110   .     S
C1353  H1391   1.109   .     S
C1353  C1462   1.520   .     S
C1354  C1355   1.416   .     A
C1354  C353    1.419   1_556 S
C1354  C366    1.425   1_556 S
C1355  C1359   1.418   .     A
C1357  C1358   1.410   .     A
C1357  C366    1.422   1_556 S
C1357  C345    1.418   1_556 S
C1358  C1359   1.402   .     A
C1358  O1411   1.390   .     S
C1359  O1418   1.381   .     S
H1373  C1677   1.110   .     S
H1374  C1677   1.110   .     S
H1378  C359    1.112   1_556 S
H1383  C360    1.111   1_556 S
H1384  O1414   0.986   .     S
H1392  O1416   0.990   .     S
H1394  O1417   0.991   .     S
H1395  O1418   0.992   .     S
H1396  O1419   0.990   .     S
H1400  O1408   0.992   .     S
O1402  Zn1430  1.924   .     S
O1402  Zn1428  1.953   .     S
O1402  Zn1429  1.937   .     S
O1402  Zn1427  1.972   .     S
O1403  Zn1428  1.930   .     S
O1404  Zn1430  1.947   .     S
O1405  Zn1429  1.939   .     S
O1406  Zn1427  1.923   .     S
O1408  C1437   1.384   .     S
O1410  H1697   0.992   .     S
O1410  C1659   1.385   .     S
O1412  C345    1.385   1_556 S
O1413  Zn1427  1.931   .     S
O1419  C1546   1.387   1_455 S
O1420  Zn1430  1.936   .     S
O1421  Zn1428  1.931   .     S
O1422  Zn1429  1.949   .     S
O1423  Zn1430  1.945   .     S
O1424  Zn1427  1.931   .     S
O1425  Zn1428  1.940   .     S
O1426  Zn1429  1.930   .     S
C1431  O1533   1.265   .     A
C1431  O1531   1.268   .     A
C1431  C1437   1.443   .     S
C1432  C1446   1.409   .     A
C1432  O1524   1.388   .     S
C1432  C1466   1.408   .     A
C1433  O1517   1.386   .     S
C1433  C1445   1.400   .     A
C1433  C1446   1.406   .     A
C1434  C1436   1.475   .     S
C1434  O1532   1.290   .     A
C1434  O1534   1.280   .     A
C1435  C1447   1.419   .     A
C1435  C1465   1.426   .     A
C1435  C1444   1.495   .     S
C1436  C1547   1.351   .     S
C1436  O1639   1.387   .     S
C1438  C1441   1.462   .     S
C1438  C1769   1.345   .     S
C1438  O1849   1.392   .     S
C1439  C1440   1.436   .     S
C1440  O1523   1.283   .     A
C1440  O1535   1.277   .     A
C1441  O1530   1.269   .     A
C1441  O1536   1.270   .     A
C1442  C1447   1.401   .     A
C1442  C463    1.410   1_556 S
C1442  O537    1.381   1_556 S
C1443  O1513   1.276   .     A
C1443  C1446   1.452   .     S
C1443  O1515   1.276   .     A
C1444  O1514   1.288   .     A
C1444  O1516   1.290   .     A
C1447  O1525   1.389   .     S
C1448  C1449   1.534   .     S
C1448  H1470   1.111   .     S
C1448  H1481   1.114   .     S
C1448  O1517   1.417   .     S
C1449  H1492   1.110   .     S
C1449  H1503   1.110   .     S
C1449  C1560   1.525   .     S
C1450  H1507   1.109   .     S
C1450  H1509   1.111   .     S
C1450  H1508   1.111   .     S
C1451  C1452   1.531   .     S
C1451  H1471   1.117   .     S
C1451  H1841   1.110   .     S
C1451  O1849   1.417   .     S
C1452  C1454   1.524   .     S
C1452  H1473   1.111   .     S
C1452  H1802   1.112   .     S
C1453  O1526   1.384   .     S
C1454  H1475   1.110   .     S
C1454  H1474   1.111   .     S
C1454  H1476   1.107   .     S
C1455  O1521   1.420   .     S
C1455  C1456   1.549   .     S
C1455  H1478   1.111   .     S
C1455  H1479   1.109   .     S
C1456  C1457   1.528   .     S
C1456  H1480   1.109   .     S
C1456  H1482   1.111   .     S
C1457  H1485   1.109   .     S
C1458  H1486   1.109   .     S
C1458  H1487   1.118   .     S
C1458  O1522   1.417   .     S
C1458  C139    1.528   1_556 S
C1459  C1460   1.526   .     S
C1459  H1819   1.110   .     S
C1460  H1490   1.110   .     S
C1460  H1491   1.109   .     S
C1461  H1496   1.111   .     S
C1461  H1495   1.111   .     S
C1461  C1462   1.538   .     S
C1461  O1525   1.421   .     S
C1462  H1498   1.111   .     S
C1462  H1497   1.109   .     S
C1463  H1499   1.110   .     S
C1463  H1500   1.110   .     S
C1463  H1501   1.109   .     S
C1463  C1572   1.520   .     S
C1464  C1465   1.416   .     A
C1464  C463    1.419   1_556 S
C1464  C476    1.425   1_556 S
C1465  C1469   1.418   .     A
C1467  C1468   1.410   .     A
C1467  C476    1.422   1_556 S
C1467  C455    1.418   1_556 S
C1468  C1469   1.402   .     A
C1468  O1521   1.390   .     S
C1469  O1528   1.381   .     S
H1483  C1787   1.110   .     S
H1484  C1787   1.110   .     S
H1488  C469    1.112   1_556 S
H1493  C470    1.111   1_556 S
H1494  O1524   0.986   .     S
H1502  O1526   0.990   .     S
H1504  O1527   0.991   .     S
H1505  O1528   0.992   .     S
H1506  O1529   0.990   .     S
H1510  O1518   0.992   .     S
O1512  Zn1540  1.924   .     S
O1512  Zn1538  1.953   .     S
O1512  Zn1539  1.937   .     S
O1512  Zn1537  1.972   .     S
O1513  Zn1538  1.930   .     S
O1514  Zn1540  1.947   .     S
O1515  Zn1539  1.939   .     S
O1516  Zn1537  1.923   .     S
O1518  C1547   1.384   .     S
O1520  H1807   0.992   .     S
O1520  C1769   1.385   .     S
O1522  C455    1.385   1_556 S
O1523  Zn1537  1.931   .     S
O1530  Zn1540  1.936   .     S
O1531  Zn1538  1.931   .     S
O1532  Zn1539  1.949   .     S
O1533  Zn1540  1.945   .     S
O1534  Zn1537  1.931   .     S
O1535  Zn1538  1.940   .     S
O1536  Zn1539  1.930   .     S
C1541  O1643   1.265   .     A
C1541  O1641   1.268   .     A
C1541  C1547   1.443   .     S
C1542  C1556   1.409   .     A
C1542  O1634   1.388   .     S
C1542  C1576   1.408   .     A
C1543  O1627   1.386   .     S
C1543  C1555   1.400   .     A
C1543  C1556   1.406   .     A
C1544  C1546   1.475   .     S
C1544  O1642   1.290   .     A
C1544  O1644   1.280   .     A
C1545  C1557   1.419   .     A
C1545  C1575   1.426   .     A
C1545  C1554   1.495   .     S
C1546  C1327   1.351   1_655 S
C1546  O1419   1.387   1_655 S
C1548  C1551   1.462   .     S
C1548  C1879   1.345   .     S
C1548  O1959   1.392   .     S
C1549  C1550   1.436   .     S
C1550  O1633   1.283   .     A
C1550  O1645   1.277   .     A
C1551  O1640   1.269   .     A
C1551  O1646   1.270   .     A
C1552  C1557   1.401   .     A
C1552  C573    1.410   1_556 S
C1552  O647    1.381   1_556 S
C1553  O1623   1.276   .     A
C1553  C1556   1.452   .     S
C1553  O1625   1.276   .     A
C1554  O1624   1.288   .     A
C1554  O1626   1.290   .     A
C1557  O1635   1.389   .     S
C1558  C1559   1.534   .     S
C1558  H1580   1.111   .     S
C1558  H1591   1.114   .     S
C1558  O1627   1.417   .     S
C1559  H1602   1.110   .     S
C1559  H1613   1.110   .     S
C1559  C1340   1.525   1_655 S
C1560  H1617   1.109   .     S
C1560  H1619   1.111   .     S
C1560  H1618   1.111   .     S
C1561  C1562   1.531   .     S
C1561  H1581   1.117   .     S
C1561  H1951   1.110   .     S
C1561  O1959   1.417   .     S
C1562  C1564   1.524   .     S
C1562  H1583   1.111   .     S
C1562  H1912   1.112   .     S
C1563  O1636   1.384   .     S
C1564  H1585   1.110   .     S
C1564  H1584   1.111   .     S
C1564  H1586   1.107   .     S
C1565  O1631   1.420   .     S
C1565  C1566   1.549   .     S
C1565  H1588   1.111   .     S
C1565  H1589   1.109   .     S
C1566  C1567   1.528   .     S
C1566  H1590   1.109   .     S
C1566  H1592   1.111   .     S
C1567  H1595   1.109   .     S
C1568  H1596   1.109   .     S
C1568  H1597   1.118   .     S
C1568  O1632   1.417   .     S
C1568  C249    1.528   1_556 S
C1569  C1570   1.526   .     S
C1569  H1929   1.110   .     S
C1570  H1600   1.110   .     S
C1570  H1601   1.109   .     S
C1571  H1606   1.111   .     S
C1571  H1605   1.111   .     S
C1571  C1572   1.538   .     S
C1571  O1635   1.421   .     S
C1572  H1608   1.111   .     S
C1572  H1607   1.109   .     S
C1573  H1609   1.110   .     S
C1573  H1610   1.110   .     S
C1573  H1611   1.109   .     S
C1573  C1352   1.520   1_655 S
C1574  C1575   1.416   .     A
C1574  C573    1.419   1_556 S
C1574  C586    1.425   1_556 S
C1575  C1579   1.418   .     A
C1577  C1578   1.410   .     A
C1577  C586    1.422   1_556 S
C1577  C565    1.418   1_556 S
C1578  C1579   1.402   .     A
C1578  O1631   1.390   .     S
C1579  O1638   1.381   .     S
H1593  C1897   1.110   .     S
H1594  C1897   1.110   .     S
H1598  C579    1.112   1_556 S
H1603  C580    1.111   1_556 S
H1604  O1634   0.986   .     S
H1612  O1636   0.990   .     S
H1614  O1637   0.991   .     S
H1615  O1638   0.992   .     S
H1616  O1639   0.990   .     S
H1620  O1628   0.992   .     S
O1622  Zn1650  1.924   .     S
O1622  Zn1648  1.953   .     S
O1622  Zn1649  1.937   .     S
O1622  Zn1647  1.972   .     S
O1623  Zn1648  1.930   .     S
O1624  Zn1650  1.947   .     S
O1625  Zn1649  1.939   .     S
O1626  Zn1647  1.923   .     S
O1628  C1327   1.384   1_655 S
O1630  H1917   0.992   .     S
O1630  C1879   1.385   .     S
O1632  C565    1.385   1_556 S
O1633  Zn1647  1.931   .     S
O1640  Zn1650  1.936   .     S
O1641  Zn1648  1.931   .     S
O1642  Zn1649  1.949   .     S
O1643  Zn1650  1.945   .     S
O1644  Zn1647  1.931   .     S
O1645  Zn1648  1.940   .     S
O1646  Zn1649  1.930   .     S
C1651  O1753   1.265   .     A
C1651  O1751   1.268   .     A
C1651  C1657   1.443   .     S
C1652  C1666   1.409   .     A
C1652  O1744   1.388   .     S
C1652  C1686   1.408   .     A
C1653  O1737   1.386   .     S
C1653  C1665   1.400   .     A
C1653  C1666   1.406   .     A
C1654  C1656   1.475   .     S
C1654  O1752   1.290   .     A
C1654  O1754   1.280   .     A
C1655  C1667   1.419   .     A
C1655  C1685   1.426   .     A
C1655  C1664   1.495   .     S
C1656  C1767   1.351   .     S
C1656  O1859   1.387   .     S
C1657  C1876   1.351   1_455 S
C1657  O1958   1.384   1_455 S
C1658  C1661   1.462   .     S
C1658  C999    1.345   1_565 S
C1658  O1079   1.392   1_565 S
C1659  C1660   1.436   .     S
C1660  O1743   1.283   .     A
C1660  O1755   1.277   .     A
C1661  O1750   1.269   .     A
C1661  O1756   1.270   .     A
C1662  C1667   1.401   .     A
C1662  C683    1.410   1_556 S
C1662  O757    1.381   1_556 S
C1663  O1733   1.276   .     A
C1663  C1666   1.452   .     S
C1663  O1735   1.276   .     A
C1664  O1734   1.288   .     A
C1664  O1736   1.290   .     A
C1667  O1745   1.389   .     S
C1668  C1669   1.534   .     S
C1668  H1690   1.111   .     S
C1668  H1701   1.114   .     S
C1668  O1737   1.417   .     S
C1669  H1712   1.110   .     S
C1669  H1723   1.110   .     S
C1669  C1780   1.525   .     S
C1670  H1727   1.109   .     S
C1670  H1729   1.111   .     S
C1670  H1728   1.111   .     S
C1670  C1889   1.525   1_455 S
C1671  C1672   1.531   .     S
C1671  H1691   1.117   .     S
C1671  H1071   1.110   1_565 S
C1671  O1079   1.417   1_565 S
C1672  C1674   1.524   .     S
C1672  H1693   1.111   .     S
C1672  H1032   1.112   1_565 S
C1673  O1746   1.384   .     S
C1674  H1695   1.110   .     S
C1674  H1694   1.111   .     S
C1674  H1696   1.107   .     S
C1675  O1741   1.420   .     S
C1675  C1676   1.549   .     S
C1675  H1698   1.111   .     S
C1675  H1699   1.109   .     S
C1676  C1677   1.528   .     S
C1676  H1700   1.109   .     S
C1676  H1702   1.111   .     S
C1677  H1705   1.109   .     S
C1678  H1706   1.109   .     S
C1678  H1707   1.118   .     S
C1678  O1742   1.417   .     S
C1678  C359    1.528   1_556 S
C1679  C1680   1.526   .     S
C1679  C28     1.528   1_565 S
C1679  H1049   1.110   1_565 S
C1680  H1710   1.110   .     S
C1680  H1711   1.109   .     S
C1681  H1716   1.111   .     S
C1681  H1715   1.111   .     S
C1681  C1682   1.538   .     S
C1681  O1745   1.421   .     S
C1682  H1718   1.111   .     S
C1682  H1717   1.109   .     S
C1682  C1903   1.520   1_455 S
C1683  H1719   1.110   .     S
C1683  H1720   1.110   .     S
C1683  H1721   1.109   .     S
C1683  C1792   1.520   .     S
C1684  C1685   1.416   .     A
C1684  C683    1.419   1_556 S
C1684  C696    1.425   1_556 S
C1685  C1689   1.418   .     A
C1687  C1688   1.410   .     A
C1687  C696    1.422   1_556 S
C1687  C675    1.418   1_556 S
C1688  C1689   1.402   .     A
C1688  O1741   1.390   .     S
C1689  O1748   1.381   .     S
H1703  C1017   1.110   1_565 S
H1704  C1017   1.110   1_565 S
H1708  C689    1.112   1_556 S
H1713  C690    1.111   1_556 S
H1714  O1744   0.986   .     S
H1722  O1746   0.990   .     S
H1724  O1747   0.991   .     S
H1725  O1748   0.992   .     S
H1726  O1749   0.990   .     S
H1730  O1738   0.992   .     S
O1732  Zn1760  1.924   .     S
O1732  Zn1758  1.953   .     S
O1732  Zn1759  1.937   .     S
O1732  Zn1757  1.972   .     S
O1733  Zn1758  1.930   .     S
O1734  Zn1760  1.947   .     S
O1735  Zn1759  1.939   .     S
O1736  Zn1757  1.923   .     S
O1738  C1767   1.384   .     S
O1740  H1037   0.992   1_565 S
O1740  C999    1.385   1_565 S
O1742  C675    1.385   1_556 S
O1743  Zn1757  1.931   .     S
O1749  C1876   1.387   1_455 S
O1750  Zn1760  1.936   .     S
O1751  Zn1758  1.931   .     S
O1752  Zn1759  1.949   .     S
O1753  Zn1760  1.945   .     S
O1754  Zn1757  1.931   .     S
O1755  Zn1758  1.940   .     S
O1756  Zn1759  1.930   .     S
C1761  O1863   1.265   .     A
C1761  O1861   1.268   .     A
C1761  C1767   1.443   .     S
C1762  C1776   1.409   .     A
C1762  O1854   1.388   .     S
C1762  C1796   1.408   .     A
C1763  O1847   1.386   .     S
C1763  C1775   1.400   .     A
C1763  C1776   1.406   .     A
C1764  C1766   1.475   .     S
C1764  O1862   1.290   .     A
C1764  O1864   1.280   .     A
C1765  C1777   1.419   .     A
C1765  C1795   1.426   .     A
C1765  C1774   1.495   .     S
C1766  C1877   1.351   .     S
C1766  O1969   1.387   .     S
C1768  C1771   1.462   .     S
C1768  C1109   1.345   1_565 S
C1768  O1189   1.392   1_565 S
C1769  C1770   1.436   .     S
C1770  O1853   1.283   .     A
C1770  O1865   1.277   .     A
C1771  O1860   1.269   .     A
C1771  O1866   1.270   .     A
C1772  C1777   1.401   .     A
C1772  C793    1.410   1_556 S
C1772  O867    1.381   1_556 S
C1773  O1843   1.276   .     A
C1773  C1776   1.452   .     S
C1773  O1845   1.276   .     A
C1774  O1844   1.288   .     A
C1774  O1846   1.290   .     A
C1777  O1855   1.389   .     S
C1778  C1779   1.534   .     S
C1778  H1800   1.111   .     S
C1778  H1811   1.114   .     S
C1778  O1847   1.417   .     S
C1779  H1822   1.110   .     S
C1779  H1833   1.110   .     S
C1779  C1890   1.525   .     S
C1780  H1837   1.109   .     S
C1780  H1839   1.111   .     S
C1780  H1838   1.111   .     S
C1781  C1782   1.531   .     S
C1781  H1801   1.117   .     S
C1781  H1181   1.110   1_565 S
C1781  O1189   1.417   1_565 S
C1782  C1784   1.524   .     S
C1782  H1803   1.111   .     S
C1782  H1142   1.112   1_565 S
C1783  O1856   1.384   .     S
C1784  H1805   1.110   .     S
C1784  H1804   1.111   .     S
C1784  H1806   1.107   .     S
C1785  O1851   1.420   .     S
C1785  C1786   1.549   .     S
C1785  H1808   1.111   .     S
C1785  H1809   1.109   .     S
C1786  C1787   1.528   .     S
C1786  H1810   1.109   .     S
C1786  H1812   1.111   .     S
C1787  H1815   1.109   .     S
C1788  H1816   1.109   .     S
C1788  H1817   1.118   .     S
C1788  O1852   1.417   .     S
C1788  C469    1.528   1_556 S
C1789  C1790   1.526   .     S
C1789  C138    1.528   1_565 S
C1789  H1159   1.110   1_565 S
C1790  H1820   1.110   .     S
C1790  H1821   1.109   .     S
C1791  H1826   1.111   .     S
C1791  H1825   1.111   .     S
C1791  C1792   1.538   .     S
C1791  O1855   1.421   .     S
C1792  H1828   1.111   .     S
C1792  H1827   1.109   .     S
C1793  H1829   1.110   .     S
C1793  H1830   1.110   .     S
C1793  H1831   1.109   .     S
C1793  C1902   1.520   .     S
C1794  C1795   1.416   .     A
C1794  C793    1.419   1_556 S
C1794  C806    1.425   1_556 S
C1795  C1799   1.418   .     A
C1797  C1798   1.410   .     A
C1797  C806    1.422   1_556 S
C1797  C785    1.418   1_556 S
C1798  C1799   1.402   .     A
C1798  O1851   1.390   .     S
C1799  O1858   1.381   .     S
H1813  C1127   1.110   1_565 S
H1814  C1127   1.110   1_565 S
H1818  C799    1.112   1_556 S
H1823  C800    1.111   1_556 S
H1824  O1854   0.986   .     S
H1832  O1856   0.990   .     S
H1834  O1857   0.991   .     S
H1835  O1858   0.992   .     S
H1836  O1859   0.990   .     S
H1840  O1848   0.992   .     S
O1842  Zn1870  1.924   .     S
O1842  Zn1868  1.953   .     S
O1842  Zn1869  1.937   .     S
O1842  Zn1867  1.972   .     S
O1843  Zn1868  1.930   .     S
O1844  Zn1870  1.947   .     S
O1845  Zn1869  1.939   .     S
O1846  Zn1867  1.923   .     S
O1848  C1877   1.384   .     S
O1850  H1147   0.992   1_565 S
O1850  C1109   1.385   1_565 S
O1852  C785    1.385   1_556 S
O1853  Zn1867  1.931   .     S
O1860  Zn1870  1.936   .     S
O1861  Zn1868  1.931   .     S
O1862  Zn1869  1.949   .     S
O1863  Zn1870  1.945   .     S
O1864  Zn1867  1.931   .     S
O1865  Zn1868  1.940   .     S
O1866  Zn1869  1.930   .     S
C1871  O1973   1.265   .     A
C1871  O1971   1.268   .     A
C1871  C1877   1.443   .     S
C1872  C1886   1.409   .     A
C1872  O1964   1.388   .     S
C1872  C1906   1.408   .     A
C1873  O1957   1.386   .     S
C1873  C1885   1.400   .     A
C1873  C1886   1.406   .     A
C1874  C1876   1.475   .     S
C1874  O1972   1.290   .     A
C1874  O1974   1.280   .     A
C1875  C1887   1.419   .     A
C1875  C1905   1.426   .     A
C1875  C1884   1.495   .     S
C1876  C1657   1.351   1_655 S
C1876  O1749   1.387   1_655 S
C1878  C1881   1.462   .     S
C1878  C1219   1.345   1_565 S
C1878  O1299   1.392   1_565 S
C1879  C1880   1.436   .     S
C1880  O1963   1.283   .     A
C1880  O1975   1.277   .     A
C1881  O1970   1.269   .     A
C1881  O1976   1.270   .     A
C1882  C1887   1.401   .     A
C1882  C903    1.410   1_556 S
C1882  O977    1.381   1_556 S
C1883  O1953   1.276   .     A
C1883  C1886   1.452   .     S
C1883  O1955   1.276   .     A
C1884  O1954   1.288   .     A
C1884  O1956   1.290   .     A
C1887  O1965   1.389   .     S
C1888  C1889   1.534   .     S
C1888  H1910   1.111   .     S
C1888  H1921   1.114   .     S
C1888  O1957   1.417   .     S
C1889  H1932   1.110   .     S
C1889  H1943   1.110   .     S
C1889  C1670   1.525   1_655 S
C1890  H1947   1.109   .     S
C1890  H1949   1.111   .     S
C1890  H1948   1.111   .     S
C1891  C1892   1.531   .     S
C1891  H1911   1.117   .     S
C1891  H1291   1.110   1_565 S
C1891  O1299   1.417   1_565 S
C1892  C1894   1.524   .     S
C1892  H1913   1.111   .     S
C1892  H1252   1.112   1_565 S
C1893  O1966   1.384   .     S
C1894  H1915   1.110   .     S
C1894  H1914   1.111   .     S
C1894  H1916   1.107   .     S
C1895  O1961   1.420   .     S
C1895  C1896   1.549   .     S
C1895  H1918   1.111   .     S
C1895  H1919   1.109   .     S
C1896  C1897   1.528   .     S
C1896  H1920   1.109   .     S
C1896  H1922   1.111   .     S
C1897  H1925   1.109   .     S
C1898  H1926   1.109   .     S
C1898  H1927   1.118   .     S
C1898  O1962   1.417   .     S
C1898  C579    1.528   1_556 S
C1899  C1900   1.526   .     S
C1899  C248    1.528   1_565 S
C1899  H1269   1.110   1_565 S
C1900  H1930   1.110   .     S
C1900  H1931   1.109   .     S
C1901  H1936   1.111   .     S
C1901  H1935   1.111   .     S
C1901  C1902   1.538   .     S
C1901  O1965   1.421   .     S
C1902  H1938   1.111   .     S
C1902  H1937   1.109   .     S
C1903  H1939   1.110   .     S
C1903  H1940   1.110   .     S
C1903  H1941   1.109   .     S
C1903  C1682   1.520   1_655 S
C1904  C1905   1.416   .     A
C1904  C903    1.419   1_556 S
C1904  C916    1.425   1_556 S
C1905  C1909   1.418   .     A
C1907  C1908   1.410   .     A
C1907  C916    1.422   1_556 S
C1907  C895    1.418   1_556 S
C1908  C1909   1.402   .     A
C1908  O1961   1.390   .     S
C1909  O1968   1.381   .     S
H1923  C1237   1.110   1_565 S
H1924  C1237   1.110   1_565 S
H1928  C909    1.112   1_556 S
H1933  C910    1.111   1_556 S
H1934  O1964   0.986   .     S
H1942  O1966   0.990   .     S
H1944  O1967   0.991   .     S
H1945  O1968   0.992   .     S
H1946  O1969   0.990   .     S
H1950  O1958   0.992   .     S
O1952  Zn1980  1.924   .     S
O1952  Zn1978  1.953   .     S
O1952  Zn1979  1.937   .     S
O1952  Zn1977  1.972   .     S
O1953  Zn1978  1.930   .     S
O1954  Zn1980  1.947   .     S
O1955  Zn1979  1.939   .     S
O1956  Zn1977  1.923   .     S
O1958  C1657   1.384   1_655 S
O1960  H1257   0.992   1_565 S
O1960  C1219   1.385   1_565 S
O1962  C895    1.385   1_556 S
O1963  Zn1977  1.931   .     S
O1970  Zn1980  1.936   .     S
O1971  Zn1978  1.931   .     S
O1972  Zn1979  1.949   .     S
O1973  Zn1980  1.945   .     S
O1974  Zn1977  1.931   .     S
O1975  Zn1978  1.940   .     S
O1976  Zn1979  1.930   .     S
